# total energy = -340866.0268653869 ev
CRYSTAL
PRIMVEC
9.26079825236178 0.00000000000000 0.00000000000000
0.00000000000000 9.26079825236178 0.00000000000000
0.00000000000000 0.00000000000000 13.55411433816449
PRIMCOORD
 96 1
Ni 2.1266681743409115 8.490355171287455 3.322953981920125 0.8912718824184909 -0.9546305491807946 1.2838790780365308
Ni 4.839674513260691 5.4034718955072965 8.220448287494493 -0.67936670207163 -0.20980150374029674 0.7672045849222207
Ni 4.6390763677803415 1.2167392060422528 1.5802199710677105 1.5411858264466425 0.6264492852473083 0.39183329356649294
Ni 3.845240763211043 0.9476204161591003 8.214389873442823 -0.5717192406942799 0.6746512988738317 0.4649297564418509
Ni 6.656531951305974 4.728498633269389 5.596941078687163 -0.0917683282532484 1.222164117525237 0.04316342276135147
Ni 3.244214973004002 0.6322976528938067 5.641845762109888 0.28303166398004154 -0.7089822109452176 4.524409827903472
Ni 2.6230839903387264 3.179565342165245 1.5264508517992808 1.353471127303056 0.9634126662487987 -0.8438393999681403
Ni 8.57611016076846 4.63306610987827 7.036645109539627 1.1791415912171241 0.7952643192729143 -0.11600663197532278
Ni 5.955183936363758 5.113877481245903 12.335124559880292 0.14838427697507992 0.22424390441787187 1.1998191741711337
Ni 4.128139620518357 6.002738134094315 5.913293642690068 1.1982217477770267 0.495529740715895 -1.1969130562679322
Ni 0.6679507991144243 4.169090869274836 0.05998774512550269 2.2300656102150302 0.5646908730925888 0.8478685757321914
Ni 8.93985578461672 6.8004632738236594 1.7338019711813095 -1.330482893937999 1.0302086408274256 1.5894050664643466
Ni 4.642697339798384 9.166263774123372 11.126152385120731 1.0332687678099883 -0.7801619164138371 -1.526076738719346
Ni 3.4913764108288974 2.0337268056118227 10.903972875980926 -0.3865594467620633 -0.541029782030223 -0.2734059679648195
Ni 2.3288128730872795 7.660087587385729 6.003482702253524 -1.2002326075594685 -0.1287698451782621 0.3665909740599364
Ni 0.7713300132694352 4.825737012270528 2.6517674599844625 -0.5199189681935369 -1.1946039485187814 -1.5470145173132777
Ni 7.253464468796967 5.826162498626247 8.621622352539992 0.3226706185279023 0.6398429329453948 -0.06428837766542476
Ni 7.1746272954220425 1.472892878725253 2.0278035992109533 -0.4782347010808732 -1.683719043957584 -2.1276318318281358
Ni 2.0489608183220014 0.02403454904968154 11.490675916001 0.4144538591794862 0.6206280505798409 8.04493962557172
Ni 2.0657413842981978 3.096931241610277 8.818401344925098 0.11655299139709606 -0.19749363290722116 0.3582230617112153
Ni 9.353961627989571 6.6137192821514725 12.998517194219064 -1.2837299540531761 -0.6096445549851437 -0.19172716273708915
Ni 8.007080427651793 3.9474151475462396 9.901835994154789 2.198781198279452 -1.2717722674706677 0.13519014688230913
Ni 0.22813327617407234 0.013198489309754605 2.6096002684505684 -0.43364071652058217 1.1958118527839534 -1.214625643056347
Ni 7.717671229350405 8.31665964399742 6.991035679389092 0.227619248648008 -1.3696032569782284 0.6673174842165797
P 6.1362510588618795 4.75079863485365 10.241054394499763 -1.7083754090536836 0.8479138271478299 -1.0702854542436535
P 2.8191258232030227 5.117396584485945 9.667309063041442 -0.5859582671117973 0.6612643360439644 -0.974297945702735
P 3.463325453686569 2.901954400515993 7.076034061673488 -0.4372659719779954 -0.5149657379533195 0.265363043055685
P 7.121692574053423 6.922418722687088 13.075897644068569 0.9889604328109163 -0.17631519905739312 -0.0626744962110856
P 4.834942245482636 3.5427923613254997 2.263713167465717 -1.3776135288772144 -0.5832681218741439 -1.4010910431738643
P 1.6755654429576274 6.263327729019368 1.2671077602850427 0.4739918666441192 0.2653093069996141 -1.8896710920448037
P 3.9151134841218616 7.733877625850593 4.371933832190413 1.1719928959874848 0.16558649978597934 0.5467188619952004
P 2.266219139404546 8.857332813637754 9.761713637854546 1.9201170672394867 -2.681876055666104 -8.18410444083106
Ni 2.9789023710988944 6.175461277594338 2.965856684956142 1.3218442444263947 -0.5660419878038444 0.575222625861848
Ni 7.718328746008411 1.2820463535390179 4.231554025705768 0.11470591088602826 -0.01267733835735236 0.7659270037613777
Ni 8.6136997398509 2.3416575999134297 6.160806064759167 -1.866447602740489 0.3107661537808325 -0.04336808257298983
Ni 0.7746907568636746 1.0984232507928666 7.099644466174765 2.0073047181005883 -1.846335405371646 1.2065423518275802
Ni 5.777867437055681 2.627825518914782 3.822476795646976 -1.2829339405144422 -1.531615152039072 0.6608300767200231
Ni 6.495255154134084 3.6100720587962876 7.689004429141068 -0.027024093997327654 -0.2525337525015005 1.9632673773747154
Ni 4.421697656323795 8.264484308064809 6.953463695822853 -0.17073539097677048 -1.0941764019286382 -2.362149350257874
Ni 3.5012947254870137 7.888653342826406 1.5919302501388477 0.16432743056789764 1.1858457427101772 -1.0306236168776572
Ni 7.512359337687999 1.387582407548254 10.190172792047766 -0.2737965185350188 -0.6539878569872092 -2.502614886606509
Ni 5.293203573720004 8.283589334339034 8.856908669089348 2.1186044315185453 0.26690081985645003 2.130607112406376
Ni 0.41313901606163944 1.581623908044527 0.4855177089112873 -0.19649810176317123 0.45311862273953574 -1.0752517971099933
Ni 3.912576025469831 3.6630530841549085 5.133254774981331 0.5258669582468556 -0.13389148267554363 -0.23393696333591968
Ni 2.810605889042923 5.3371367994325185 13.08198384051424 0.1326380698844167 0.6460626886028615 0.5131865345657097
Ni 4.894285439067332 2.8575951780954734 13.22870636754916 -1.0053316750800878 0.1224207630317827 0.8707488227644745
Ni 9.236988488450201 8.4259277996007 11.105468392787488 -0.05516070433254371 -1.56098357789886 -0.3749763699101542
Ni 0.9489076670811154 2.9156696423541537 11.102079866799249 0.374555994543284 0.8395469432403734 1.288936180844464
Ni 8.672283547999585 8.540067134952038 4.841936000132318 1.0181866766658851 -0.5688992547469816 0.2341745332680225
Ni 7.767068325882982 3.365040604511418 3.031512964537511 -0.10295031301199688 1.9233342886252038 -0.8329448645428235
Ni 1.4803663427113407 3.1962533001614406 5.705468370450433 2.975305260830386 -1.0082809875163992 0.47609965701574136
Ni 3.935348327752098 4.220145648649434 11.220624563759236 0.4928516796630996 0.8164124141054392 0.005191828613584607
Ni 6.063248188227024 6.843285203776162 2.361777609648466 0.9901397978309979 3.2592362966962454 -0.007154865877226388
Ni 7.149558315235749 1.21309045163021 7.526369072902563 -0.40852618084114156 0.44135788265918174 2.296995282158044
Ni 0.6268069257595423 5.533141589104814 8.861028798119596 0.5526221148535129 -0.4250774003316034 0.6760638629506421
Ni 0.9668180504133252 2.418392572142329 2.9625765103045034 -0.7129471091302366 -0.893591274580287 1.0950876008889978
P 2.3830163237819146 2.409344772496223 12.901483478853727 0.3172923849351245 0.47815396844160873 0.26706639890003686
P 0.13678383862120227 4.8845152971772166 11.592304839333991 0.1480153236714354 0.5637331371650097 -0.9968244089400252
P 9.22924646132211 2.9232449751182426 8.284545974772444 -0.3047590283548041 -0.7402414260698155 0.13471757812126478
P 7.523750119228132 8.620006343288974 2.77871540504975 -1.6432701919139183 -0.5698569906745605 0.2756770233871833
P 5.382236885693047 1.7102749138620341 9.610137526587772 -0.4325055744748745 -1.1274500763801036 -0.4529180766929554
P 3.487746178012855 7.597188247368992 12.43411045146405 -0.6417501772704368 -0.33513352688160347 -0.4616863098038887
P 5.818031517982152 0.7570026326834675 13.185645509008255 0.02107481839242822 0.8076120422049897 0.28087630819993564
P 0.34351078021802384 6.668570988706115 6.615763140270095 0.25092424192253554 0.1980335645710912 0.14054344077442246
Ni 1.3941668349263312 8.352776756197844 0.22576158580624453 1.0143415918881822 -0.12064233097512127 0.4607445147159097
Ni 6.167024690616239 2.8868963429678165 11.293951562324096 -1.3135645209161055 -0.16378852734529212 -0.06844482303595954
Ni 2.410206026710233 0.854462344756809 1.4715704367708378 -0.9272788966407192 -0.16404846587489813 0.6078452969928757
Ni 5.109950902893858 7.084177081354983 13.813674860103813 0.9471342408037494 2.853918338379756 -2.95819508351266
Ni 4.744927288921581 5.254789783615554 1.060446570354022 -1.8874018363946525 -3.48867280105865 1.63754665916658
Ni 0.9420361549650348 6.422770888187236 4.32563262042927 -1.2320296974654072 0.8804413674618901 1.2636789489395719
Ni 0.4536596377111141 7.926817091384853 8.533941117074965 0.013660271095911957 0.5059979872370706 -0.23969751996878075
Ni 2.908844434228074 7.103847016307213 8.54196559854206 -0.2794732572048219 0.15586284474031223 0.6724784595922291
Ni 7.076824007742897 5.199400950776905 1.0582647263451963 1.4020009565826435 -0.7435005564370615 -0.4681968572288969
Ni 6.265485494953394 7.215606326572522 4.891205297652495 0.2159405267584991 0.2633326428892175 0.10410191011793685
Ni 3.643846189102683 0.5283109303899886 13.025055863047973 0.11669337362970225 0.3417001243555276 2.0734239783271646
Ni 8.000134829151714 3.5025634548130284 12.568391096385826 -0.9323640244731104 -0.7578213439351077 -1.2429964808895562
Ni 7.821077299819614 6.349221630470375 10.827554623043632 -0.062359793184144204 0.17225157051098075 1.6166160796615
Ni 8.964813635227012 3.9265413088539947 4.733394817172046 0.5206195938049872 1.6771650448891502 0.12254674708668574
Ni 5.36284477468082 9.273763117308633 3.540090986548868 0.5276484756273105 -0.9214072683512906 -0.24338602456396144
Ni 4.870633360975054 6.53327072992453 10.540383759618868 -0.7715973146732776 0.5217704195799788 0.3226071122798186
Ni 7.181091332426119 8.819039413907305 11.886401853583036 -2.771078165854073 -0.12432697891556006 -0.38522067334598176
Ni 2.439155281258572 4.980753509994344 7.150798336087963 -0.17145221453813697 -0.0032267344674137975 0.4291708536746867
Ni 5.602884658843631 5.172813199718594 3.631187604316335 -1.021857697759569 -1.858228814375122 -0.31249033556079087
Ni 1.5709647295464022 6.460666073603679 11.241362268720879 1.5200896678979756 0.41013132054473245 -1.7777129191072414
Ni 0.7590890904728919 0.9921926369336224 9.997731557445913 -1.5993745189722326 1.6435512134894468 -3.7307879293299875
Ni 8.296915622661189 8.858184807053764 0.3849352557523091 -0.6008716938885199 -0.488581848643152 0.6571724253627779
Ni 5.961916536509837 0.3993052360090774 5.801513032589359 -0.5527735528297125 0.09851850249288839 -0.8127339368125873
Ni 3.346194880581197 1.318589462447446 3.754963726066585 0.31146215140659267 2.734668773987103 -4.517181685586149
P 8.311658813077361 3.208764638259587 1.0484353153478811 -0.5136189941174379 -0.46986781717341664 0.6862032653774892
P 8.680951654927687 1.2153500863422364 11.822101354828881 1.5851941137067926 0.29343486159123655 2.5961698744465354
P 7.9436347005530505 5.471751759162095 3.7786565516700623 -0.9363649181023874 1.9039373721558306 -0.9356146701999241
P 2.24861436240634 4.667358844872672 4.182704242334996 -0.5484350733553587 -1.929198717825781 1.671264620244315
P 6.200771038528634 6.6331484363557 7.03950484396206 -1.4428424160790376 0.6698777887445883 -2.187391211274955
P 7.555403526792503 8.01867494674793 9.349872059592723 0.18054183554423098 0.6901524798332244 0.34672585970489317
P 1.314755492075401 0.7441995794483175 4.670287109200307 -1.712013262916587 0.7214271215767898 0.3342665508956178
P 6.414473213179138 2.62339885747073 5.854306063748577 -0.088516396974854 -1.6829222590879016 -0.01902770605541239
