# total energy = -340866.8785410209 ev
CRYSTAL
PRIMVEC
9.30267604445350 0.00000000000000 0.00000000000000

0.00000000000000 9.30267604445350 0.00000000000000

0.00000000000000 0.00000000000000 13.61540671996384

PRIMCOORD
 96 1
Ni 0.8957965365878875 4.312878751156781 8.205910058174686 -2.5073495730780175 -0.3860244001941997 1.0128382678697783
Ni 2.4843447514816677 6.617281840267083 2.8315689946881872 0.0007736449412309258 1.1234589529428394 -0.26501851523207265
Ni 3.4434692551167077 0.36642775732703936 2.6186372523257355 -2.8222117513050944 -1.1689199134891157 -1.3950983159255392
Ni 7.878101430102078 2.0315649039430683 3.330424066316077 0.1730781801773342 -1.6663345299325494 -1.0499086903595145
Ni 2.7445964159856917 0.5990309384141199 8.252488557036983 -0.17271359774906384 0.6068333107885937 0.7818480458670084
Ni 6.620556382228242 6.059800374055592 5.661340712368147 -0.7330729333458342 -1.3183837966816196 -0.8044017627978083
Ni 1.6706024687813175 3.2739558925705134 11.700399839956118 0.1420472790134586 -0.9156721656397263 -1.0388544894278817
Ni 2.9197751082317334 4.202549013488146 9.635188087094527 0.3504742710037319 0.2179722124765472 2.642064065875488
Ni 3.7192563885841907 3.4129378723993 13.15683982233674 0.5741872426187982 -1.741960958318613 0.6205655727730216
Ni 8.363561578520098 5.833084856625381 7.137223287643158 0.12146482687641662 -0.01110973675991635 1.4486603083123955
Ni 5.037938623301051 4.546580578282534 10.441805450226546 1.7033807840525697 -0.6557320933718256 0.15147294320273266
Ni 0.5280291939131007 8.300861542104702 8.226279197601267 0.0015393194626618651 0.977533164810581 -0.6879886394126861
Ni 6.346415822417366 8.275948975707012 6.045989621227358 1.8211529925687475 -0.30455565409474644 2.5600147646822164
Ni 5.953107982713132 2.700511034298368 0.6743751720840867 0.2496425469966346 -0.08617257933302577 -1.2814465573356382
Ni 5.876965579440133 7.788674805463918 3.9472426515595553 -0.48766010815983113 -0.10967940420571433 -1.2315445302988726
Ni -0.04507797721930044 1.5798920748515657 11.968731808856345 0.1943383751076911 -0.5007138560199957 -0.5384460804634469
Ni 7.331866899206052 3.2813050066310723 11.78609516124024 1.0171415232308225 0.05077208834654482 0.6271383408945329
Ni 4.818200112890358 8.880064756836955 11.650485401470888 -0.08787799205990673 -0.48813216270024323 -0.20025345504054543
Ni 0.4384555869937289 4.247322793201395 13.55596183455724 -0.41705298736523017 -0.6711291446531862 0.10106595150509044
Ni 4.92486459620474 8.953797767019216 9.178159707414842 0.008928412837881398 0.29001400883514566 0.8911430701501105
Ni 0.4951870264708286 1.7382050154624278 1.4114550319215824 -2.884923785622335 0.838864315351052 1.2554707020971667
Ni 7.3785198194765576 9.322583752718852 9.713653368571224 0.19404732622983353 -0.060240432848296256 0.09258696749980184
Ni 0.07635264375118771 1.7010780354425694 5.269788287630024 -0.29863697461746636 0.7576627068700564 0.13159960131757337
Ni 3.606275388248139 5.196232958559862 6.668512607409994 0.3667555246622587 -1.0429798244501651 -0.6753681224351981
P 1.900025064935101 8.392083583215886 6.332879498531899 -1.8088947440266847 0.0680226478968764 2.2169995210596913
P 7.918130845042057 8.368082679068745 11.634963886521469 1.53334267625314 -0.22795426338992356 -1.0386297750115854
P 9.311234487967104 4.407886981410555 10.842642875906241 -1.4789461037801304 0.017506384314879525 0.26801899262129325
P 5.805493119532197 3.6028427007945365 2.66709489174529 0.390153848981541 0.2919886160630133 -0.569767773394864
P 3.887792970147652 6.446661459273791 4.869264362132404 0.8943075839210212 -0.42974678078281464 -0.9271593403437193
P 8.172131111256594 3.531556294407121 6.960849201527772 0.7584576919675261 0.053723457665384895 2.1144680407526684
P 6.575801207867044 7.703527411797729 8.255960315729896 -0.18050352610712783 -0.9370004948038573 -0.28171371649956645
P 3.3185157107351646 6.061539974472459 8.811509616130781 2.1055810226756835 0.0057880674366868065 -0.1405418981125257
Ni 2.620033583997241 7.962225529405407 9.365724912789535 0.2778136101142119 -0.08679272941552794 1.2080752435323387
Ni 4.292152388970801 7.170177087197743 13.45443149814162 0.39764990024826996 -0.4940996931375877 0.5788144569781645
Ni 1.5102801501488343 6.648324870165921 5.087056752718454 2.0381006204355225 1.0428854649641457 -0.8277787469608516
Ni 7.367765925990474 5.53380846619219 11.711713754538968 -0.9447145756186633 0.10917392532420553 -0.6527748105157145
Ni 7.0911973677368065 1.5759384375405059 6.178044828487168 1.1135440078219727 -1.476404311194883 -0.23483504967015686
Ni 2.6560070321898728 2.96729317737266 8.002292155049489 1.3219442603393685 -1.6785863507167091 -2.131776450124129
Ni 3.340879343901724 8.593737691431988 4.893908081192943 1.8888172286849405 -0.5239129198442783 -1.4108270395147058
Ni 8.539596116960535 6.936884577817134 9.753383237343165 -0.561424029415859 -0.3061525662682211 -0.3548037516170212
Ni 5.646715045120033 1.4648737884658152 2.620284756249944 -0.4177489849909902 -0.8241018123298968 1.34520914440458
Ni 6.889143244451582 5.424892735279511 3.2595283723217543 1.00742686704622 -0.8842445432580642 0.13760595541265333
Ni 0.6839141360811708 1.8927596749587767 7.510326645286472 -1.3551302601730337 -0.05908986418362081 0.2855516021884179
Ni 6.455843200511476 5.137905179876697 0.3681310773074042 -1.1502583325238707 0.27233381794656325 0.038188852364895526
Ni 7.1199519393332436 7.237965687399373 1.7840132527497712 -0.0388910206382427 0.7774941397736868 -0.0861034166579872
Ni 2.0048197103682517 4.4604657063096385 3.493332528883794 0.29017033190735186 -0.36075251300128836 0.4357400222517721
Ni 1.372758690456134 5.879923830416407 10.095674271453083 -0.04686246887949348 1.0472329432995642 0.1766162752375797
Ni 0.0671913684007601 6.454596641923989 12.246350639233352 0.3875130689245842 0.7113414552060137 -0.23356363915690098
Ni 9.403330980624734 8.774888701686738 -0.044542143080201504 -0.4997633191812683 0.2973038576283396 -0.7437748931443706
Ni 1.1152699207318388 4.372425180399355 5.805037288406921 -0.3124877644576296 -1.0896489463719297 0.1777521886142358
Ni 7.912084105625142 3.65228642387285 4.880442457645274 -0.4061160287377522 2.044553318039401 0.08096918075521539
Ni 3.9800848190018274 7.725118922854128 7.2441045233089465 -0.39392797131199253 -1.223785455178744 -0.1443018793755902
Ni 4.282533421959893 0.5791008852959679 0.3824376627678252 0.7844376609710554 0.64298456389817 -0.8320287804864572
Ni 1.2693315383988086 0.20916974017752818 3.86290831177804 0.6247544140433886 0.9020448046642787 0.09891188127656514
Ni 6.761026790221192 1.0203175065342205 11.956614143064847 0.12855721494682373 -0.7252796625536606 0.4289805920407515
Ni 5.895105797690879 3.373354985908571 6.923911065831241 -0.9123865529099191 0.16544148956768281 0.6018669679222538
P 8.000459527872362 1.8718007458721464 0.04528263609187295 -0.529444648295785 0.838884112845394 0.6124989937148032
P 8.927406075133387 5.957889558190509 5.114804774768876 -2.818624033953836 -0.6097409713536919 -0.5631592669394108
P 4.700186364824229 1.7306791505573753 11.805279139741106 -0.19038119023215597 0.3096770344817118 0.7336627444110333
P 4.848154729694153 8.378566794950073 2.0831296371553147 1.7471468733949267 -2.3651459709923524 -2.1148714468386736
P 4.623216023384913 2.15282528594228 8.582866584227979 0.9350991640160862 -0.25910754906427635 -0.06267989552772431
P 0.9844835984819793 2.4909496514601437 3.5142728526183724 0.28306097455608026 -0.2019398416040329 -0.23476434433322146
P 5.446056323238714 0.5594731691486616 5.0385991132989 -0.10931610732902464 1.064021989832445 -2.7759635189708325
P 1.6383500909990951 1.535099689786264 10.311111224469345 -0.45892957299435805 -0.51215115132266 -1.141085664885667
Ni 8.843607569490972 8.59698432536507 5.296569761641342 -0.23607149318041926 -0.7809558730700422 0.16197487117532103
Ni 2.9383432495796757 2.671719251997826 2.161731667969595 -0.47696868988425595 -0.1821562312192024 -1.2196032987765963
Ni 4.940483789252434 0.5347587497503259 7.021560325808804 -1.1257971141577126 1.8129699425373227 1.0193148767330573
Ni 6.753984664469492 0.1995647271806593 0.8770869945643496 0.4680443908114326 0.06367671222335486 0.4083161217128645
Ni 2.5717992088023114 5.230197028730872 12.400925764616959 -1.505070311671008 1.5468170565904908 0.9144737744562509
Ni 6.236067479396678 7.150678678247199 10.364387650070377 -0.6450810414158826 -0.31908470094885694 0.2032865854399144
Ni 9.078900154217175 4.04419886217318 2.449669956862269 -0.4894130862951958 -3.799958060567746 -0.31297241740353193
Ni 6.540869659389328 2.3166919241406783 9.813467361260042 -2.4034250690782093 -0.024306180845532335 -0.33243592544478234
Ni 5.221833922983477 4.010737136507574 4.662378428919266 -0.9063238916556068 0.5105935770275528 0.3511466144804081
Ni 1.6483597704030961 6.29594880497619 7.556577689952654 -0.6263294718399923 1.2893485857915343 -0.8616859412312581
Ni 0.7167367679037884 8.64070690268738 10.772863503035042 -0.26266595583949603 0.6767207798083507 0.038253644164559925
Ni 2.5476401591627296 0.5636900721912579 12.118896535536013 -0.03790860212031536 0.5758687440862792 -0.08985362772903879
Ni 0.08477714716035428 6.018440676443893 2.9862259836208223 0.24381796989505752 3.3336980153502456 1.3426210719624296
Ni 3.7348569762798314 1.7132645410366598 4.163277766644288 1.2857199879000114 2.3286177941593316 2.312998856675152
Ni 8.814015757052191 2.407002303001311 9.511437378723148 1.0993031816322423 0.07405394169262085 0.7618320077563976
Ni 3.8794019563721793 6.559270352568801 11.057030487066765 -0.42599965503555665 1.4679842054519878 -1.251246122492858
Ni 7.545474946115595 4.570125651304399 9.203211813952922 0.9702062921318645 -0.570557873396327 0.6476341468550394
Ni 5.68632583963884 5.335735888246106 8.177113624536132 -0.7790828244170452 2.123321634488556 -0.035901598992615594
Ni 0.6683665736388783 8.160967900025366 2.194912452819214 -1.7131016108847592 0.4839872872939342 0.3686686825245715
Ni 2.462381133384227 8.311113091085378 0.6981425790629733 0.433700366113924 0.5360341285878446 0.2427777015560012
Ni 6.616537626185 7.627989682466421 12.975523224448727 -0.5043702218256604 -0.8888388474969661 0.6584934581670466
Ni 4.6678409602817466 5.9736110806744875 2.543044637205874 0.38048778664668664 -0.29045135348288037 -0.21228287540125373
Ni 1.31571468106456 6.378835648368056 0.6755082380240562 -0.6236719796124872 -0.9763810534840087 0.40785229470256856
Ni 2.3530746900784547 1.191189059780214 5.970042574150905 -0.36983184959473725 -0.17753493039710713 0.2594641610727467
P 8.307419928703048 0.5376025778114811 7.8761590313478465 -0.046355704446404036 0.6340900896220175 -0.9487758901722305
P 1.9598319691064037 7.68144285891195 12.271144131377909 0.8797286576655818 -1.618850368308657 -0.24753424240438013
P 4.769816894879011 5.197051594050151 12.500767665333854 1.3831786816698177 0.035777928930557736 0.25380696278696935
P 3.4799171397866666 2.9819541947896724 5.983031900686041 0.9645856035109776 2.0966068442015313 -0.40232108047169424
P 2.6822033678791546 4.714372945763914 1.28109663276892 0.16693221518059637 0.5606750670649763 -0.00450585829015353
P 8.381059912125048 5.559390825263755 1.1080603468116708 0.5271483960624406 0.47339177116627507 -0.9347502653170998
P 7.812833855103501 8.981194147915854 3.004648072955156 0.7850590966051382 0.1382376754593813 0.12993918289601492
P 2.1417271934432343 1.1228050883129177 0.5989946579776184 2.788974586518519 -0.255529859015347 -0.8141511288750882
