# total energy = -340889.2629783204 ev
CRYSTAL
PRIMVEC
9.12907314558104 0.00000000000000 0.00000000000000

0.00000000000000 9.12907314558104 0.00000000000000

0.00000000000000 0.00000000000000 13.36132132941780

PRIMCOORD
 96 1
Ni 6.544468176838298 2.2787809672526613 11.526037214392373 0.6728091034587703 -0.8086659373908007 0.14073190263614474
Ni 4.670707666416201 0.38957862969426754 5.854476400160745 -0.26112535082525345 0.09482536991201734 0.07093750755082621
Ni 3.01041227212062 1.7646315706720064 4.530342690172139 -0.23629415071418658 0.2739883228308507 1.0567264846122961
Ni 3.6274098061635907 4.593804354683327 4.967378806338789 -0.011082997287038977 0.17493400243915033 -0.9884593248047815
Ni 4.044434994111049 3.076305921703701 2.567685091787983 -0.6342243012070368 -0.6492022626731078 -0.1965451529510228
Ni 5.467447520581269 4.979909372065823 2.708286511025145 -1.5901319173280422 0.18169420398111932 0.06251303093255685
Ni 5.4113676245728355 4.5189550843963096 11.513664581629842 -0.09616825709315696 1.0319055689138743 1.1827074541915115e-05
Ni 5.714215495349942 8.05772159082982 12.232142717985843 0.8566902877888795 0.04449422575763305 1.4291559197308807
Ni 2.1930772290584284 6.617336438264199 13.676915303079813 0.7697540908169517 0.46182206405080456 -0.9242725057142276
Ni 2.8077924948282256 1.719734789202126 13.365730762754456 -0.661073817299713 -0.44387267866123553 1.1615393047543285
Ni 7.981055634997356 8.890046571910219 6.888790339582832 0.6439353578472137 0.9706585491779347 0.5833388272110792
Ni 9.117214426748872 2.2994309305883402 1.2658674009744726 -1.0238891263673011 1.6825957289864182 0.021273307556479493
Ni 6.890012722469945 0.9504369287537028 4.813429769332795 -0.08801734585124842 -1.1471984626516243 -1.3086825102334558
Ni 0.8200326841610828 7.756398275259193 2.179298719039622 0.7833773380273412 -0.9670744313711023 0.2695315726110778
Ni 8.09926800247468 4.329645495673067 3.817770151199803 -1.395571398907216 -0.43602798580583624 -1.318650162969129
Ni 7.960140928541989 3.8491458625120907 12.90342902389646 -1.0037316775828198 0.30734915767948356 0.20977656403963227
Ni 8.657090884730794 7.124410803198015 8.98312386244142 -1.2824950532048105 1.1182732949768417 1.389171408918143
Ni 7.127962012631073 0.9718993795946318 0.5420670150054293 -0.4021619291860106 -0.1905393130765751 -1.414360249478945
Ni 1.8396451642746918 6.643472974528589 8.970243653214936 1.2195513624927383 -0.46218227560370084 0.9138554241459618
Ni 0.2617716063965196 5.314836805690665 0.933901438660902 -0.38843275252537623 -0.7683878065970444 1.762449822300584
Ni 6.34457799240062 1.9834463236308435 6.899359067502247 0.5601269078709902 0.4032417925137507 0.8623947943728245
Ni 3.5196867436697743 4.032494166505803 0.05101508625660538 -0.592899731426637 1.967583488251566 0.7578946203752044
Ni 6.307157921793658 5.864553071040464 4.6785604950905375 -0.4118151360050585 0.15647373885143373 1.118509322247048
Ni 5.33750429417983 2.8235036296207556 9.47266858122264 -0.6934740880072895 0.3538105344658165 -0.6203197753108027
P 0.4843091953625584 5.809258275318003 12.240760562985349 0.3648361961523588 -0.39953708996865384 -0.296078984082303
P 4.347967545370108 6.19296234647712 12.688418355695351 -0.7613026176154889 0.003938930043089991 0.2118851257422028
P 2.414256411948274 8.79003757617973 1.0390254540452275 0.8290313884210303 -0.20601915387972905 0.9881276524969758
P 6.884051437740414 7.827933692013562 5.421409604974801 -2.605585768443796 0.6054323166760089 0.8044328731460598
P 4.744187575739312 1.3850447114776947 12.505662528545354 0.7670719159990983 -0.3841438953420352 0.33848778806581703
P 4.1822474815183925 6.089876853114393 8.32797775775869 -0.2460939104134278 0.7778216983164347 0.14372595226746215
P 4.728522086312245 1.0690235882278276 3.2946213143643677 0.4001464414178786 0.22607658675123646 1.411323262424834
P 0.7300291525401901 5.807030781483385 3.29961856897531 -1.4420870259702518 -0.4582687994819075 -0.49869682558996686
Ni 0.8229119938145192 0.23660549060188377 4.6046989905121505 -0.08989245138677422 0.18438254944655985 0.03839993993443709
Ni 2.026992002283005 6.868522884409738 4.6226166222711855 -0.010725356837304108 -1.6029457812632588 0.5973076306863455
Ni 6.407641629324966 6.167437458109942 9.242292770099214 -0.880213310611484 -1.9618555846288537 -0.0998819584993183
Ni 8.757355494507877 2.5559761426392913 9.99222421488879 -0.11349620684864324 -1.3511491640380988 0.24885707498086176
Ni 2.5578567316963863 5.415101415467748 6.902190905975602 -1.066215397939338 -0.42028640670086326 0.7156999892850255
Ni 0.7646657687611892 9.1832997868669 8.763075771707761 -0.550546977492039 -0.578171681187843 1.1208544254404569
Ni 1.2955615370230857 1.1023720922354472 11.283542558738391 0.6096658951413824 0.4268265218122262 -0.34388787603546583
Ni 4.341768904740167 7.004482169979263 1.6223449245419328 0.2468834961942587 0.3415558854681795 -1.2040951758386682
Ni 5.835842136163934 8.163308450219944 7.879465483807214 -0.8026549553100306 0.4703293301908674 -0.11990493858846446
Ni 5.309961880659165 2.964191775052298 4.892007353070869 0.0780761754781365 -0.04509149302199976 -0.18855776387017203
Ni 0.6045911237099968 7.278984268803548 6.6942224047581975 0.928870152387239 0.36160946168494496 0.2776014941034058
Ni 5.0305848568033795 4.408173782416441 7.264417006869532 1.3860050953750194 0.5277114676547622 -0.4737913205975389
Ni 1.045443192429393 7.799807017814964 11.460513292269546 -1.2372948025190884 -1.1955822532716507 0.5190321947132093
Ni 4.760975941156781 0.43227165291957104 10.535575690478362 -0.5666299990968305 0.04425717004616249 -0.9555522896641155
Ni 8.651412601267136 7.456298255482989 4.5290071067786775 0.8820169394791262 -1.1211135926391143 -1.1199679090704453
Ni 7.2509397562627855 6.323708931310716 7.126314214937842 0.5417885145731185 -0.8875090729419488 -1.9904686203798558
Ni 2.769249548230862 5.216142396485525 2.2773833061621693 -0.786516140766639 0.4851581676735839 0.757655764891521
Ni 2.7290998847691834 5.1960127903161295 11.407068046755665 -1.1754805974257692 1.17586240624522 -0.2755780359154738
Ni 1.230361696995049 3.5112058347666597 3.6757665063356026 0.18346106607355503 0.3146490337750065 -0.6201097161825256
Ni 1.5934523211108584 1.3681285390369287 2.575154499392428 0.8601453362170153 -0.8588032203668242 -0.7161424761390828
Ni 1.1347985598607044 3.2704174028737025 7.996069308605604 -0.8978603342692859 1.2665310736763864 0.21282100729291092
Ni 3.4879449565264697 2.698791362101432 7.064104146347663 -0.5458256607569696 -0.5299763524295389 -1.415520074115001
Ni 4.1470366465998625 7.087264604783834 5.977186661950841 0.7810209219800226 -0.6721961524651198 -0.31833239616386466
Ni 0.49428818516018475 0.2110495633861898 0.21442275589394105 0.5202922923725556 0.48469562621486845 -0.4670025798104796
P 0.2134349901853113 5.4624082722341 7.903101566951513 0.5039411047080418 -0.41035989161577063 -0.21518667931161006
P 8.533017652327958 1.7275584048425667 7.816078677695386 -0.7623310588800032 -0.18463246067383687 0.6047874840031585
P 1.8213413727238357 3.320800757272293 10.47168130790258 -1.349153730874625 -0.6442156080917937 -1.1090646318943802
P 4.061971943522119 6.422878052316676 3.7228916945474104 0.27233818882193744 0.23348907716522369 0.7026819797588028
P 7.050529214658823 4.05584633547692 10.204962656797129 0.1937187392458212 0.7106318307334987 0.3580142881345189
P 6.526538677284242 8.070155388382071 10.066980368630261 -0.24679402180424592 0.012238965268353117 0.4237234574068703
P 2.465990869164584 8.591827141191109 5.845938891004455 0.0517089983385174 1.2167781706229754 0.26182931887081357
P 6.978729054784767 4.141084490943425 1.675296287201499 2.8485395905663458 0.9393484262107434 -1.9992556225438665
Ni 5.571555470130376 3.227976342065757 0.2887315850538703 0.8985100520381429 -0.9965166478916193 0.27639641805171106
Ni 1.333821482354576 1.212833876657072 6.904169176114789 1.4416882478699364 -0.49555699440940454 -1.6681103908860497
Ni 6.805231020658075 0.9975155586927377 9.268547984313807 0.9971031165227086 -0.3650387990814681 -0.9293342365078511
Ni 2.7238141514485124 1.5314111403728945 9.237763836937926 0.22087807326943248 -0.41297496064111455 0.012750614797449008
Ni 6.478255009696971 2.3930404460808474 2.6859193690407297 0.5232770860324925 -1.2485081547364045 0.3132971477328024
Ni 4.487478040372693 6.858334838838289 10.568711487082922 -0.9711691702657661 0.2941532278144999 -1.1333445874876675
Ni 8.48920723055611 7.4259897328152356 -0.047648284100018985 -1.247155240252936 -0.493486485033621 0.4848087547539651
Ni 7.6246566214584925 3.8926093795064176 8.100674792638264 0.356432802580012 0.00954033539026744 -0.6189378073616114
Ni 3.273010059632028 8.653731385832682 12.366009620002524 0.18048372861278594 -0.5310688141627693 -0.29877350019533055
Ni 0.09357117338551837 4.822624571751759 10.251981034853753 1.1956038505382056 0.6052148013485641 -0.5675288567620161
Ni 8.803265603091047 2.3247641084205726 5.495498423473196 -0.06456965635126945 1.4496344993002066 1.3501531186734166
Ni 3.677300190615176 3.0179894027875576 11.354531144014505 0.6490806494935789 -2.137999548215705 -0.434290177179123
Ni 1.1414901704376508 3.4198968456935113 12.648094326937601 0.5443305642686819 0.6509719529790208 -0.49379578874392377
Ni 3.26485779736025 8.399705797955315 7.933017539476279 0.027395618404133463 0.12859783837677208 0.46007525656302695
Ni 5.736764305888902 8.048893777149182 3.4210461959958818 -0.15077437447381128 0.7171884009050938 0.3372081500224451
Ni 3.048955218717983 8.595031445846645 3.4902445700385196 1.2798933539159054 0.7267392778183226 -1.1038342367333764
Ni 3.245869325327442 3.9581013498734205 8.989269554447425 0.5294906710423719 1.9065992352587102 0.6576565640880481
Ni 7.531430527035878 5.954310117687854 11.454714505041064 -0.2659515685693033 0.8922859255053022 -0.3206088509028672
Ni 8.146857860506906 9.117689138549693 2.4708822265276504 -0.8349698653926524 0.25656524225839683 0.5483895648294039
Ni 4.741759242296656 0.37580742293393526 1.1888846663056927 -0.19680200615683524 -0.27914981242713216 -0.16933002598881158
Ni 6.375160387261152 5.8085462076167715 0.1437153460690805 -0.3466209586959127 0.10176169202053444 1.0918870916738292
Ni 7.899633432083597 9.074198234336087 11.309864415186562 1.1413067797575376 0.2252173240747347 0.5413218593493452
Ni 0.19660919556816278 5.030502695145546 5.65058311717192 0.1990967157282829 0.10558132287694075 0.7293021534494923
Ni 7.495891045486012 6.484663619008045 2.4619165638433134 0.8163270534804843 -0.6223373199614637 -0.29518938238849807
P 8.605027780883146 1.8800230545636876 3.470322193828329 0.033908994042619024 -0.36836323546901073 -0.8476562026110691
P 2.0549634822390264 3.3766706845995946 1.4735665945356429 -0.8033224136907003 -1.1953446833395478 -0.25967653419386894
P 4.603280332553545 1.1471410666820296 8.075649264569257 1.0014619077120364 -0.6427796469762155 0.13319394238788673
P 8.687417665544732 1.8312099007370404 12.304627558341851 -1.2506650531784074 -0.1421282687630391 0.8079876803768535
P 6.526949485573414 7.879969408641929 1.1291221022116658 0.010975268064581099 1.0996076002465385 -0.07759229386318249
P 1.7948488026088312 3.4663729568084283 5.751167244507249 0.8418344537229695 -0.69945318840886 0.7779600236665117
P 6.968221491655074 4.105891914171081 5.900252311369453 0.010908162272071536 0.034719148648740206 -0.03452862990448892
P 2.445368293048183 8.47715685407375 10.127360058065355 1.385498845162562 1.1783622898489383 -0.6185521418874186
