# total energy = -340868.5156343379 ev
CRYSTAL
PRIMVEC
9.24796809772590 0.00000000000000 0.00000000000000

0.00000000000000 9.24796809772590 0.00000000000000

0.00000000000000 0.00000000000000 13.53533610996076

PRIMCOORD
 96 1
Ni 1.732569831417542 1.7360840592950448 10.173984715553361 -0.19238947891143637 -0.17783780634950663 0.8445564806398229
Ni 7.0256998605124705 7.520762088771648 0.14431269258646812 0.007150237891536073 -1.0917099426660166 1.2407999874588695
Ni 4.152568875515152 0.6098988721246846 11.147107707519082 0.3621262534203634 0.10358049039682807 -0.17237704034525153
Ni 5.575461247179896 5.831814922875636 11.017398481357256 0.21384662034394783 -0.5185524268633134 0.6194330018304751
Ni 7.375458014005 3.281521256235555 6.56007668910186 0.5958400450018835 0.20840539472371852 -0.42598294286500826
Ni 5.324360417364212 6.164760270364743 1.0017796707131363 -0.002171296619705938 -0.42561090423757025 0.19081802065925846
Ni 7.934867604294877 6.333378472708194 10.581099691990786 0.5898583734971519 -0.934840253927745 -0.17849678008974423
Ni 3.3037996113853043 9.404906117326751 2.935219068421507 -0.18648931137691754 -2.88130392948156 0.7054762546744883
Ni 0.9705465080534239 8.719160034840645 11.19123253770837 -0.9232440644497132 0.3846576017536601 -0.2415492284655388
Ni 5.581398442699256 0.809462625319978 3.444959671646928 -0.7975081210017685 -0.17067651271437703 2.141626603445331
Ni 1.609877038652196 8.084148305343962 8.740903857434288 1.224581468717478 -0.5644525318295377 -0.9280468851549952
Ni -0.09914746598607638 8.32328226443994 7.063699761429996 0.023970394772668394 1.2889096984819026 -1.2687897878035763
Ni 0.026687786339205228 5.378488774645857 2.728520507838073 0.16321697111253824 -0.7821815179470272 -0.544428780409443
Ni 8.280889578675534 8.156643127269609 9.20519254704826 0.9626356788734582 -0.1794768846148264 0.37211241809879786
Ni 7.390245514994809 8.537751892616704 3.2035571859763428 -0.5401923737305923 0.22882021093464464 -0.10163545085531528
Ni 3.7112928297179675 5.832684231876914 5.566257669328078 -1.8983884173131436 -0.7975636568300523 -1.8779162655017207
Ni 6.523063546380464 4.447024179777504 8.802313140000033 1.004877875372121 0.7426654621302757 -0.6882580910239889
Ni 8.486046502976917 0.5923101615977825 4.823777152150115 -0.7160087787746959 0.10978713342817221 0.7216142978869314
Ni 5.802406384321796 4.883176851248014 6.239763141238756 -0.08102523080413143 -0.41875788587147883 -0.5758150080302084
Ni 3.2512341607123387 7.1670365569647805 1.579248693106138 0.124536780933521 0.93723806473596 0.7776856869592026
Ni 2.4188153041809777 3.779320883051945 9.179367596132662 0.6436031713187755 0.6151762834366502 -0.43081738813917414
Ni 5.431757070894322 2.0467695475706007 7.617430174510465 0.09473306730852717 -0.04836476445663283 0.0054900765802937705
Ni 0.650083143107121 8.409750766162707 3.127583278451968 -0.7802727309600884 -0.05420991038350019 -1.2561003652613658
Ni 5.438434103861577 3.050312805800158 2.4959840491837033 0.756090220176614 0.24443889130850807 -0.3291791090703815
P 6.946999651992602 2.4251039224880886 9.723067663013289 -0.42245821754120144 1.4705506806275837 -1.6732459123404022
P 6.480226958147323 3.638187641897807 4.588302614030791 -0.03914813095437128 0.3641792792946502 -1.0001138783245744
P 0.30182593483700915 3.433798298948617 7.297861088079306 0.9441833857055417 -1.0052702257145334 -0.5532481784732859
P 1.593480391213215 0.5186103294288767 1.6352312679915695 0.29026443428305493 -0.0024098949930732687 0.044355129076607484
P 4.178361458542404 0.8170533575353843 8.987138406436442 0.6171920283150985 2.361550026110978 -0.429715413324247
P 8.230414168792874 8.419248429400065 12.235470554759411 -0.022179878531148896 1.9402472623304585 -1.0469048705361839
P 1.6938300930521213 5.755583921838118 0.8142327272652833 -2.3826312722613094 -0.9376787518178045 1.4381208422336522
P 4.161086254134048 6.543150133090824 3.4831565542849554 0.7350737658259469 -0.06137480356305559 0.3835545984974685
Ni 4.786054690275551 3.391886507525345 9.899162847564533 -1.5346220571861957 -0.03003922667456762 -1.4083592947005035
Ni 8.548359312025903 9.157874393474492 0.9081930079448034 0.7668924529984406 -1.684162816363222 -0.644967912876786
Ni 1.3681444005204868 1.479462192524442 13.191118586205842 1.144600362907145 -0.8237228317239234 0.03670095496545937
Ni 4.1091034254513 5.883501816579226 9.248045781623977 -0.8742257255694814 -2.124895406733579 -1.3016975942751905
Ni 3.342474613974034 2.7598063839159472 11.844447967610519 -0.5518888362319141 -0.7894806227116017 -0.1684424811775357
Ni 1.8856514473551897 6.602383368762946 10.458226563847516 2.3047767258756755 0.18256297973931784 1.1130141034604315
Ni 8.67112608853604 5.366827086873405 7.411638839597513 1.8264648916999644 -1.850282562944852 0.07036517998712397
Ni 0.9457157137084361 5.379339587710936 5.271485159759941 0.3385350963639847 -1.1412427592888217 0.12109484513150758
Ni 1.7056859881546442 1.8365632326873327 4.114660529481804 -0.37712298393951177 -0.6050844464182868 -0.04600320620299174
Ni 4.223038392427186 8.123183978688541 9.43722869062849 -0.15231060861267962 -1.254721225525652 0.45920288126040276
Ni 8.752092049240087 3.5014194416862523 4.457132208909375 -0.3224993830573607 -0.7779194002365634 -0.6724383503829129
Ni 1.9028526680187567 6.530804095679071 3.543875938430537 1.2020305800001556 0.30573630466640894 0.4734228815145266
Ni 6.623228288857398 1.1102555621203631 1.4588789899271835 0.25500329708791564 0.8497321113034914 0.13235601986762366
Ni 6.3036462552709 8.204825041063794 10.653811841166753 0.5904625827400541 2.0395226975940295 1.3327997149966337
Ni 1.0720891977770617 3.137844823854277 2.332855440703636 0.8147926191138289 1.8652638668450325 -0.900310081361359
Ni 6.6224792034414035 5.056881436045745 2.7678678377075774 1.2824747414898365 0.26730216905992676 0.23811886262775117
Ni 4.688830801654003 8.183194043680952 5.308315192712981 0.4975552557863559 1.9425304019376803 -2.552303512080888
Ni 7.973311407681138 1.4045721468612344 7.58869488803421 0.5435394358259542 -1.3200832958712299 1.2965134789710897
Ni 4.581637603422064 4.542241259321637 12.937155510263613 2.164316845953995 -1.4298215783393375 0.6615582131352994
Ni 2.552217244004609 3.685370775137334 0.27907963250146645 -1.1525386439176148 0.2470886702265293 0.6765204908720864
Ni 1.642078463571841 9.071433635656017 5.05705899703324 0.22712739661325404 -2.8449541872079327 1.1417868047177497
Ni 7.8103807057183845 4.084457590468286 11.339606937883785 0.10416875880013028 -1.1286271274073403 0.6223386055130443
Ni 4.247416036335337 3.198030600240564 4.743350347986221 1.6240216280969515 0.29755274041435203 -1.2560327452482238
Ni 8.003043625118433 0.866970190144884 10.705260137293397 0.5694337870942128 -0.17925602685327194 0.40075347887425816
P 6.8896992416531075 5.470237866152979 12.750002530256763 -0.5054305447693747 -0.0020972488486609045 0.6287676489678397
P 7.951569434681114 3.0940279510026745 2.150683416314743 -1.276157541022557 2.0286353612575643 -0.9298913945629017
P 2.9114638127663968 8.302113665462032 11.994460182936209 -0.05071398141509976 -0.4931427285409572 -0.2753630916911903
P 2.8934025310696514 7.907909777287189 6.462121286203704 -1.1649560437453617 0.1903624211790786 0.7877111895160046
P 2.228418136965108 3.8386373504369553 4.072714520576567 -0.44677982500570146 1.5509189945740063 0.8533581380918529
P 5.223215390268818 8.385141923052089 1.6989691889245644 0.4903949905924909 0.928426379981601 -0.22692119413971884
P 8.030149419615698 6.911718653696092 2.0659526077977173 -0.28342787097719574 0.01250070357017202 0.03693955333882671
P 0.42208373760196966 6.167035270517022 9.084484368236893 -0.45639626504954306 0.24954201686302832 0.16696538241137696
Ni 5.83546787027462 2.4051560552992104 11.542826412868491 0.7167232883432173 -1.0399495222642734 1.456497544968627
Ni 1.342629256536196 8.040988038227367 0.1308495006283924 1.3765411217486423 0.5900182961137839 0.15494059003635893
Ni 2.6178408256329275 3.2960220702143044 6.289519059203338 -2.0430739052803975 0.3656715475694605 1.1564636900036342
Ni 3.4737957609754595 1.1549417439732428 5.623755986184884 0.9698609929773039 -1.0722641752365791 0.2974792068639393
Ni 7.01948522595015 6.594541091815255 6.9757469608273865 -0.8972895493674805 2.29149260717226 0.5929532103723917
Ni 2.023945562303029 5.653551089805251 7.486921923904915 0.3168462985366414 0.6429511395570734 0.4399322059562488
Ni -0.05059470867113378 3.952942236136788 0.40651478330782176 -0.13673023767591935 0.8611717205990008 -0.19273657783821002
Ni 3.5906623338386296 0.37154266714580825 0.09705557560215226 -0.05782873808301008 0.09773225914616718 1.1965621006864167
Ni 9.01804511582227 1.3848832227791192 2.5237714189298424 -0.8854509048613396 -1.497482472021421 1.602424618652466
Ni 9.265261799036503 3.7850546232731346 9.472096304750988 -0.18477901355403017 0.2300790230424102 -0.3029893380488911
Ni 5.009670558901922 7.720397976118112 12.542708400527774 -1.8224105191249325 -0.954625406974472 0.11187049831976217
Ni 0.8573597016967233 1.5233253052165379 6.299697372892758 -1.201473164834789 1.4079972833753944 0.8130846352837867
Ni 6.388995752853727 8.674769787966923 7.9156133347134 -1.3086418868035075 2.0213593964214414 -0.6690763758892155
Ni 3.1441889299699795 4.725193812218059 2.3680208393989126 0.9587772243593164 0.76454015071618 -0.1575338046848319
Ni 4.7458722688867345 6.962027600152976 7.121590192134189 0.1564850517053434 -0.23426657876119653 3.4814395165350045
Ni 6.40305266436374 6.66710989748569 4.708781443233311 0.1645511165429295 -0.17306635310279225 -0.9836940422056543
Ni 2.4449685579640787 0.9574051453851827 7.831694497795439 -0.05748678136255906 0.08913731838830455 0.020859359947512465
Ni 6.06008251945565 0.4115937673876234 12.853804498586912 0.9567236842643976 0.9552123898261937 -0.5445511649199202
Ni 1.184378026431379 4.83880510031049 11.62922278044009 0.7981061595970835 -0.051152354504099 0.10418315697783347
Ni 3.287809874542666 2.2306931371173864 2.3591548123826964 0.41747696227652625 1.0655510248824618 -1.4747053262259053
Ni 6.7210070555648675 3.308941481648177 -0.024115001614149124 -0.2076142662809908 1.4815424037523968 1.9088664340263317
Ni 8.302446592313585 1.7646695286881016 13.046656076536175 -0.38566316020003905 -0.2744696333426434 -0.8380688160329501
Ni 3.1071693136709158 6.235497978351638 12.937994300970164 -0.4646358793505159 0.7360844664786483 -2.133111109775152
Ni -0.06321263634498908 6.544916494997674 12.555553828216858 -0.2935042813765913 -0.8559932617218547 0.9294489077088444
P 4.848617194463202 2.2026163059697574 0.31360969578836245 -0.603636915338483 0.7003834135326131 0.14974259077518728
P 3.4463292957223444 4.806455707901266 11.144156680898789 -0.34850274909965784 0.6501592272697384 -1.4244040068681918
P 8.732523348743255 6.850238161775988 5.676787534450024 -0.7799775683171728 -0.21393815161648957 -1.7176681472095194
P 6.402303578947746 0.7097084926266274 5.960136029025846 -0.3525303822018122 -0.1497526180775163 -0.21259012222902743
P 0.5516912361147077 2.9924667653428396 11.97232979527604 -0.7996074267329584 -1.9797682032432165 -0.8822303410415128
P 4.126054950976203 4.3921837289522605 7.345383621748055 -0.9500868956741702 -0.18317541651233615 1.9296764287931476
P 0.37700451710489574 0.5611334115434722 8.947953840805473 0.40734964403453716 1.222188285894953 -0.05533091136182084
P 6.365182234999596 6.861724138154565 9.116062480106686 -1.425711412825706 -1.9194457522040749 -1.3883149744551189
