# total energy = -340858.06973469426 ev
CRYSTAL
PRIMVEC
9.42888370110483 0.00000000000000 0.00000000000000
0.00000000000000 9.42888370110483 0.00000000000000
0.00000000000000 0.00000000000000 13.80012438273557
PRIMCOORD
 96 1
Ni 4.9886998070391755 3.9055473594579038 1.605740785312686 -0.2337688131891716 0.591896229862787 0.2914188596024723
Ni 7.915566750664827 2.3409655374115377 0.9245341081136658 -0.7935144264613431 2.159570075297629 2.453505530674368
Ni 6.655236148878155 7.684917396816043 7.054595576452757 2.1436647169212826 -0.7059272261689779 -0.5232971406371504
Ni 1.8571506553622827 8.342996907997554 12.988787071476406 -0.7626395912593575 0.8102014001987208 -0.6671385354365543
Ni 8.581283657669147 8.633274522566628 12.590129152851455 0.09533959054427452 -0.9577917205175956 -0.0026400087260083564
Ni 1.9036821965790172 1.322495232230833 12.461332486850978 -0.2888433855658122 0.5069531520614882 -1.5988163324759175
Ni 3.8559985754469737 2.5586218894778185 13.49178784614325 1.0939398604378 -1.6252562718350008 0.05134672990309221
Ni 3.2013888934787875 1.5945373856624885 2.384633526638906 0.025612301251465568 0.9890121119844579 0.23301959372797287
Ni 4.454911841211056 8.365239644721013 3.395106252638246 -2.509458906111536 0.4656409235762626 2.007999687285084
Ni 5.672143015459392 0.47333562066966456 9.878377477126346 -0.19979914111194624 0.7203490580212626 0.7494205214659223
Ni 4.2215092533125675 7.580143640787602 6.992646867446057 -0.8079696826547246 -0.9387581009249122 0.19592911663357868
Ni 7.281125450999093 0.14821450915787043 4.852468466216127 -0.030609754466056963 -0.27612336689598255 1.6298495476326382
Ni 3.53917865317271 4.659688338099615 13.206221844774987 -0.14842027241933792 2.416479588269322 2.1949011464987556
Ni 0.37671219173904513 9.015860908870623 5.241245857578461 0.15685683322246535 -0.5683917189829437 -0.9169289208649628
Ni 8.180056368227262 5.85082036217816 7.944275815851599 0.45027961062884386 -0.04032723886413699 -0.254484191359652
Ni 4.602671878173052 3.6385308010553303 10.361257956797774 0.6974230453527085 -1.3358762970394285 0.24740028792967714
Ni 1.0602779756477767 5.594449013508858 10.371538268730621 0.19710976720524118 -0.9645719766642227 -1.4885345187995138
Ni 1.918551546224162 8.40473723867378 7.051022029518381 -0.5390472043825556 3.608736633822482 1.935075488321532
Ni 0.9487814255185197 2.431756258865628 3.448016433699584 -0.19197193175804358 0.3419569775613401 -0.9397484898626395
Ni 3.878712756357027 8.30858148237626 0.4577393040887932 0.9950079245565768 -0.8464850651211034 1.9451331296678498
Ni 7.921412658578582 0.8131620192496692 10.729928253601914 -0.061786694289493585 0.9783019246558055 0.8792982549963825
Ni 2.894233577029681 6.1634255734242815 3.0208889435346515 -0.22719373107481516 0.33723051861994824 -0.8388805133009681
Ni 1.7170940164092185 9.178094282361025 2.5636078831952265 1.3295968917886198 -0.16445701416722644 0.7905052073213741
Ni 5.257677573257976 6.93614145301776 2.070377317851335 0.7140786516315186 -1.1750548227422601 -1.1616889429583157
P 2.8680024224876437 3.8619104855468502 3.1790245241551864 -1.9963464193168714 0.099725378316796 -0.3123556097551395
P 1.2259528917003075 4.352504734999314 8.154741701183962 0.2305150821385643 0.02298540515157977 0.32519955559734315
P 8.657186171710627 6.918500011555447 0.5539657770143013 0.007299876095522912 0.384911369635679 -1.0289511142712406
P 5.173628503672166 1.4419120446948535 3.4603946722627716 -1.8024664719028376 -1.0088355744682884 2.3302550726524385
P 8.823436249670802 7.801411255323186 6.795333332031266 -0.09601219113126691 1.082649375125645 -0.35625128269682516
P 6.956969857181441 2.000790270133454 8.522336162354298 -0.11505146715090508 -0.584260310584084 1.1983536453692007
P 3.681073924453487 6.2701133928502895 0.8027006727491693 -1.1077417993178986 -0.9027680559835485 0.7114355575817166
P 7.994759945128729 3.473666769003739 5.299247635855005 0.3391927845526416 -0.15387306800379308 0.3926480761583044
Ni 2.120442804690771 2.4841525657635795 9.43568289992011 0.36022620818417317 2.5268506192254225 0.1482202405933899
Ni 6.485120228587918 2.048802146096091 6.433465974839663 0.5535340851448209 1.0208547104163515 -0.37317171260124765
Ni 6.84423812328331 6.8096435488711125 12.508294928054259 1.1637743647324343 2.0448204556578586 -2.25633379988294
Ni 9.33223767360949 6.135648081950219 5.579514604565962 -0.05850828064853794 0.31670720185561585 -0.28484197771590297
Ni 9.238778578059282 1.2215967474161877 13.516683870748857 1.014617214147072 -0.02171502307958841 -1.6796253335041846
Ni 4.384732659594815 7.409820285055264 11.842714739864052 0.9013878878065701 -0.19429749456742665 0.22452312622118753
Ni 2.6809993714336433 4.791164692856685 5.500757024530474 0.39791729497704376 -0.2706096361666049 -0.2513595296877413
Ni 4.6513343471131865 3.7059661775056005 4.246740003290655 1.3972122769447486 0.32998412147018 -0.30028633729543125
Ni 1.700442607738752 3.1667188879967343 0.7396346410202435 0.777502367303803 -0.8281119619305546 0.19094888981016794
Ni 6.534471006040477 8.396722687501699 0.4729546937668974 0.10293077262797111 -1.185001649542327 0.8301806715341251
Ni 6.62820353921891 1.0075799444704052 13.447462663719774 1.5651459368066658 -0.228846950407522 -2.369993528892641
Ni 4.360773866032155 0.37644063988756754 12.770442410897699 0.6572765550408101 0.8076575507309445 -2.5601556611354552
Ni 1.557500730363738 7.175389948830003 1.0641607899685572 -0.5478943703605403 -0.8292550743960622 1.370988053140897
Ni 4.308113550389711 2.695199270333826 7.948927084196525 0.17645686684157996 -0.04362390733753777 1.2739152819555997
Ni 0.6794199037318324 5.246608063756772 13.460227486515967 -0.429683274534731 0.582462595253713 0.6393325689678796
Ni 8.324497438115642 6.265842108519757 10.736620875274788 0.16549933938881176 0.7539474628019982 -0.6376263849100503
Ni 7.941137883345635 9.40093652047983 8.416226333501053 -1.7958865046924746 -0.9200975484009316 -1.0479520808537757
Ni 1.9573702605482342 1.7789852092251546 5.453160962340412 -0.9434372515681366 0.691589469390067 1.6366398310815944
Ni 6.630409898012164 5.745848599591351 0.5235613985325421 0.36600784786295676 -1.9854161455576127 2.2078263392008552
Ni 3.7453883403885113 5.31575949704624 9.461502955131438 -1.2952394973546726 2.9549701488174596 -0.7962505944455835
Ni 8.065089988884681 4.435516627374619 12.341520604158593 -0.37620458589030054 -0.801394086319736 0.27586291414574426
Ni 4.331346319905017 1.9717210215881265 5.750360320457046 -0.8424142374858395 -0.8278574227175872 -0.8246222036097411
Ni 5.51856535723484 1.4775155096663608 1.4529183806750547 -0.594501528696118 0.2935299924082041 -0.5273090900100208
Ni 2.4074203099536944 7.304575084840231 5.289877211202281 -0.6334079759533284 -1.6916537254236284 -2.572422137207634
P 4.65079690074047 4.282221835662021 6.567134545064391 -0.2587817902937414 -0.17424340413002895 -0.6676080188738052
P 6.258232999348145 8.807303429605588 11.776391028805769 0.38059628720009286 0.836064898229044 0.6442863134287291
P 3.5187745487769626 7.912681512242878 8.979686053544965 0.8557767748356746 -1.1997844642784563 -1.1746989820647384
P 0.038105890713943304 2.71153009695741 11.652190000736201 -0.9259997728179794 -0.10052679117216881 0.08818832421147393
P 2.7149150662171477 5.841778062679305 11.623582767493735 0.5528699691982607 0.4675003453825045 -0.4049564612120122
P 0.7759113282902057 7.3183035395538205 3.4192291087778397 0.3580068319353512 -0.335236628118371 0.4049952848697477
P 9.42211379334159 3.988191525367666 1.592189593613255 -0.6754550257220496 0.47630303127579904 0.48977766872346623
P 6.236989724300262 5.297533464792553 2.9474718832448885 -0.7530077245965482 -1.591593846585549 1.218221073717089
Ni 3.163154769946091 0.42423565152437126 9.66378551227292 -0.01843223856325858 1.0008906085895988 -0.4794570035237484
Ni 6.895795259529126 6.797253995647447 4.545912826772367 0.06991780803706023 1.5548800361042836 -0.03182588626134519
Ni 3.047320933300177 -0.0014190470016450902 4.718786695554175 0.012262105196804688 0.432210668942275 0.6480084994753228
Ni 2.1079589626297874 6.263409456516936 7.4645700413326885 -0.20076613301090585 -1.9211457656143172 0.9664781925480002
Ni 4.461559204242018 6.125681751845642 4.689461924259713 1.621359764994072 0.5809808685018639 0.6761358538391582
Ni 8.753879374380864 3.3010616234082906 7.770973875748365 0.371087062158077 -0.24260235232040153 -0.27707801749976796
Ni 2.4210544758299655 7.921667238439342 10.787639622259515 -2.495120378001677 -0.5749953403423904 -0.5135156357703543
Ni 8.062421614788564 3.483585954689657 9.970451469656343 0.554718078150593 -0.762766603755525 2.168347564379943
Ni 6.576071241065449 5.10155411642582 5.878328187577491 0.2046860368906023 -1.4194510337382908 1.2205232394877044
Ni 5.421862725680872 5.134074336417009 12.227283077528483 0.9827854143484557 -1.011208445575839 -1.4227371606887305
Ni 6.709914245639217 4.188253580390294 8.278515600820475 -3.368844995565024 0.23407734556852589 -0.28064028092972954
Ni 1.9285650207473986 3.762982637432164 12.078572609086317 -1.394204086246044 -1.3108674336999167 -1.929509307087664
Ni 6.022539192702814 7.6240539523268795 9.144114471168145 -1.724293880056153 2.779361746019104 -0.8554476736310299
Ni 6.374868291111266 9.03150342698178 2.8532858207589555 2.188427880069586 0.5807744089180126 -1.946689675521693
Ni 0.6257940703952457 3.802555662454785 5.902823484624493 -0.02126250892320209 -0.27223071670979565 -0.498902770953186
Ni 6.923959335236195 2.589218617187708 3.469378512682489 0.6428223272886929 0.9935161705023987 0.16556027453373423
Ni 0.13586927168774476 7.490993545102856 8.747222582466168 1.3062409906714987 0.34774093123296884 1.5239265251455625
Ni 5.9994761430946815 2.3706476633994362 11.686538481282998 -0.19897021745274768 0.09773688713185749 -0.18472064951226896
Ni 0.7836194407410021 5.079952543796127 3.6144324600134397 0.2624453551882577 -0.8359319721956054 -0.7996776178492615
Ni 5.248814422550026 0.32438094413884305 7.582657381190516 0.05128296654469233 -0.22027155003368518 -0.6633358738610123
Ni 9.17938603943229 9.12690487258075 1.621321072791213 -1.8579192535545035 -1.3433242686770415 -1.6465450060104483
Ni 0.28837675160873155 1.0969186178297887 9.059864566358845 0.13368682286390524 0.40551130527421775 1.0297682108558976
Ni 8.059687238506324 6.3161923476478945 2.7021059276674144 2.2171707565302334 0.4114636662029107 -1.920376234438144
Ni 8.71130796433151 1.5054344343964012 6.149321849138164 1.591297912611685 0.16387285952898228 0.1537601965750126
P 2.6599635318278616 0.6222035514701529 0.4496078347584362 -0.6672272384956186 0.3700035992859112 1.8539582120242266
P 6.25988305400122 6.102128400283453 10.26796858115474 -0.2852389560440055 -4.401488471086187 2.3310528859633854
P 6.166537105055795 3.4666705372746986 13.575182551198068 0.3964965033701171 -0.4106959347989508 0.267716630889526
P 0.13063152677469594 8.786880467442378 10.519406737855533 0.48088627977110737 -0.8110670906331259 0.514524793761159
P 5.520479420632407 8.158784806528184 5.458790948816707 -1.3408084442337231 1.2166287895293046 -2.6219534111685427
P 8.291666064961301 0.9368793455837914 3.0488201258135437 0.6868455269471784 0.5285776723097994 0.3838826712608486
P 3.591244949140047 2.005674431906558 11.191997301100377 0.5349614643489561 -0.23213359157859376 -0.0642590670893861
P 1.7724321350315113 1.2313744998461276 7.631868611163846 1.0841151610378943 -0.06986664308415064 -1.1546454058479727
