# total energy = -381172.3819786441 ev
CRYSTAL
PRIMVEC
9.18086613418359 0.00000000000000 0.00000000000000

0.00000000000000 9.18086613418359 0.00000000000000

0.00000000000000 0.00000000000000 13.43712560354378

PRIMCOORD
 96 1
Ni 4.531978580173669 2.5477638485004737 13.035302466834407 -0.17461775675031216 0.8786320821672932 -0.03168858935253252
Ni 5.19357016834641 9.024580424735325 10.827219654837023 -0.1028811503369583 -1.1071424751710028 0.2271708482566797
Ni 7.07037794503594 8.008515588257657 9.114979824876077 1.159326613373726 0.6385969763534357 1.2732444811408201
Ni 1.3047571776573714 1.6059905822192186 7.153267396533506 2.022760647644342 -3.476791733350347 1.4710389331179117
Ni 5.768365846405845 2.7001845910116984 1.531321678417385 0.9037404471991468 1.171553494457221 2.2205252748247624
Ni 2.252727528699203 6.9790283252319 3.703634917176727 0.21148840452441642 1.115304699266821 0.4260158529854728
Ni 1.464568517549727 5.059850850512657 2.772038641202284 0.30145850322666146 -0.5467772260369616 -1.1121178168984074
Ni 3.9610664085641947 0.1507736950948581 7.181713392714495 -0.40881542994678627 -0.432678609717629 0.6408914288145672
Ni 8.97411320261846 1.1211673940170297 2.717389534480319 -0.12850450733201738 -0.592393995434812 0.9667317033197028
Ni 1.2760118852346125 0.9926536273821592 9.776637515286264 -0.724312670654701 -0.23932033913502007 -0.9050576233486736
Ni 5.354042530613227 7.654271861610531 13.46252214553544 -0.720591513049372 -2.8663987302349536 -2.450182636948722
Ni 2.8963246189004948 6.67007381210169 5.9165147318221125 0.8034635672542549 0.22827693683666495 0.44117919098947245
Ni 8.71186175641721 1.2020416453591196 11.52682370188782 0.14584428416204562 0.9469918016886142 -0.41750164486687447
Ni 0.7040815555511416 7.904891150194521 1.9331452447262647 0.5322445796384253 -0.3866818312725405 -0.43822807878094855
Ni 5.152228727343637 7.726323300426824 2.1443235316340576 -0.10891347257396726 0.9243200711227114 2.451935872194403
Ni 8.970110344906443 5.30543902435769 1.1604064166343635 0.14466260514911858 -0.16026740156591107 -0.5300434582220485
Ni 2.514942251435203 3.9939063673620896 0.33523657912146765 -0.22110535878889018 0.4150907214325367 1.0761005182635337
Ni 8.693178693472365 4.956758902695613 7.660424878212809 0.9661187523260522 0.30124895831901666 1.2704995714058314
Ni 2.3374577438923176 1.8281767278350567 12.665942443804633 -0.8327090943829337 0.25794078244968477 -2.2630191823229153
Ni 4.103213761672332 3.7243744941754535 2.5724034575085226 -1.9093852826442794 0.37671674964002866 0.17452673969840266
Ni 7.482837544967229 4.833129356938708 5.835635890046867 -1.0184610133731944 -0.18676776184928479 -2.2563196588155527
Ni 8.32019681868252 0.6475439446288056 0.3697373566351968 -0.6526974203105598 0.9194264904758359 1.2569791683218934
Ni 2.037013893833299 6.289398371342419 10.29592934797009 0.3921281990990924 -0.07337259935488008 -1.3362051411337568
Ni 0.23470425683220075 7.834051585731408 10.404850227808598 -1.1745508865226482 -0.14530255272596268 -0.5692905766481292
P 6.841425500948184 4.105821127704929 3.3603026501413695 1.0041312270140836 -2.274815917847527 2.4498753901209485
Ni 3.8758496074565456 6.3260851131250275 11.987125714257385 -0.39919821857199633 1.0938791824031935 0.16491827007436113
P 4.000773655363439 0.6153255304802308 12.520861803909822 0.4988104683496957 -2.3982286124789343 -0.32385204043051324
Ni 8.104428098618744 2.9635469220366946 1.7281080392945438 0.27508104167439723 0.9118864733450488 0.32081711025893134
P 3.335353645938608 2.178399235037543 8.042106541919871 -0.0027739632007113516 -0.3387472123747908 0.06444264385510191
P 1.5479858688602308 6.2197615003661735 0.26249198489862186 0.6622369843698788 1.0719152765375928 0.4174669349741971
P 5.406860054505955 6.044801731059078 6.053761338492923 -0.7835280046725925 -0.648354827071148 0.4371998946267503
Ni 5.666715294599781 1.5546970821342763 6.225528002496719 -0.02564521137193003 -1.554345246646736 1.2279730108975302
Ni 6.392563766089959 1.887778911932326 11.128936891053511 -0.4980293672092972 -0.2153278328751646 -2.2009861763505705
Ni 6.8049499190907525 2.630621166965948 13.116744095714576 3.3336031416435943 0.523548337416008 -0.6039593316749082
Ni 0.4561963289548543 8.52135878044396 12.657087498246742 1.1797895092137682 -1.459510877873654 0.6886964641129881
Ni 7.5817889220775765 7.350302558887718 0.9547733729789963 -0.39323583034097437 0.9833104336139904 0.6034319984165285
Ni 0.3203195075377888 8.313678403601026 4.71613574135209 0.10960689909656608 0.7748325337811236 -1.9196802368123842
Ni 7.0567535394289855 9.232003737321525 4.961456751987446 -0.09282916541759498 -1.6557714097047227 -1.6171238725358539
Ni 1.7702270996739404 5.657102927571154 7.819655069267617 0.38378034135502936 1.3802350256604616 0.17849523742784743
Ni 2.1863498652637037 4.054509265887363 4.699916822925374 1.7623420930781262 -0.3842130580170738 -0.2992815501800007
Ni 6.374964045369923 6.539283190621453 10.904428904347377 -0.4687979811480055 -0.6905240042400301 -0.3877506388566871
Ni 8.135514511951053 7.206383298581373 6.087421148652476 -2.5658663383669875 -1.551111570200787 1.1837135268585226
Ni 7.329361002830129 2.2226051063296492 4.975485115712127 1.4548772357563846 2.427787557082974 -0.7523544072832655
Ni 2.5484156900086234 3.9660699807042152 9.331224113814812 -1.017356724565422 -0.9325357741642843 -1.3018600879949838
Ni 6.31113866276915 3.6117711688592165 7.581952341497929 0.6099975674491882 -0.8189074126131509 -0.9878165490144601
Ni 3.9839359465472968 4.3775013236085645 6.935222739710994 -0.8481159158563072 -0.041797138541444144 0.7610385653208248
Ni 6.820401317093787 4.411397082032336 9.660271870955386 -0.3288998872670658 -0.08972790078445193 0.04929601802165058
Ni 4.499964899343851 5.3870569258710495 9.830533790970648 0.5292309896230821 -1.4526162076363498 0.4792783118540392
Ni 6.167724350109962 5.45138725611898 2.065810599107405 -0.6901172557199148 1.3047564357061723 -1.731816156575127
Ni 7.26957520140662 8.472479848199065 11.690689312343537 1.1539802614601482 0.6103428666037488 0.8092359509616579
Ni 4.45344544974113 5.684774058635415 3.8340959455563652 -0.4516708345494157 -0.10092016995584556 1.5570981268015247
Ni 6.301719093933076 0.6223286953029967 2.6301024480193225 2.1720121577157236 -0.40945923417837227 -0.1433845097676434
Ni 1.3612011437433256 4.962083805156553 11.924858324669751 -2.026670781332026 -0.011760225859721682 0.5219930771137461
Ni 5.309662222861194 3.5813365970350564 5.192280256629579 0.4948203733536963 1.3400666809716921 -1.8436030940421475
Ni 5.957152000378759 0.8544687361742661 8.652124613585155 0.339415442086409 0.8184042477244874 0.21797246958686334
Ni 8.371774925623132 0.14558007902218015 6.8166940832770155 0.53816428755697 1.9801690382260606 1.7573271563620378
P 7.178987593506472 4.701117680238979 0.08618262824366739 -0.4434255638214879 0.7700029736029642 -0.5766974106351616
Ni 2.324301562467273 8.143621216904517 8.690071888312396 -0.668271620599733 0.14749930326696534 -0.7258831004656144
P 0.8748869828520737 7.797419929146671 6.802491283092408 2.02165764438815 -0.16992857880475898 0.45529994666157075
Ni -0.16426589622692025 3.9209092993156647 4.114811031997604 -0.09107361617906895 -1.3418875362305147 -0.05271224279205115
P 1.2273716555138279 2.858728971353003 10.887229469398543 0.06655994730842085 0.6405006211340518 0.9419555248162874
P 8.6484678745331 2.601462735559151 7.028826262194622 -3.053203773080077 -0.37779224209239454 -2.112569023957742
P 8.544834255603652 5.689557289983948 9.732658411392062 0.2913934056811756 1.162247900785579 0.8202418151538583
Ni 0.6442425051030235 5.922016825002873 5.395408759955043 1.2386284337288473 -1.266635974685367 -0.3712557265254574
Ni 6.363129908693802 6.886843246593469 4.394222435422544 1.2896231796091595 0.23546445572403965 -0.8523129846567901
Ni 8.263229543216783 3.8498218514621283 11.432508662265015 0.2126968230102208 0.7515182845352154 -0.42922099018633175
Ni 1.5110053393556404 1.011814095375228 1.1036163318884484 -0.05402196274241019 -1.2218524998220892 0.741176279179259
Ni 4.212658868977253 1.1564494632539069 1.8626949489947786 -2.55181525959056 -1.8115864319262347 -5.342662894762076
Ni 4.857504556996972 2.9885188784052366 9.312008560623871 0.2800437849963113 0.531088354546795 0.34608256969393947
Ni 5.659287973753402 4.312987376034394 11.74686978756634 0.9853125516456837 0.11101766340116366 -0.24046987935843103
Ni 6.030984527259573 0.44771045422270606 0.06205163922930151 -0.36320997340284544 1.9020136727705566 0.3717555489800114
Ni 1.1749305471398903 3.696051521603045 6.6735616232136055 1.434697161264084 2.245584531786236 -0.9659110071906204
Ni 4.346387367677319 6.562161909470866 7.954522913476998 -0.4508074581078559 1.4848467855352814 -1.3884347878624343
Ni 0.32759534409002017 2.923215376328237 13.14231556265329 -0.24975310443256987 -0.06971649065953155 1.1077376855528405
Ni 0.4679909879058343 1.5822029576049201 4.917840292312568 0.08807673833427412 0.30057070130506947 1.1121499556879233
Ni 6.126695058561795 8.27854322822514 7.044184933447906 -0.7119798601209609 -0.1752438203700853 -1.1580413189033991
Ni 6.788589615322832 6.102356581968779 7.849471768788982 -1.4634148409137506 0.12208369140733812 0.14725813379043673
Ni 4.5729803291229 4.96800546392777 0.3135623899321834 1.8519252407545976 -0.6653115095301445 -0.5678381604723188
Ni 2.435445130039908 8.535534038029633 11.271182479431186 0.7944438802541479 0.05411837911095841 0.09126850579869443
Ni 4.554453340905356 1.609984259064923 3.759949433047683 2.1826105020568605 1.0687330221548692 5.522097099064426
Ni 2.875181083784042 8.260016240007596 0.36310877115795887 -0.10642798714795218 -0.5035850069202037 -0.07880945409973525
Ni 3.35004303203775 4.0832637391764335 11.459974141923887 0.6449486296030764 -1.5435250161027805 0.5727119436248523
Ni 8.988361907134626 3.0766460141337775 9.022693756708216 0.07353560729530562 -0.6922127047963627 1.8494600670435566
Ni 8.425501355280746 6.375487354749706 12.39425673938121 0.22216079663659802 -0.8238950956357294 -0.8801716587402713
Ni 8.278001557112733 5.955196475854311 3.396448638898203 0.30813462969525646 1.2914607470385306 -0.3250805135209756
Ni 3.537167449208198 2.122919259914345 5.87410647415389 -2.268265518323519 0.5435456064735413 -0.22872867966210286
Ni 3.46808143021067 1.3633678281929489 10.2776952293879 0.48897188499271915 0.6988330383263578 0.13100439093573568
Ni 3.526820612874615 6.189969589183851 1.8053448314038334 -1.90331979317649 0.12172502251633875 -0.6713839409764695
P 8.29116691940409 0.7788257424567332 9.411940454256337 -1.2532492689658157 -0.9712254774249984 -0.1874503897386062
Ni 2.493642641591447 9.116737960774818 5.17986405302928 -0.08396682993095862 0.03834054745141139 0.09176550003977099
P 1.466074179624889 2.953695852483957 1.9135137982913921 -1.0073296793467232 1.0313728363388561 0.7060632375262099
Ni 4.765392925289039 8.384389435935772 4.865274324156788 -1.0525808378750388 0.6915164500602865 0.11949304786202648
P 3.9941267081535767 7.444030023066558 9.951307169217902 -0.17121438749571802 0.47302410341421114 0.3251350209079949
P 7.976125491909049 8.360418193995233 2.939102865481091 -0.6735269554614013 -0.5598384300962939 0.36215890643051174
P 3.0436407997422674 8.739119748497432 2.655672996871404 -0.5578573951105231 -0.7565239652799229 0.5093648468267744
Ni 2.3051319136078927 1.6507197628911066 3.4622102662041687 -0.6115402293459596 0.38098683777029224 -0.5325307434202764
