# total energy = -340861.7513124801 ev
CRYSTAL
PRIMVEC
9.32296930424300 0.00000000000000 0.00000000000000
0.00000000000000 9.32296930424300 0.00000000000000
0.00000000000000 0.00000000000000 13.64510795693807
PRIMCOORD
 96 1
Ni 0.8611067496135151 3.209096603779248 1.7245778042777207 -0.515232618461461 0.6680816160761138 -1.0820536505231753
Ni 1.628284582090958 6.628230386135028 4.270455143242147 3.1135840739403475 1.9685198840229066 -0.14020662626029404
Ni 0.44134377963983834 0.6090341664133473 4.981706346626204 0.2009970180747893 -0.16220344224635938 0.9352030365838023
Ni 9.234792797796441 1.4635477120369238 9.93294243222255 -0.2067172083880182 -2.2743721454418893 0.10911144751738629
Ni 7.0651513490712095 6.254798845104223 6.640050979091538 0.6933344771056318 0.21925750694687401 -0.28877576555267037
Ni 5.196763011950733 0.4977673230045254 10.301661212200026 0.2290097012376314 0.12672504683409144 -0.5184009888871136
Ni 6.011944814089082 6.982521870899794 3.9389061101361147 0.8690922609976581 -2.4937978025355116 0.6733837450153176
Ni 5.885180398575518 8.568191159667776 12.295852766684517 -0.4748665559395886 -0.6292595010025936 -0.767777169596239
Ni 5.026730695253196 1.630857721657167 13.681131353358417 0.6040444351895469 0.29738304760570716 0.4120197958166969
Ni 2.4940901083036375 7.142783715621291 9.329064800208007 -0.4339129963453624 -1.192539866900901 -0.9574991289778414
Ni 8.632901890570155 2.2025422078888237 7.7475283837940125 0.42025992433830206 -2.4623866352140817 -1.6871226703224944
Ni 2.1696041568474596 2.7160606877669364 3.7607283150364155 -1.2742551817935217 -1.015728702043696 -0.19526962867270886
Ni 3.46186095131207 7.547372620529888 2.6399190640307566 0.23333429675491427 -0.9376072751499207 -1.7113787146563817
Ni 8.88553571653078 7.133973509497858 4.642038871729393 -2.724091255581573 -1.802017043070245 0.7638025012192072
Ni 7.937697382191023 9.074810642158226 3.640132908403142 -2.731309370596567 -0.3945717755435785 2.1595271378748357
Ni 5.9693947815522055 8.938564766721347 0.9852187803206078 -0.5457978928428278 -0.6482339852225674 1.305221805378365
Ni 3.7883699871373326 8.412488247003802 4.6997023700299705 1.372627902737165 -1.9025428058011493 0.803091785737133
Ni 7.500925586765927 5.394120952085076 13.449000601796367 -0.2625230025037285 -0.736987437908892 -1.1508833677023793
Ni 0.011773045812350556 1.113852451207452 2.5026495265490594 -0.039282085429074284 2.8053548276487557 1.7899811949516333
Ni 7.3992772509312275 8.94981759083879 10.21321326879937 0.7526344004175296 -0.4744819189066603 -0.16705177147759617
Ni 2.2728467204568754 4.7748240609091095 5.62754293491495 0.39425655829600487 0.61589953475592 -0.6811906426542462
Ni 1.1921933634351853 2.984441009116426 6.318449554380957 -1.4525257048050726 -2.06756469133291 -1.0034146605630332
Ni 0.5491415461189995 8.260430615391957 10.916455109135127 -0.503471621270791 0.20049719562023532 -0.2800442992169435
Ni 1.8078263276201367 4.485951852724376 7.938300578313972 -1.1586280446448045 0.5413385715198934 0.683343684441507
P 5.506369504176224 8.750352659610378 3.317071506677822 0.3752064836430893 2.8772675546286575 -2.3849164687510602
P 3.8980267537233853 1.8892065278862185 9.322106135815911 0.020262864014094134 0.20479685143685375 -0.006060090151150854
P 5.79200664196431 6.28962013597303 0.7271058452184588 0.9015737785651312 2.41731391124516 -2.017558791728429
P 0.03242342312812224 5.314521438982567 6.584051630836497 0.8857648365573325 1.544043864720728 0.6139838057904458
P 5.40574669498023 3.040723775642527 1.8146087878897637 -0.36665602296991695 -0.3184244416570387 -0.04046376444200128
P 2.902986225094802 5.884742219011706 11.088096570358488 1.0150108500410648 0.4119457480456518 1.3473215627618926
P 8.82400411820839 3.2528492993742444 13.244324130649439 0.39968878505516975 0.5809225044601027 1.3745374610550523
P 5.714644641528069 1.4856897644635412 5.282307782666907 -2.3053495676600106 -0.4091013366183212 0.4126823691013602
Ni 6.7240238971596575 2.3754646451136243 9.599593133717113 0.03839582616937904 0.5640830643052609 0.0577858006602166
Ni 6.467362548399751 5.9527253121885035 9.036009375634295 -0.598420147024234 -0.36431657620346286 -2.2845213180607495
Ni 1.1788428711931154 5.010965553925445 10.317229638872535 -0.7663224394275835 2.5605459545953386 -0.7616833979936753
Ni 1.5392129320345775 2.1007260586041543 13.027639674860199 0.6264431145997211 -0.25617366324693297 1.1964821393781007
Ni 4.646726460765226 5.393160686232469 2.1021105195664083 1.9074955218207343 -0.8563673572318219 1.3325243498480597
Ni 4.410556998840563 5.632994075148147 5.276167674991888 -0.6542881618364473 -1.3467446072125 -2.9178488184851297
Ni 1.9459367969455732 1.9129334851181097 8.443892669571827 -1.9875727868892998 0.05479277947016369 -0.009461402523215963
Ni 0.46318470015345387 3.25173054304111 11.29692176290746 -0.7693211170445913 -1.076130857280837 1.9494554111922875
Ni 2.307145925036886 0.41778090667014023 10.231170240243118 1.4804226883256568 1.6034977971119868 0.22708780162457018
Ni 2.9543184948467838 6.83079986618789 13.298999617243604 -0.16116214546603858 -1.0322362127804157 0.42532165513192555
Ni 3.3989495535121486 9.142215711229573 7.48236355460534 -0.9892951904425155 0.0823334080925937 1.217342784877194
Ni 7.104596832783638 8.891763460118561 5.9845529975692315 -1.1636689495028216 -0.9653651619894793 1.0507836367652998
Ni 4.098423981896078 0.9952549569257673 3.045751653063022 0.726236112929659 1.498102364993607 -0.5044129021381377
Ni 5.363634842007165 4.471091039432574 10.556019787507564 0.5626723000006633 -1.0067954041098082 -0.46030511318564593
Ni 3.5767292578166408 2.8326350976795367 7.247053670463301 0.9491756967138104 1.1989195451749997 -0.6208247399716792
Ni 9.249234077463315 8.042832508597323 6.5755369628444 0.3854446164313297 0.5450368463070873 2.2887777793442585
Ni 4.059211572419717 5.370198212494887 7.448673139929943 0.45243213819547246 0.19918284768418598 1.8057523417429608
Ni 1.5444804097697518 4.846918583610176 12.999284795596909 1.4899149440868082 -3.962748228555511 0.7584450935620357
Ni 5.324226650172507 6.352895129581221 11.930818424230829 -0.8661740589095986 -1.033382153459401 1.6714445974656056
Ni 8.790786378083743 6.840365232836189 8.955298564574205 0.44250485177943144 0.5248251472459026 -0.5692658940577809
Ni 6.811417412716337 1.388246087847539 2.608385052187476 -1.4529597070186977 0.43998028558536484 -0.12005483390276744
Ni 5.512727769336204 1.4065657228026138 7.616057733305728 0.25550209110120514 -0.37967660359930094 -0.2827380439990227
Ni 5.23549994998551 7.966440096983134 8.091153459219285 0.6330300237886195 0.09112503824229468 -0.9668024086566381
Ni 7.542711135808496 3.472619658049046 1.8140624618804164 1.3099099548826538 0.30746408599079306 -1.6247795893088985
P 8.164674396245099 0.16341114379926994 1.1585430375283925 -1.0294967023620658 -1.0777719924286857 -1.1513932174592623
P 1.5263006193563184 7.15870734742957 1.5108412714262902 2.0351801043546174 -2.5650919220948083 -0.7563568435744393
P 5.535811441676543 7.421391334449517 10.06755212652222 -0.1096683484621208 1.9751451026489082 1.9265265703102563
P 0.1732729808758493 3.4075080394606263 9.18008747770006 0.5265580707766093 1.5216747529969084 -0.5658008183273159
P 5.271747655179063 7.2535499155710355 6.009523638924791 0.4527080175646785 2.3275857533503914 1.8571633492250854
P 8.420804335746768 6.653803291316591 11.165383054742243 -0.848145997763294 0.053876952524113654 -0.22076443050970365
P 5.667246664880944 3.8788587285490164 8.145665793848202 -1.7782255970776022 0.11920945518333664 2.00328994051424
P 1.8155550692882065 0.045416845640533526 12.237874152016772 0.5270527510248407 0.26370853817139744 1.4157992959183165
Ni 3.308656594458763 4.074892807022485 9.704633165835098 -0.003948443124786749 -0.45329757151956124 -0.030301222086702648
Ni 0.6538450190400997 4.787643143892941 3.6673680990363535 -1.5564658925341646 -1.8690521302428715 0.5457338723741116
Ni 8.096570104465544 4.1362193000171334 5.338580293926621 0.15734791392627095 0.1618594286433793 -1.4208324874668496
Ni 3.735574011182834 2.013108791780849 11.588340074047018 -0.2432153033140521 0.7396397879300746 0.269130223407601
Ni 0.5728992691500517 6.570679695764708 12.59499422571048 -1.1631071634620809 2.6801981537430484 0.9172366819133686
Ni 7.763758741296959 7.781808010138193 13.524103646736624 0.8904491294068793 -0.40979193492744265 -0.26731836700984285
Ni 7.955411024132317 4.838826246133838 10.128599862730526 1.134033386024576 -1.6917138892376027 0.7514632629275638
Ni 9.063725631490755 5.2507896198716795 1.5357708917163009 0.4767550312115531 1.9453401034723334 -0.23321448334759837
Ni 6.2750390117645125 3.9697017427995265 3.636557549621833 -1.291321650357505 0.593643808681513 0.9850531273367099
Ni 1.0640864403218586 8.868250931183853 8.710273213975839 -1.8419802137267436 -0.2656494639478522 -2.6543421119118933
Ni 1.9749592008209669 9.347582082115268 3.367257983485285 0.3207438338188347 -0.604360680878385 0.5690992865729295
Ni 3.260158507417388 1.09758386952979 5.569264120631148 0.2996407332916323 2.6782675123792385 -0.5558853589858169
Ni 8.930127479375626 0.8631922978778662 12.368171972949156 -1.3178569776438722 -0.024637081822389828 0.569686012314335
Ni 1.2678958753106102 9.24867469929675 1.1961043491164343 0.9836025109331126 -0.9141832397990256 -3.7445847260037635
Ni 3.4618982431898417 3.3037900044096284 0.45403979942702477 -0.34140701859514105 0.7634944830604851 0.3889199765744399
Ni 5.699410909458557 3.6788157732151507 6.051414537522062 -0.1536918052309224 -0.79119683407176 -0.9869673136402873
Ni 1.9755372249264198 6.825103531858347 7.064522980930765 -0.24028553126176685 0.009132815539203627 -0.6448113326942637
Ni 7.641506642993702 4.079302571568922 7.643989349756316 0.7528043503364905 2.09863184505136 0.714403381960789
Ni 7.733487059516232 1.6602996591574861 5.383718382780815 0.29388788996825516 1.5047394106941505 0.35692773993855953
Ni 2.5824811815906945 5.029881858924857 2.2985734546342442 -2.761692610874115 0.5303527619323511 -0.2740150623037281
Ni 9.15576198582994 7.707056441145933 2.5604090514348976 0.5508578238642384 -1.0346407084568505 -2.5850390546406965
Ni 3.6357902692366917 8.111458886665675 10.981910745295986 1.2098377347494 -0.9457769554449065 1.6807370785111246
Ni 3.748747367005491 8.947533463325309 13.284850146520286 -0.811807568343576 1.153544202363994 0.39066858383443037
Ni 7.024885444047816 3.401625245742228 11.901481836285214 -0.09340792073920043 -1.0306737533893022 1.0764113646357334
P 8.150578066447606 0.19006271654536316 8.146729544661623 0.10766828731295651 -1.6646802821585782 -0.2279853737381751
P 3.8418931547083686 3.5674062883738547 4.511345756892637 1.8584810395952447 0.9509091344651495 0.9162465500859576
P 4.841809596355529 4.199820597555822 12.658812748437185 0.6334159463731285 -0.7401460381425318 -0.8835248914832204
P 6.547512116699385 1.1658932666370851 12.26715666673962 0.9115131491660301 1.2447430312670176 -1.4870656475634711
P 7.67489219656832 5.686153646910915 3.2912273030854737 1.5574729936424403 -0.8891936597332234 -0.17306532466152774
P -0.0747534335861492 2.5481633310717977 4.1773130847270465 0.4699477784817325 1.9354408420807505 -0.2731948803952779
P 1.994723896039674 8.708082316156785 5.831413901502024 -1.1451132979878214 -1.0554010809326533 0.5567667331495056
P 2.3463023966965886 1.7209921902300251 1.6615097805911598 1.2444203578202762 -0.1713588834933823 0.08355288232199158
