# total energy = -381167.9727649163 ev
CRYSTAL
PRIMVEC
9.26298322185667 0.00000000000000 0.00000000000000
0.00000000000000 9.26298322185667 0.00000000000000
0.00000000000000 0.00000000000000 13.55731226187732
PRIMCOORD
 96 1
Ni 6.6402527108997065 4.816695567959084 12.715185570969318 -0.2777930412889216 -1.616988375399254 1.2424809747057182
Ni 8.43112078692931 1.5090788710140008 7.426939328813815 0.737779080572252 0.07499933632502567 1.8171901512662576
Ni 1.9530536449003897 5.9802281221556886 10.807102782103584 0.5681091547455184 1.0689451381656752 -1.4807170796376241
Ni 1.4056669291056418 0.7947194767481226 0.6000977204014764 -1.559274051406921 1.0346414797877987 1.4116914443975301
Ni 0.27955960501404936 5.213262394990674 9.550800527136076 -2.10503800568802 0.7257573735210275 -0.641754805256127
Ni 8.82475124835852 2.243522264961508 10.137655887079635 0.3991930763656738 0.7622040463838357 -0.46291118334992537
Ni 1.9924213225347973 5.6728638211521805 5.735651098636722 -2.964336677634024 -0.830570450773376 0.07044796950891738
Ni 9.134959285134679 0.22175673866717172 12.571600071907918 -0.6452895578822628 0.015380339110812222 -1.3066739644438592
Ni 7.392647765848503 0.7088627401698175 10.807780832457194 0.2705728693913985 -1.0770577399704806 2.0078909296213614
Ni 2.5203094591717976 9.049869523546523 12.55756850530072 1.626793277304818 -0.19066118336642002 -1.8329679829258045
Ni 4.093738272897852 4.544530602252223 4.938481562892293 0.7945387539607993 2.1164855854033293 2.3304571613609157
Ni 8.04321484897729 6.5624899688430345 13.232315679181708 -0.2993250018234264 1.7464133376630118 -0.5162669732632464
Ni 6.6171323053995925 1.8208060369976988 9.067373782470225 -1.412542993764548 0.4601770722482139 -1.243050216945627
Ni 0.13814349656487923 2.948277798481185 1.033461747292521 -1.0279468413764425 0.2518999755722436 -1.733199410075899
Ni 4.161913827577673 8.451073252252725 5.40760533554984 1.9660601096285044 -0.14714500525134014 0.7323975045453645
Ni 0.34082867958934937 9.044858249758237 9.275098954530199 0.7787035867007558 1.2867756828580355 2.7469499053473014
Ni 6.4856998399985075 1.4834018822133943 3.0573633174603847 -0.6046188196357781 0.22008000284816934 1.4131613440748374
Ni 2.8901155283949627 0.09555137455763942 3.767278332495913 -0.5415026079015836 0.9707279689632895 -0.591633977340336
Ni 7.416314687344011 4.2281904707480695 8.794207488304004 -1.2646413128528415 0.35572009278370353 0.040788494771271694
Ni 6.894039918388528 3.332246968669764 1.2398734283669495 0.35896199675976886 -1.3044527884228243 0.20939938320587162
Ni 2.2056829795176123 5.007902062483659 8.107001602324598 -0.2930299128433341 -1.4722920887987225 -0.13210739419192732
Ni 2.330742512633409 3.7350107313101577 1.4076695860243615 0.05357253390981741 -0.25061185288843935 -0.4224358489436983
Ni 4.731596543387955 3.218969949895371 2.4338358079275038 -0.20065403291307377 0.6831014865237138 -3.0853237935430735e-05
Ni 4.750715340243818 8.477380123895482 8.121114683181958 -3.7337871211676275 -0.814406953639636 -5.031003282632696
P 4.857786160426433 3.4817885657826757 9.150277480076802 0.7602682628137035 -0.7126753435260887 -0.6787882038603407
Ni 5.627271418960049 6.321041054673984 10.623916178236863 0.35343875294869453 -0.04407693571455635 2.0228290389884322
P 5.305030767302222 2.9133007747758857 12.83345996905754 1.1548212693042048 0.1860509382879183 0.107291363589512
Ni 3.703322066560203 6.567612398426994 6.67571511491278 0.8773208195550375 0.4793220206077809 0.6312983858094934
P 3.3312280405427557 2.4484472372688013 4.074135022032512 -0.11781823126276485 -0.9563035660078434 -0.38034149087680946
P 9.243808598048073 3.5200817373922386 8.075114709739024 0.9521656325800698 0.5384807903561243 -0.671104719173154
P 8.570852885074023 2.114414808286597 3.776579293698903 -1.344311315180659 -0.1484387843620992 0.34427122751681355
Ni 5.374280828006887 8.098440753461134 2.4608559292591665 -1.1992555883581797 0.17121181639255675 1.3463435151193393
Ni 8.391271434180316 8.351681444954561 5.02256351193301 -0.3295488337049744 -0.10482953231258076 0.16883071775488986
Ni 3.254336018885528 1.4204135979983423 1.7630467066707933 1.2444296137916568 0.0598586240288453 0.4813189964331517
Ni 4.354167039178174 8.42437733532511 0.4192074100137116 -0.8820868734851132 0.19179838229465676 0.4141900639951383
Ni 8.932025854166538 5.991964321582228 6.845276797124808 1.0714992720460965 -2.0948314974686633 1.3450443366919416
Ni 3.3728929379544184 2.1453716973817003 12.842244982108944 -0.27604340558766655 -0.02402104550494573 0.5912226008345302
Ni 1.5168597767111545 8.236681511347227 5.496473467892602 0.4698552187679263 -1.142703402994748 -0.6538395043348031
Ni 1.4067692240794052 1.9101845597022633 8.409491721687818 0.36381906774175404 -0.02803402331908075 -0.6017021602096154
Ni 1.546214169751963 3.504677396708469 10.447698116460579 1.3733768650880478 0.2515395069090313 -0.0267178756108185
Ni 5.710267746396354 6.695524930298414 13.266737850206937 -0.14253861682758034 1.4269535127629231 0.14067636680786094
Ni 2.9742789916858396 6.896809550297396 4.075490196441432 0.07772907655136291 0.11299407040124411 -1.3102958774671627
Ni 4.135560641020052 6.190914669872065 9.02689176798419 -0.9730414475878144 -0.3620419212366733 -0.6290175601951167
Ni 8.947809977152193 4.129706435781241 12.068556181902272 0.3843259294458542 -1.072825447056688 -0.690405733494611
Ni 7.852610448345947 7.554564708213078 10.716092121799214 0.786841899537174 0.44421000739599625 0.756214147348988
Ni 2.1441860355611815 1.1015539351255867 10.712716690803925 -0.8723704175282975 1.097437332068097 -0.5084472201085115
Ni 4.925387410161941 1.2950761753933613 10.954741762513883 -0.6771308707625757 1.0923259789834607 0.6859721232032896
Ni 3.6092286855224827 6.636871722114633 12.255471136415547 0.36964081662985376 0.3601501035305991 0.006350367698060031
Ni 5.579937575969033 1.194721017866027 6.899058602563192 2.740617278261054 -0.01563976341978597 1.3484142816054392
Ni 3.2700923529222643 8.481863407654316 10.009024547729524 -0.08775406488753273 -0.8255984514800814 0.570061907596515
Ni 2.549321121842613 6.370959269914413 1.083486486837137 2.1921500661161795 -1.375448917125728 0.866478734634211
Ni 9.066348370255136 3.5767248782709213 5.410031310790416 -2.1471202795700504 0.7062450145197127 0.1399950244701202
Ni 5.684386971970345 8.714345754305697 9.80956936686767 1.6836712214387843 -0.45509785795309365 5.105880234447245
Ni 8.941047999582047 8.077608304755303 7.4883538322217875 -0.4142422573893124 0.41783151740246754 -2.3360835064087575
Ni 4.016679517547114 3.5867011109326286 7.200614086944458 0.2626888386576315 -0.15057408553754714 -0.269442098221065
Ni 3.67897894730768 1.3954313329206958 8.63561410423007 0.9258241664720636 0.3760387497363975 0.8405411888328428
P 7.182516997110494 8.896205899010713 8.400042552757263 1.2675895968478879 2.26721882222656 -0.7526986779965618
Ni 5.504833310025556 6.418033749382191 4.431180405912345 -1.2811192559032065 -0.5876608516252009 -0.17614447780748374
P 0.7337671961904924 7.782989868322369 11.09596797981211 0.3245575511379701 0.6677471155548307 -0.048754800806199906
Ni 7.426050082448426 7.004686249998646 2.941815015261061 1.6959896337948208 -0.1506296213658309 1.0856747922155303
P 2.489037628655619 8.515219409339377 1.6859332997205159 -0.3268054666318823 0.09796520109257967 0.5894235999525784
P 1.797944995020824 9.221410705219837 7.245610879331436 0.14341227768178527 1.490649765370304 1.9319420848988724
P 6.255820391562486 8.431769195737406 4.501298408121563 0.20073913642771235 1.2735435004384776 -0.06267732442456303
Ni 0.27967261340631755 4.883472412210013 2.582763269269319 0.04813593627527839 -0.2402888736958765 0.7561141314360139
Ni 1.9078410250101443 7.248617643604408 8.353161669633614 -0.05316475694843747 0.8445379686970617 -0.09344571595567132
Ni 7.445548661606173 1.209347267980081 5.565316883644763 -0.871051441606558 0.22957302994026915 -3.198292924243653
Ni 7.6048163908405275 5.985860015803152 5.149866539524819 0.3473074432399761 -0.7507631515367458 -0.3895756078805678
Ni 7.37207468066591 2.3391903531046045 12.790428781657388 1.0578305163097526 -1.4395308352073013 -0.17649234806520572
Ni 3.9588229258989944 4.263306439197962 10.844452982046517 -0.45039042517509525 0.4644996108829678 1.0213069674624216
Ni 8.027421463008663 0.9313373600173813 1.626429749699832 1.5043352332771962 0.5247320733114641 -1.5228386913980223
Ni 2.463990522697163 4.516083981542749 3.6211306923442357 -1.6877191662559128 0.10000588567169229 -2.3921430684064866
Ni 5.638349946595521 5.475571546814475 7.220692528836302 0.34412416041598803 -0.26705688581834003 -0.16991598039926864
Ni 6.388929456881648 3.4815199392764646 10.885680666661862 -0.46158475122901793 -0.8237750251180974 -1.0764136786285785
Ni 7.019803438210259 6.809626354557387 8.669643524777252 0.4270466082428323 -1.920583979573576 0.7514540069561831
Ni 0.3775295444258873 5.32539080387644 0.28861324457166576 0.47984832542489614 -0.8349297561833362 2.5351347136110856
Ni 7.131339016185764 8.200898608123294 1.0774025596206007 0.2824099712356427 0.3575977694223906 -1.6857018787155675
Ni 4.293892808974153 4.58158253414343 0.3398440244993406 0.5296385094741459 0.4492370282969425 -0.2291030322823861
Ni 6.282775672013339 5.389990847128759 1.7196366632670552 -1.290651106653042 1.699073157816151 -0.10772922245787898
Ni 0.8250122099640763 1.2573943606600038 5.473398451009055 -0.5845138213557869 -0.6021089087297308 0.1103149809071842
Ni 6.367355969537992 7.728690262135805 6.733374405023579 0.19632378096883607 0.46724863438301467 -2.9549040714662143
Ni 3.652005140890881 1.2987072647186997 6.225435954815103 -4.106540258174218 0.5996128817807543 -1.7528889180850262
Ni 5.426625944786191 2.924156990820009 4.741032744142348 1.2695014691586202 -2.2656208816118206 0.4393097418809015
Ni 1.2195643381990813 7.402494316748591 13.215938725285794 -1.6939684895997342 -0.23964069858891632 -0.8984226345306592
Ni 0.4856971017924827 0.03748821838922605 3.0956629731580287 -0.5154951280942283 -1.173199000480444 0.4078340398701234
Ni 5.50481478405961 1.1148000007766934 0.823715392347884 0.9080922964099393 1.0402529124373052 -0.3225022112708381
Ni 0.6063900647349006 7.148281012043019 2.064873596453161 -0.9459307074139516 0.6030260212273614 0.021992445110691157
Ni 2.1615263396862665 4.816130525997743 12.69066089725053 0.5466206458544393 -1.8700702870947408 -0.03305975866844629
Ni 1.2020850893294044 2.119852179291631 2.880996121658239 1.4443390552292221 1.77448669886046 0.9126958566202217
P 0.4323932662754949 6.771990854738893 4.254460290458936 -0.253990282442369 -1.3625880020026597 -0.4670195490913441
Ni 1.918882500713724 3.2668966237966477 5.588242766502447 2.7016144146352956 -0.013699094753647374 0.9878887970132921
P 1.346550571773221 2.404587012892585 12.327880800612233 -1.8688796092207491 0.09619062569066014 0.3252779742437624
Ni 7.4500041564160915 4.29021540473395 3.4161575525254833 -0.4138365373104615 -1.2059489412179554 0.8944515656980531
P 7.587003674583829 5.394177715432466 10.893462498657312 0.6731117223008536 0.2313568613135693 -1.2336479497951207
P 4.217695511039886 5.962128253426833 2.560786842166347 0.7234240974021606 -1.0426350395162365 -0.4078366109732847
P 4.7110234582053625 8.546759866361766 11.850879787234618 -0.09963898925057679 -0.47393633081583536 -0.35733680245152005
Ni 6.820343625856918 3.6729672713583317 6.436821857745926 0.5835625131861111 -0.48232018400415644 -0.04641072605405556
