# total energy = -381171.61561831774 ev
CRYSTAL
PRIMVEC
9.23226132963122 0.00000000000000 0.00000000000000

0.00000000000000 9.23226132963122 0.00000000000000

0.00000000000000 0.00000000000000 13.51234766719214

PRIMCOORD
 96 1
Ni 3.6902270686098095 8.865777225724337 3.3613176128318707 -0.6982159735676492 1.7466699337585079 0.6805928611692472
Ni 6.879567045627323 0.34717179138229465 10.2704380493409 0.5456605959340152 0.4515998721021642 -1.0475484176574539
Ni 3.2782466510329558 7.6663034041839095 8.30243204160356 -0.11262177466348991 0.5274849534662528 0.12824868256746944
Ni 7.1579843424376755 8.012882484406102 7.454613197416549 0.7792306628488193 0.07523587781586398 -0.1641957900860398
Ni 5.376204119009815 1.2526978065559011 4.244674199520193 -1.0511942419401574 0.6252501227328845 -0.867402274889745
Ni 5.3492182199291145 6.941275478557667 1.8732036118084754 -0.31579985954999806 -0.34547553223755983 -0.8835511167354655
Ni 4.523955635965836 0.48885745543008186 9.280523628715004 0.8806766234011477 0.21308711647010398 -0.5027396282007729
Ni 8.196521389166348 8.201285235873717 4.782857779345884 0.23156743466247862 -1.339752749275699 -1.503367470047288
Ni 1.264099648965981 2.173828189374461 5.758260008810318 2.9395003353166342 1.4451252985759435 -1.2764205648759566
Ni 5.679880882082498 7.357595058833094 9.335221082595782 -0.5497725612198596 0.2810938235273804 0.1306493215891621
Ni 0.08704545018558636 4.058723536590326 4.282022388415528 0.9599157088391339 0.01684098281673874 -0.062072600961028575
Ni 8.359119970969045 5.161295546036662 1.6430747332504976 -0.6441425887620132 1.5474788585442059 1.6680198880547727
Ni 5.833727280399564 4.8533073170485865 13.332849208390199 0.2968911955709532 1.0445649095490979 0.46468678719310935
Ni 2.1378685325426696 2.4706730792621574 11.351520124716027 0.13309161248206755 -0.028484737703254173 -0.46712393587969225
Ni 1.3358804787136513 8.78649056773424 4.851026948566571 0.8546053802353928 0.420093831074083 -1.3576309151077006
Ni 7.722980254836122 9.064132354615486 12.431210898349292 -1.1917703357247282 1.026818127088638 -0.11280586564983798
Ni 4.756248556516464 4.4490358374574965 10.738032684321869 1.618903847254412 0.9720927105213 0.6318943675222795
Ni 6.248911292564513 6.388013769967489 11.523154320418923 -0.5513823289091407 0.04967319885541123 -0.49084107699097396
Ni 1.9976212547681542 5.9421878833417665 7.238929114514289 0.14093090602082828 1.741033561408337 -0.22898758975044434
Ni 3.4889360807013263 5.90046729560804 13.444042560606396 -0.1862751384835824 -0.836758581861959 0.15773409362109608
Ni 3.264158220654185 7.372071244176418 5.4050743225730224 0.333353037942413 -0.27058906734131466 1.9080084569014109
Ni 2.691601086446948 0.33931790689787755 1.4334710174828762 0.14601809073574853 0.21017097126457354 -0.966448367751329
Ni 7.0250951767286125 0.6445475362809868 5.6195554418590605 -0.6846852860710659 0.15458912023421117 0.5718758208768022
Ni 5.164748411673399 8.997410803929132 11.513668172178958 -0.097423983877129 -0.5224270793273712 -1.0721968123337535
P 5.770107769429635 3.016668998397491 0.7847237256453343 0.3767532593049189 -0.530198495742674 0.42894151127269997
Ni 5.670030059530632 9.332708061135033 1.9579529986682422 -1.6779070652614976 -0.2779084838208633 0.4513697583692291
P 0.553517442221562 7.554380703343909 6.642669996485678 -0.2812154367069093 0.16341108940121535 -0.0010556949580239885
Ni 4.114578716008126 2.072550285537555 7.4147113651118 0.7896125203037756 -0.5998663925524572 0.5045491706056859
P 3.2942369271902505 1.3077036179561092 5.100857472228282 0.4583677869536171 -0.5267946122674476 0.6451684589233663
P 8.343748256302822 2.607199755829173 5.901328665565012 -0.9892028878390254 1.5823576726992619 1.217461312732929
P 2.5153572227963985 7.405344313039519 1.4145808881263866 -0.3397705114329826 -0.34975436211857186 -0.8432768425964509
Ni 0.43676626884676617 0.09913509604469559 11.172738312499865 0.7094455237348815 0.5365295801670243 -0.6058979434585178
Ni 4.511612102927555 9.030462298526771 6.773780105488326 1.6769398162522215 0.5008406114058471 -0.5558961576190942
Ni 4.518471672895725 3.442257768777954 4.736010517045098 -0.3422637101684815 -0.6605418560556431 -0.3955508516273962
Ni 8.707730148624611 6.269083782982346 8.21770942830087 0.721555419624538 -0.8546609160636766 -0.5405024487718434
Ni 6.2851663817502486 5.357730364627167 7.95842137640848 2.3501415271637205 0.41665420926491475 -0.21930815767915132
Ni 1.7564561313381037 4.541063015711487 2.5045942528517253 0.3809279595078988 0.2098822363795611 -1.2999682702889097
Ni 3.1996339481002987 6.709167203228256 3.333590363187989 -0.4011751397927091 -2.332654169012234 -1.6595655866398322
Ni 0.7996190556408188 6.499096335050958 4.670191881490489 0.6905142340480173 -1.400596105815317 0.8131558548413543
Ni 7.1577627681722165 2.5600782953748826 2.503932299733666 -2.532018022358975 0.4317946644507789 0.5699145833853733
Ni 0.6803585537096991 1.4820364035670748 13.678144081098834 0.491568956295934 1.5199256315162857 -0.17349341333788185
Ni 4.52538663643026 5.265296966886502 6.2826875196554255 0.4458763393548257 0.15924410250771928 -2.709545239446598
Ni 3.79039710111942 3.389403074204911 12.962799874099256 -0.24782811949571515 -0.09674032754654306 0.5402257980716889
Ni 0.9969641751719184 5.790704943856265 0.2267969555411373 0.5733914861903803 -0.5898938547207776 0.8641927668135118
Ni 1.9684196130328642 7.638837427528049 12.208838042308487 -0.23702023024693378 -1.9548932943784074 0.6290795237813037
Ni 4.788219876569992 2.1208904044518704 11.155713099877655 -0.573287099402032 -0.6731042661016859 -0.7560609096005753
Ni 4.159798330683893 2.122736856664029 1.9729785035446838 0.7211759247979321 -0.3492625100838178 -0.06558678476187414
Ni 9.235400029554269 3.1790644704568503 10.535968956162597 -0.5990415826583166 -0.5445200545716686 0.08016751078952646
Ni 2.3514014986177645 2.1425677534226137 3.377492534210381 -0.8982370008824143 0.4047134919632707 0.39687059888008425
Ni 0.5403753186015223 8.469297774468556 8.758163221121407 -0.2575857131031112 1.2475774153920192 -1.07338183378079
Ni 0.516104627498802 4.365659287817469 6.668343068043532 -1.4251046324796424 -0.09504879877673308 -0.8178005527022175
Ni 5.987148994707832 3.2241825302609484 9.203245910731736 -0.26013907565258426 -0.7504263370226173 -0.6548784871222786
Ni 0.41923974444895556 5.432613234091264 11.425392061593966 -0.8946971060499559 -1.052655399866716 -0.8417357233615761
Ni 2.2603160109919753 0.21057956576174727 6.8785007194748005 0.06041218253947015 0.2412270692394297 0.5814148707154889
Ni 6.227732485691051 2.6643566840565462 6.375801335036272 -0.1628331054105583 2.0273135571223473 -0.10518023078378014
Ni 6.883878511542713 3.302665981538755 11.746539955498097 -0.30341099896734197 0.5675458260428806 -0.7071999222338143
P 3.4288248289344994 3.3485410867498384 9.314101362193108 0.10784800742393037 -0.7650579708928631 0.19430186544280087
Ni 5.439537429886859 5.528481032946544 3.741285165180422 -0.4307852493496581 1.2210731984539034 1.165698835448657
P 7.341530924587313 0.48972436474369035 3.2471117738315356 -0.16409757394527869 -1.281736320661915 0.08178704867082044
Ni 2.2110895950158236 1.1127459611353308 9.134738840756224 0.072398665477385 0.7083301791835156 0.564781375923866
P 8.517591732077566 1.1701613926724062 9.216745322854829 0.6252598929248973 -0.09231443056470554 -0.6300987090744374
P 7.610051237540495 5.181237229927976 10.069347401497437 -0.23863565436316966 -0.35622505744458005 -0.14866067056491816
P 1.815985750658101 3.532355404470239 0.39221876277622486 -0.6722935972749325 0.5863066515901515 0.6460233507244938
Ni 3.0085446086639926 8.539232152004066 10.536834019023994 0.0674786024679483 0.9183042039459346 -1.0581771010158936
Ni 4.468017366198488 4.484340003753971 2.028514246729782 -0.44695234602782374 0.17164479016491732 -0.6070217726503159
Ni 8.232056361989342 3.7529972115621453 8.491496746189233 -1.8726637588535295 1.3396234227866863 -0.33919612698675133
Ni -0.03104070813860024 2.98396832972016 2.0703345428829647 2.6528099915380827 -0.8052473986275552 0.1395484238510048
Ni 7.474170819247735 0.9803645697846115 0.9260973392692666 1.5078309051352805 0.6236174722254679 -1.062550804603557
Ni 0.46738229297656986 7.410699024454778 2.5762504470750747 2.0733442741291648 -1.9481451770212965 -0.11242611371291607
Ni 8.652724337224402 3.7173329870842995 13.491862903222989 0.5212533707342443 -0.4195310165920775 -2.08502788111468
Ni 1.51629732436368 6.69769150272969 9.78393943661185 0.6992133044839118 -0.28483632128894815 0.12858215464748823
Ni 2.880973225325947 0.6772518978627421 12.625815882797548 0.06465784518970155 -0.18473016259396574 -0.4174065140499069
Ni 8.657063499922975 7.052625779211899 12.541701675498764 -0.7806468264700556 -0.7716533647221936 0.8946441413248334
Ni 8.198450931728052 7.324321989969994 10.299002665062995 -0.11151774296603376 0.28905524446630215 -0.5093720459156259
Ni 7.719065776146345 7.887877669642957 1.8011421213245569 -1.2084927906857317 -0.05734562779900446 -0.30840330997561083
Ni 0.5496731287158475 2.3445880899548994 7.913290391438896 0.8887347178189339 -1.6198623545129391 0.44586399805965143
Ni 1.4131360392703722 4.278968356456617 9.062258205620145 0.20804878271524813 0.877112045978341 0.20549027795945257
Ni 2.696835778468418 3.7343665087414637 7.158449648395139 0.13332712553164136 0.03148084421710062 -0.8523703202572869
Ni 7.895429659190685 5.862716580130455 5.750652625696224 -0.8771202735084572 0.3237224568311844 2.5179728571198186
Ni -0.07141338575745065 0.5391012665751328 6.451064573656073 -0.9838724767650476 -1.521048689377135 2.1044175984952016
Ni 2.555933010158586 4.7418093002173825 4.691189736047158 -0.16187434104171478 0.10114874102688386 1.014711316522775
Ni 0.6688634654629051 8.497068415739422 0.2761166173540028 -0.03959241758064149 -0.3196981661631398 1.949961661404745
Ni 5.139692055154405 1.141495222078642 13.327268306578949 0.27206950854158307 0.712348042093657 0.7297217574854141
Ni 4.4569848142308395 7.977762963330844 -0.19642373987723247 -0.3676934630954958 0.10372370084291169 1.3887546330956986
Ni 0.7393480857576399 0.37858548286775096 2.6712698011388687 -0.2756569687825252 0.4638774039179365 -1.535590334636736
Ni 8.913646499324551 1.6289309093053619 4.140264712731467 -0.45959240338933754 0.3163333634559649 -0.41288702891299855
Ni 4.142967918770067 5.4326870921797505 8.32792970020126 -2.0901400055302646 -0.38652396553843754 3.422099226903474
Ni 2.620798876371722 4.8524579490309945 11.060978099454534 -1.0702911106706083 0.3468361600305124 0.770278338751538
P 6.657605025203723 7.4014113698276205 -0.12583571825861675 -0.8136893587473212 -0.30324104904838095 1.6241123880385449
Ni 6.471399551868577 1.0385555112507934 7.9376118599774514 0.4641789943187554 -0.03227917174867989 1.0331127018480981
P 8.001536035562387 5.832748660727119 3.7421096060931514 0.3068665616161102 1.06253203555048 -2.4350606937056196
Ni 5.641816269728847 7.984862572086593 4.237188682252102 0.6420949622043651 -0.5640082452032674 0.6720891945736103
P 8.524820592488167 1.9411567461203405 12.074592657449594 -0.3273533687155523 -1.179895438664013 0.8279139869871354
P 5.550592298187145 7.195282677123282 6.397055846450431 -0.38699653429948194 -1.105723226225973 -0.6194795387976945
P 3.8090647329843446 6.679614735572655 11.163184768754155 0.9533123445900034 -0.43988258366523597 0.1748265303270086
Ni 6.95492076040552 4.01667058745841 4.233796749538366 -0.2817759371960695 -1.332996404388472 1.402030267158682
