# total energy = -381164.2711980561 ev
CRYSTAL
PRIMVEC
9.28742253781416 0.00000000000000 0.00000000000000

0.00000000000000 9.28742253781416 0.00000000000000

0.00000000000000 0.00000000000000 13.59308167114439

PRIMCOORD
 96 1
Ni 4.972114505848396 8.860006022442372 7.636783753188827 0.25290347713609346 -1.081105684787609 -1.0014338826875786
Ni 1.6722932940882067 0.4583175826686863 10.69757828721587 -0.2460057215749957 0.14510380645159526 0.25678327180647387
Ni 6.643311884082431 3.8211799608268104 3.8351380280915284 -0.8887164629864887 0.51038788877465 -0.0034820450113294873
Ni 5.09180151951559 5.341048076960027 10.911275377583879 -0.40770882714616874 1.3170851324748543 -0.36437931112059824
Ni 6.441124696409987 3.583356933048754 6.725979231692556 0.8541888615232643 0.8106058347259911 -0.28577683082534655
Ni 2.46976711387149 5.116088129334765 9.857444549695524 1.7104502893048412 0.6483118896483544 2.500806629753177
Ni 7.951853988810098 1.0549676084014967 14.149446678835586 0.9911543551384414 0.6468566452590666 -1.939874195261756
Ni 3.0346467247402718 4.067937489043124 4.223859381566728 0.37898703373144405 0.7607824834459608 -0.11542299155771091
Ni 8.314667148498845 2.3705495793788525 10.237588968498446 -0.5334452848147457 -0.896574782688643 0.8517913078253653
Ni 4.874930916881725 2.474262226358098 2.372808280529148 2.5210208999175228 0.8527421017744088 -0.4070367407798086
Ni 3.7259281557386803 4.76637952278363 6.82435253948058 -1.4963977235976744 0.7687125369263148 -0.9687597894933252
Ni 6.5843088889844505 6.201304872795938 7.820684005972569 -0.35436846385181553 -2.159393697620765 0.2601943543705519
Ni 8.01834264643743 7.103875165509923 4.314090406055145 -0.47710855789622997 -1.574061751239057 -1.0352197208887721
Ni 1.4001439527760513 6.3748403620775 3.4294801309581087 -1.9153371293523398 -1.5337892768722552 -1.115684708314059
Ni 0.9625391797512366 1.683150290982515 8.621493867915335 1.0488578804974968 -1.1310694183002457 -0.5493480720879315
Ni 1.5691657547260194 5.711569797317957 5.760326907921669 1.0119149847245605 -2.9162063977857002 -1.6437813272223822
Ni 2.4323295138022374 5.8177807609478185 12.481398665568928 -0.5428064143146717 0.017258787080447695 -1.0782512460579494
Ni 1.0329192674031327 1.2015974347208602 0.6513167232688128 -0.017854254572601508 0.39328262441850975 0.4134220754808622
Ni 5.87899416259913 7.122589321833302 3.25977013100141 -0.5899743302497259 -0.07460004400407798 -0.03211359270509308
Ni 3.5194037417620088 6.485992234473632 4.005935585222157 1.07141468275209 -0.36575845085631203 0.443939527343429
Ni 4.127971388037827 7.652724685155801 12.766621911524469 0.3697084366429956 0.5934586892539006 0.8918506377400962
Ni 5.555736135308037 2.2266966923848934 11.45677956764778 1.737004385644286 2.0824040703385878 -0.03856988985339809
Ni 0.0785353733429928 3.2959297817356266 1.5739023401974457 1.4629648978605254 0.24660376017031077 0.3668503983689101
Ni 1.4155610741144184 8.750312275377638 12.812552859463562 0.6923638856622463 -1.0800859852738431 -0.012354150689978723
P 1.417362834078059 8.565408980964653 7.945088101523954 -1.91521294506965 2.384989745191157 1.4670732636019443
Ni 7.392212484227364 4.765302181774443 10.813813165942417 1.6564360398719147 -0.18667674479737528 -1.6472515451591696
P 8.647166161170464 5.233323263463808 6.510379148455732 0.5299200452703068 -0.4310387601213609 -0.019064729940934905
Ni 7.864041409138855 5.775495126337224 13.43135153035766 1.9082465410541458 0.6776630891169619 -0.3560443088923416
P 6.700095185204585 6.747331016003945 11.721858394216023 -0.48687463614405835 0.1792629688318074 -0.26331233117424335
P 0.09324943679864062 1.5107292924001114 12.234290072782377 0.5230454296376604 -0.7830117271578063 -0.683107657171301
P 2.831354333791162 4.642188109207336 1.5036262716774709 -0.8245772093044187 0.20756747220345542 0.49446067602143223
Ni 3.3484687307784844 0.28805590981590357 8.942997501097501 -1.90522318084679 -0.19138057803094785 -0.10346839029899599
Ni 6.8976479490530265 0.426472868424714 10.872874671802103 1.0109233102352526 -0.3540103091814484 0.235229199784782
Ni 5.9171376067778505 5.9691564601611 1.1809524232611874 2.5374692752815333 -0.4526496535229172 0.2678215318985065
Ni 5.5780630989811915 0.6169904097347131 12.921094037396914 0.3128832001238353 -1.797662365645975 0.973502703494949
Ni 2.109545145058288 3.272999135600428 -0.025770739933555237 -0.8919948766274445 1.0212051517772347 0.39205158022488606
Ni 2.8183798045684516 1.943606767375993 2.152777168020918 -1.6775856773663367 -0.40537529391698573 -0.26895024618631097
Ni 0.40122686786201284 7.444955756565068 5.658201481446475 1.7859275937075498 1.8119116764761374 -0.6922756968238142
Ni 8.943945746934036 8.905570117192992 9.534949019791108 -0.15322694977936194 0.005341466817571446 -0.5521158646410556
Ni 4.335006610251613 8.422085477052795 4.993717979309346 0.23048165779746757 0.6281863225430729 0.4078643788874266
Ni 1.2535141264566878 5.5022312943259095 8.021154877968309 -0.4716580763046199 1.1380988143432011 -0.7729492007154817
Ni 4.028066584280708 8.832218054343338 2.585702937593763 0.7003530745153099 1.2799774289892794 0.6194065194679138
Ni 8.435180742767914 6.399470606528916 2.1430718115157408 -0.4752298528162783 -1.0810141535150672 0.3872531303949782
Ni 3.8659174749755545 2.6516612833967454 10.209518662755626 -2.2164616462783506 -1.4821820942189248 -3.485754856080906
Ni 3.873793209249612 6.82257771304217 1.573345094847866 -1.6446261917211804 0.24312222937961353 -0.23882488755584033
Ni 2.0965148913006195 2.0467900312731384 4.58051498014262 -0.44125323876051753 -0.5042429522191767 -0.5749004666357389
Ni 8.119696288103457 1.6447375115514984 7.5792305247420035 -0.28474736111956767 0.5832498670416987 -0.13212822012753372
Ni 8.563319310903731 7.291778297388144 7.472973123999678 0.37582277707084955 1.3447671717711551 0.6139444679120781
Ni 6.178039879450992 7.857735249266113 9.678192651869526 0.3153391178634956 -0.7793165376944061 0.4805672058687917
Ni 7.209250261115414 3.927929594961264 1.3582140264469384 -0.4790417703632008 0.8851786250365594 0.6758473760644619
Ni 1.6593001900205102 8.321381954961279 1.8955007050890404 0.449320074929052 0.6225139547486441 -0.7864546914010843
Ni 1.2386821127353786 6.416605901028486 0.7406747300428896 0.06849624509918525 -1.5739571073403926 0.4134958661415911
Ni 4.272000736059153 1.363941579898367 4.301938742465314 0.4749611725359239 0.3354191764428223 0.3783154615857162
Ni 5.671856778737921 1.5832919243378607 8.827170340218396 1.176979807679115 0.1634267731304992 1.2145490241821406
Ni 8.102022323099291 2.420181565181404 4.892231527501671 0.4735560646582812 -0.5724532906468269 2.386947126027844
Ni 6.619935441667569 0.0012584457478004665 3.9727005438309835 -3.62909154332975 0.8536039355540719 -0.559558694072346
P 4.782660374413846 6.876407613811553 6.405590089209548 -2.9093911746360797 0.7548949143169322 3.2855476808972637
Ni 6.068559743103598 1.2960783837420717 6.248671656252448 -0.2441203316268247 -0.6941024656199078 -0.7870571008717735
P 2.1795630232329573 3.4807773516136535 8.6690556872442 0.24100595436755914 -0.991615096824944 -1.599431083241781
Ni 6.36531146659969 4.217762188700077 12.63290717492386 -1.9778429611960453 0.2731115766528522 1.177568076082417
P 7.111184367011908 9.144721246387546 8.124802512990103 -0.08389946702813292 -0.5140216288724954 -0.13756893152713082
P 6.299881575136559 2.5029510744389514 0.11846478886711492 -0.6113646230000439 -2.0351433375794112 0.8670556901836035
P 6.830704207723538 3.5575286110957425 9.015040037375645 1.2571524606749638 -0.449232143200936 -0.002158698214215637
Ni 3.840906446201926 2.1865100152577153 7.525999662723418 -0.12355333397432915 1.7726103077733535 0.270561813647805
Ni 2.6794028143833137 7.429947281816391 6.916309167068197 1.7644154306673874 -1.1382798200057556 -0.9305714513490618
Ni 9.003849622013837 4.426849931284815 3.929066375474407 0.13095014065903254 0.7331377251454987 0.41837813393455686
Ni 1.1098005508001236 6.953075286491205 10.869164346516154 0.9506808205044271 2.2801843812482923 -1.254747450777897
Ni 8.720156014542892 3.59709303091589 12.692553788400604 0.7140421419666283 -0.6712127055059278 0.07707987300313823
Ni 8.268053575006517 -0.17406487236366308 5.269901776952458 -0.33534975665746763 0.9538589611220928 0.7094874327164103
Ni 8.439341508044775 9.164512743720113 2.7259160837127183 0.6166649521670348 -1.8225161914648613 0.11161673043774326
Ni 4.443920213826935 0.2869098418802683 10.87638160253546 -0.38513197028691737 -1.424785815687643 0.026579293150425193
Ni 4.8821193818913 4.048164566555544 8.549803324949679 0.3685306142848105 0.6773697262462592 1.9801710951085898
Ni 8.972848205732229 8.171529393036847 0.8644612119984892 -1.0435007299506416 -0.35414297810457074 -2.527673886457666
Ni 6.050792903874503 0.5462211790803604 1.5462406810443172 -0.8526775670850606 -0.6037652133862311 1.869465049410574
Ni 3.36266919977027 1.4898233043683855 12.675562448949675 -0.5795770461758017 -0.307410092824406 -0.1715748561589303
Ni 2.0236364869981083 8.410689809653894 4.018400234950001 0.21476733238600432 1.9082835649396683 2.6437954467442983
Ni 6.569170390320873 7.7124520992082335 13.764762567918092 0.4975513991316141 2.444501013182913 -1.0029726879296081
Ni 5.530557932929536 5.518474996266153 5.267536270443493 1.4290754442019322 -2.590533759206681 -2.5158375559443704
Ni 4.282969182023377 5.196387184209177 -0.03800691906807269 0.18063079571361149 -0.5893611221457592 0.1851263695911199
Ni 0.5831358972632572 1.0100350583803996 5.925346759519406 0.99510665491797 0.3517963322492651 1.323216699293889
Ni 8.508551380462555 6.327595243855648 9.429140201555192 0.2628752436368247 -0.34747533627640803 1.5277047612410721
Ni 7.783194396337357 2.042174182294121 2.7484529431342133 -1.1444671797633903 0.3266038921440375 -1.091580359066688
Ni 3.698567409074325 3.8292135812832484 11.931000932593468 -0.40610754409732 -0.07092825157944559 0.9616815424903051
Ni 1.3986115280647076 2.9830179431017276 10.794823173170997 -0.3873477469913135 0.5200518942269753 0.8808586575049668
Ni 6.5956209695809145 7.731398441093938 6.1050333087180775 1.1349013904518261 1.8099699793687345 -0.7596797373000852
Ni 4.773763023665559 4.842777860210985 2.600370563936946 -0.863827670164609 -0.8436900188744696 1.5308595048199698
Ni 1.0927209808355107 3.30028558288484 6.44369173998705 0.06977614025287338 0.5254663803743272 0.538988326120162
Ni -0.2175885203925732 3.828554174286246 8.591956149418623 -1.092920160924034 0.5639028299736546 -0.5147081134165586
P 0.3730683316055093 5.182214577484871 11.521863038251922 -0.2135941380135096 -1.2585480554709099 0.2925905113130703
Ni 8.522445364512071 7.88798438432579 12.040806128728118 -0.40001197272254335 0.5347627180745886 -0.3057589303742283
P 3.4870742240639028 7.313538728289226 10.769988605424734 -0.6459485316225004 -0.3753072708870117 -1.1759210273972973
Ni 4.449706278040069 6.385000802284834 8.819273244872607 -1.404035213403853 1.0941488911248125 -0.25170868549704395
P 0.35337156598237107 1.3399614550214605 3.5640790301800505 1.126019514581164 0.7723357355011988 0.5516846906409079
P 3.1853815918015385 -0.0028187327266231852 0.6522166745083838 0.25257617570366175 -0.044338159795742994 -0.30907822455544837
P 4.535819259395095 3.1082495479972367 5.607757774918036 0.5497288524661177 0.1458622818841746 -0.43230888508303617
Ni 2.79373098527205 0.651748588414737 6.530197579313529 -0.7183505395339951 -2.0679079336049417 -1.1259974030939768
