# total energy = -381168.38702231663 ev
CRYSTAL
PRIMVEC
9.31910541397527 0.00000000000000 0.00000000000000

0.00000000000000 9.31910541397527 0.00000000000000

0.00000000000000 0.00000000000000 13.63945276296054

PRIMCOORD
 96 1
Ni 7.095249994980143 0.09504276014926327 13.177866428073452 1.1721448481843166 0.19288261649777105 -1.166942735158087
Ni 7.902946178307116 4.302929170309905 4.044111520111992 0.6221974519494897 0.453413014051503 -0.28128459938194783
Ni 5.508812088775446 9.051218387246664 3.383306803597137 -0.08802300227820326 -0.31434358671944573 -0.8998303135114633
Ni 4.437860497263457 4.56695806424236 1.568591819381293 -0.33765680752408944 -0.28311059684709305 0.5596371127187653
Ni 4.24207541210791 2.798014798064023 11.356085698150293 0.6018589975024538 1.2605645716803064 0.4911097572713284
Ni 3.7014088746492333 5.396619378975474 11.312602752396769 0.10266929143646833 0.28421977075087185 0.5545139325595869
Ni 3.5195744902637305 5.487583166695179 7.386458991695436 -0.418206384243383 0.33897064123950654 0.884443803753064
Ni 3.513768687605255 5.8748851867372816 3.4321361201133693 -0.10484804425534203 -1.9573566683172352 -0.967973546146604
Ni 6.281170224460465 6.656842000974835 7.475115368920377 -0.493234259813499 0.05919116564817548 0.4203370574331406
Ni 6.213634667693258 6.610395579707033 4.153268065375639 -0.6416295925321723 0.23726628481946885 -0.5661875122427733
Ni 2.2262783632323826 0.5643426566145711 7.214411531791364 -0.22456040721702616 0.5553091747673726 -0.15244404886675036
Ni 6.040588199691291 5.039483303083428 11.548974405350377 0.6281331007076343 -1.2480926644655408 -1.5957752316567484
Ni 1.7257864891134915 2.7545877669428442 13.04365453605607 -0.1420305668429102 0.02552668351619475 0.45557736869267346
Ni 0.1331989052613995 5.903336415495427 1.6292191233222917 0.0950354290402944 0.10914358630690234 -0.11661186965948948
Ni 5.77202090143351 3.8096130073419388 3.6964147660702973 -1.7743128922867573 1.0434950735236868 0.10846970016832932
Ni 8.773835215289177 2.0645452891748595 0.7379203136238152 -0.46952843155612684 0.48110739464297786 -0.127008125292149
Ni 3.5830655552913253 2.84762039605931 3.2439936332888264 -0.48205895992296977 -0.07842867372154881 0.11600920307848407
Ni 3.5780052810641148 7.937259124356082 4.160796970620875 1.414212668157487 1.3136429395625246 -0.7047524891345862
Ni 0.08824447276666672 1.3030439112701362 8.692341502467615 0.6028396162481682 -0.3182634905991422 0.8704960833237201
Ni 3.9568455534113602 2.289834661997713 0.5818169111328806 -0.5118593311138541 0.21362087748638692 -0.3586053847512985
Ni 4.811798920175136 0.6430704589561417 12.137830968695477 3.6231037011774307 0.3122648498135461 1.4821653820483764
Ni 4.496235373431496 7.677088340055422 12.689110103373208 0.05639611940154158 -0.546916065607671 -0.09412345874898628
Ni 4.500428970857361 1.5670821243079818 7.970964464733566 0.7007901620527286 -1.3140517449651692 1.4025465446734684
Ni 8.453705306904041 7.50961469707716 10.507275485660143 0.16519157834040582 -0.39161629245968044 -2.799592985464314
P 8.753351821640175 5.776568624864226 5.397431073055014 0.2324963742346512 0.4954135268530049 0.1163827843678189
Ni 1.2952997346903723 4.632816182039221 6.859184940593895 -0.1921598793991336 0.45309959657614224 -0.5448661250571777
P 3.407437695096103 9.43317124079444 13.629700457215302 -2.0674901293412327 -0.8867284860221825 0.9568568674081522
Ni 2.5281241868407482 6.621830122021557 5.6654737056792905 -1.0536869264550242 -0.22599379722944307 -0.2485086905025075
P 9.062736801509706 5.643035163719296 11.667897373063592 -1.2821929485833596 -0.3374220658054641 -1.3186748455594774
P 3.10091368058155 3.0017863565394944 7.27782058869152 -1.2146048171207406 0.6680721029944172 -0.5982414553545246
P 0.5852864140698795 1.7058063271555932 11.295621478553635 0.3293691135940005 1.490280297846027 0.22869782642416742
Ni 0.8615345189907656 8.558014053543387 5.7674564036130915 -0.2629783448735923 -2.0753929291280775 0.9856663354406766
Ni 2.433786882969569 1.7084249957704107 9.332400026561446 -0.5556243920149463 0.21604208533336988 0.35689842936252086
Ni 0.7054758482057069 5.821691733166532 9.530663061840409 0.3574090504503522 0.14907564661514972 -0.2274050757546729
Ni 2.727245511726205 1.0716691626270827 11.73766299175082 -2.0038555832097233 -0.2577230100119239 0.009072651725229535
Ni 3.2295546113963045 3.925505401982063 9.533363738582665 -0.29276868876214746 -0.16126087582743195 -1.9326452816134843
Ni 8.332007109605442 0.6262830225051349 6.732911062548406 -0.056397147842806104 0.48157764941117703 -0.17305015515287617
Ni 0.3922103928514417 0.39439945070774324 2.440288822800738 0.8076608931650542 -1.574722010530875 0.536347031842573
Ni 4.122828139527094 1.1204453602425872 5.70430548593226 -0.5285442479687026 -0.24354003364332252 -0.391813496072151
Ni 1.976927060290455 4.4134723984557045 1.7160610707276416 0.6814865766281102 0.19843157134045825 -0.20177811921518796
Ni 6.775026895541098 2.325265900693576 11.919858957425486 -0.43817588538677443 -0.12623628012313096 0.33348364998300634
Ni 0.9636420929368026 5.020444370770001 3.9107038668898384 0.34484201241861906 0.26779196421215173 0.6485661717510056
Ni 1.3208713598827575 3.9127661849128246 10.92143703125964 0.23333146854143688 -0.5292513013380563 1.6348948233660296
Ni 3.855043646122142 4.481613697073314 5.364232692010789 -0.23552873330307178 -0.9283615881819366 -0.5978123382369058
Ni 7.543489645172757 9.388253152810732 1.8875232908131716 -0.7110586338582722 -0.6734822182663949 0.04563065335492141
Ni 6.128830808636879 3.1867426412309188 0.5069742438287391 0.4181475059809895 -0.3718090279257661 -0.34126020860463163
Ni 7.69601544310416 7.94333518107089 5.469502238415928 0.7012920413898115 -1.581293750211122 0.8255979372594491
Ni 8.713503326989068 6.3024550611730765 7.6638990101958075 -0.1859871749295184 -2.109207563684677 -1.598365103871112
Ni 5.3087868106670815 6.947467621692663 1.8586349960121966 -1.6498838405756941 2.3756270730293343 0.442883832385405
Ni 7.671627344296407 7.285844338433008 0.810157359060686 -1.0290570437214859 0.08048067115457107 0.12312447396702665
Ni 2.2093362296318886 0.3118219259292286 4.285243372099225 -0.9487535215747273 2.3339649174038577 0.37921303369932113
Ni 2.990733897545993 6.6403099080115355 0.7626392406729411 -0.1289459657448102 -0.37173343749282434 0.08644537337843823
Ni 8.229049633247762 0.5107745750071118 10.759509187899448 -1.3875816958335199 0.7242933873809912 0.7085914032647022
Ni 9.039830440459093 3.1139977045502487 5.718736120629932 -2.1226726880506477 -0.38307663041978546 1.19017830864726
Ni 5.70800796650403 5.6879346134922235 0.0038124460153807454 -0.6560043731966058 0.3423357010569975 -0.30403474859426993
Ni 6.172146010493368 4.98033494116795 5.819913647857966 1.2106651157467019 0.19512101890998657 -0.6019896095430471
P 0.4423294735537619 8.01597760759226 1.1343932652810138 -0.18127177173172007 -0.664770806535326 0.4688355192541603
Ni 7.0742540505346465 2.2798911765457177 2.47970677478279 -0.03140139712941689 0.27272076897233677 0.07424857420193019
P 4.728970711461608 7.253441808989158 5.7211367221786045 1.0533097456212634 -0.4702653097221514 1.838525422408924
Ni 5.235454770346791 3.759876941871181 7.421157748707582 -0.5940400156786673 0.31292999420137074 1.2426779212078727
P 7.17944811218612 4.891356122896488 8.852263874347704 -0.6628316805310843 -0.6472399967404143 -0.488831502760113
P 9.047285724771742 3.8443732704496636 2.0008119274071032 -0.970379327374619 0.7654292381893527 -1.1688278679959418
P 0.11502758165985728 0.9626169913438134 4.872680635693302 0.7361274039014419 0.017286040773957324 0.6568680067484816
Ni 4.836913909203371 5.611462034655228 9.203752572372919 1.6832981543700816 0.095374557547268 1.0087142183990758
Ni 9.097459788195868 7.625507091717284 12.614952390315292 1.4702364918212742 0.7419635509672448 1.4747153535282345
Ni 6.919929665262817 7.146225501467878 12.102900165959099 -1.2732897325564587 0.12422722011290216 0.518857616808558
Ni 1.8410824610086045 6.772296397661591 11.387469649374928 -0.07610002558837217 0.9020666590411497 0.015065636083870826
Ni 8.188725864221723 3.729142532292286 10.566334384163866 0.09413040072752177 0.7546776560998035 0.060331449900205766
Ni 3.2015786570130897 8.754321008600819 9.842883845480364 1.3221170384718068 -0.537880437767964 0.519719193477905
Ni 6.0199277430398626 3.064056618760893 9.586339125087271 -0.3268869706020951 0.06937581949066117 0.6527161893636371
Ni 6.808063124151523 0.8625540291205204 8.679193176671719 -0.228275137064452 -0.7538716152587404 1.2746585878795273
Ni 0.6213168712423718 3.601675808756775 8.871618724333878 -0.14214112427884554 -1.0361450609165188 -1.9901354054101532
Ni 6.847389748900745 5.4381453125969275 2.1183565994330187 0.9938900089020496 -1.6324695017539885 0.46039638734787164
Ni 3.1792034849697526 0.06505947046486824 2.2849085828881304 0.5656419241519484 0.11026844393996493 -1.6800824756462613
Ni 1.7931356637728821 2.8873570614457273 5.213339601343857 2.9386986653509455 -0.7616654002715463 0.21031700992413455
Ni 3.683916913830681 7.974880352818785 7.769891719179274 0.6916948846196798 -0.28860915806781906 -1.6861561926441668
Ni 6.02209909459592 7.678858970079677 9.771453834570337 0.09966135784807997 1.2806811399245235 0.1485254305386345
Ni 7.396778969005221 0.6736921073598072 4.339883150826627 0.10849309720709702 0.34253727554484237 -0.045545806950598976
Ni 1.140509394149003 9.098494208894248 10.527365613061653 -1.0140508001206407 -0.31027635862860753 1.0334091500425944
Ni 1.0948457777340295 5.0438260061955456 13.058003162626301 1.2449497479611848 0.44059786456470573 1.7243162486536563
Ni 5.31945718633956 0.2720992392008971 0.8655995127622373 0.22042633044399454 -0.18699504736874248 1.602026097662467
Ni 1.7020414085777054 7.374869752231425 2.8952326374115014 -0.5779762773475852 0.12276323397286598 -0.30575147417506054
Ni 7.756524394406695 2.7642516792331153 7.799557227369842 0.1937007415236922 1.9885174101907557 0.6548319501550594
Ni 0.6294058547215956 8.180562327899374 8.502534623420273 2.737875453849859 0.1162971666325481 -0.5012067364960142
Ni 0.25331285464356135 2.417385257481742 3.4031117663736885 -0.06446295557007609 1.361540534574752 0.6208699913873178
Ni 8.476024564315033 7.396965351113036 3.3253261255871287 -0.1053182990235412 -0.06918710051862278 -0.2705924097754243
Ni 0.9361414129285196 0.35070216553023087 13.539393666425648 0.9939918245872366 0.30936721655077687 -0.9105441003845415
Ni 1.8397405098323276 2.094524851217098 1.7772074488389082 0.26821233957902196 -0.657262671083739 -0.6993593431434729
P 2.7392392003641786 6.6109360878197 9.246417300673128 0.2497957847450472 -0.5108108352446816 0.4928095135712544
Ni 6.355797620430079 2.4264993425539556 5.971529901103225 0.18545624212671286 -0.8914184352986841 -1.2550762948722256
P 5.295236831428842 1.754657077614224 4.06978099591098 0.6808481717131629 0.16613594453154612 -0.3351355837641325
Ni 7.850945570226391 4.746024674326792 0.09620764832311464 1.4637480558834532 -0.256105786123475 -1.2086902514085185
P 3.532080729698199 4.336962543197147 13.137521225105013 -0.3177914360587301 -0.4741795571748931 1.0272135627548438
P 5.064803312430261 0.5103421685169781 10.16538826191908 0.9917549648369176 0.2998147969756514 -2.9547197233695504
P 7.986249661395574 8.199890152479915 8.141280434856027 -3.4068844668362486 1.279608732795951 0.11463803376257031
Ni 6.078069641573132 8.981828328506687 6.771237747289194 -1.4243289306558824 0.21215920533919594 -0.4368921335783444
