# total energy = -340897.4245469156 ev
CRYSTAL
PRIMVEC
9.04821175563728 0.00000000000000 0.00000000000000
0.00000000000000 9.04821175563728 0.00000000000000
0.00000000000000 0.00000000000000 13.24297251164250
PRIMCOORD
 96 1
Ni 6.499122312285504 1.713604609690276 11.31896712020131 -0.06233999568980232 1.0588070212904088 0.23800084899264815
Ni 4.7124895864472 0.18867330912137978 6.103262148205738 0.029428075453129962 0.4505246367601144 -0.9222197369502568
Ni 2.6866673859003005 1.6032797651613586 4.7781705547433875 1.0255495447888596 0.43834249287162574 0.15089547343270784
Ni 3.449558302131838 4.3713901040350684 4.973993760702851 -0.7170436477971135 0.519555414206531 -0.4781701663915249
Ni 5.060158070510115 4.64299027283885 2.8160251436143713 -0.13792682908718182 -0.21781537518370875 -0.41974724636794164
Ni 7.402939124813103 6.171857545471233 2.6455622652400512 -0.5406705989185914 0.06984890247233777 -0.3199516769348425
Ni 5.184480498446417 4.406216670638186 11.631726698935182 -0.14259749508997377 0.15341258342760675 -0.453574993550664
Ni 5.737959604477243 7.962046218484132 12.480614533058638 -0.9679951434131586 0.054596090078325325 -0.18369477935091588
Ni 1.9083945098804287 6.439666513597771 0.2729564957286472 0.1297512352549249 0.5421932062107049 1.0347350679428697
Ni 2.6526370619215207 1.7857821939441245 0.2507331831191603 1.1971318571469576 -1.627369975743894 -0.21910015543340333
Ni 0.8026668546018416 9.08205195173095 4.746969606544498 -0.7046771558119606 0.026509873365070474 -0.07771210727049842
Ni 8.56158072176356 2.3804125665145657 1.3898894563024538 0.2552436952334959 0.2748414148597654 0.2959000353022775
Ni 6.800898266909341 0.7948265792156113 4.754399093122263 -0.10882142708079323 -0.6708458090848124 0.23273985770402497
Ni 0.7808570452643118 7.4373766183156915 2.5058488293037753 0.3898676851996899 -0.11529546484091112 -0.09397433476563172
Ni 7.559807970019191 4.104875030173077 3.877171355320545 0.710348238054809 -1.196792214419352 -0.1119553447240846
Ni 7.4711535923685455 3.8290493465333237 12.700937581676262 0.2243380067935749 -0.26195581714634886 0.256997444699809
Ni 7.928685462166728 8.844210660556742 7.046982478887768 0.49996977876511967 -0.22955323244592726 -0.024320579023235533
Ni 6.9071152233536095 0.7543675008664721 0.417170512134757 -0.6235984460620744 0.20561291958024588 -0.23803195934089977
Ni 1.865334070684733 6.223007085873263 9.16844065718689 0.30045603010407607 0.6447743088087411 0.631791523395828
Ni 0.16839355237220713 4.946973991102896 1.4846830455509736 -0.1984608819164969 -1.0125068526722885 -0.524633857170703
Ni 6.366683638507946 1.9263190171396583 6.868507409106054 0.2863622710151713 0.6834051338070618 0.7652883417361143
Ni 3.4378227716345022 4.357591581283769 0.3924055568755388 -0.36748417529816707 -0.21945291078713175 0.17845178578442172
Ni 6.0324698451540035 5.691126061027586 4.822176532055484 -0.2338202352523973 0.6899761021563601 0.16750685673714377
Ni 5.444508004562387 2.909615320714745 9.08896930952988 -0.08814667234026109 -0.9818546750040702 0.19053005710519444
P 0.1743201309965359 5.495259423652249 12.5279710631411 0.0022036925195381405 -0.2069205826480759 -0.10426054718298818
P 4.001110139083303 6.121232801344332 12.61594411045524 -0.22065464440471677 1.18724288016802 -0.7301087085111877
P 2.3580453873399994 8.524872127139282 1.3337787814581026 0.36279731134545906 0.1347026657229293 -0.047686250332369486
P 6.561392104793336 7.86990827935201 5.773366161446497 -1.5264135532334744 -1.059255678792053 -0.13566914340125666
P 4.75895215321961 1.1261042278923097 12.675100413337683 0.0403398372696273 -0.2768828707698264 -0.17358623016200428
P 4.103915919739216 6.153562061534754 8.198565565937708 -1.2026394172287482 -0.6366223691255681 -0.34429436744526515
P 4.712589116775243 1.1207024455431125 3.852393732565031 0.0706829683378589 -0.18193820167112537 -0.10297936647771942
P 0.28538421441645734 5.5472775923717395 3.640705392315647 0.45573240621329897 0.9206814459288596 0.34225419708678473
Ni 1.429707921267467 1.2055656225165163 2.600046141405206 -0.03932245174870647 0.027638073432242723 -0.48623443145689804
Ni 1.932526090324833 6.7277072829517905 4.767668295492611 -0.2916014079269236 -0.6666507971668584 -0.3756075757362499
Ni 5.8932631090695775 5.465273650276639 9.27817193903221 0.6935257671808314 0.6584335514633887 0.367581877218296
Ni 8.849630539329219 2.2781044374988624 10.11741890365304 -0.5291075766713403 0.18245525051685998 -0.09993749432760209
Ni 2.309474587255424 5.445629982805771 6.87593689568382 0.17679882356203097 -1.1128960898253284 0.632900954409923
Ni 0.26839710188315213 -0.0957355080802643 9.258175391307375 1.7640382498336264 1.0308298193511924 -0.6523570062520055
Ni 1.5121371293096582 1.0805283858606394 11.456972253779915 -0.1929623206957709 -0.4769684327739399 -0.5857546357414235
Ni 4.12802940376034 6.856960986231999 1.6788775734152013 -0.6757177924651331 0.5433172925128191 -0.6578619952306347
Ni 5.536636895482869 7.757882371034736 8.02800858616233 0.5378979212694607 0.8411973343596029 0.40546014032130817
Ni 5.2515277467002734 3.02123405950821 4.832214618049118 0.43587886182248164 -0.6519062918678321 -0.020650586370816047
Ni 0.7662378497172461 7.335801394442844 6.850325027815079 -0.35236274627569636 0.4782709536354472 0.14131348617122758
Ni 5.074644257346071 4.490817449474024 7.020311970257125 -0.16510904592892853 0.019771269089656273 0.11240863021141931
Ni 8.186188517235083 7.0179196230994565 9.341897588792952 -0.5364259647096246 -0.9948099496131577 -0.5377212864822803
Ni 4.638221865304466 0.3575735613454379 10.44820161515302 -0.2713740251364552 -0.9231540758390683 -0.6987155389118869
Ni 8.348413903732167 7.299291860474651 4.664757555581671 -0.3992002754545254 -0.34396346646840764 0.22557470741415347
Ni 7.166961765236775 6.102150122995157 7.0102603119460305 0.49823274146935487 0.22780411096530448 0.3743958148163358
Ni 2.3852986008002715 5.284535622763711 2.5793736922708486 -0.22174119260067615 -0.4868715508202648 0.3586493506153565
Ni 2.354525633011963 5.240850856964841 11.398319031464668 0.05612512512834205 -0.9736191744681554 0.07680707895772577
Ni 0.9468229624534541 3.4703963335392105 3.8345027036888704 0.5741201368262887 -0.7753426406483228 -0.5142684547759788
Ni 3.6539754995071596 2.7269771687573763 2.4816801511916458 0.2605717923146287 -0.3015757455308161 1.1859146482748995
Ni 1.0570573248659694 3.519763376248123 8.266117704401088 0.6255077472696453 -0.37392530293782056 -0.6247621273528723
Ni 3.567157908819473 2.573211860143875 7.17962473742723 0.10201288879939206 0.21060985857420503 -0.3282632821243314
Ni 4.152007164606862 6.809032609173878 5.887666790170116 0.3500718933589907 0.6186105059291799 1.0649043924373982
Ni 0.8727660646419368 7.263895256538202 11.379434508950414 -0.25451170216347785 -0.002453089526182872 -0.15346374838051635
P 0.1768463916864788 5.566333126085994 7.996279222403652 -0.5499489388967238 -0.02435554602622902 0.04592478755657252
P 8.543755744832373 1.6591434238279326 7.934884391961426 -0.2741598154117085 0.48215126252645996 0.7845183936103198
P 1.9074534958698481 3.1721582296666897 10.494605368549768 -0.3892292802847426 0.5607923093691309 -0.3105789774706909
P 3.9688532645860017 6.261425792497539 3.818703621343923 -0.1635149619689313 -0.19421753325911068 -0.23320419893495323
P 6.952618679692158 3.8496521244380517 10.457141248253533 0.21758680411267042 0.06621079149911824 -0.10160742583085727
P 6.335802092179955 7.7979478521775265 10.283697888964934 -0.2782535258651079 -0.47409033989519644 -0.3993326872673316
P 2.6229951205882367 8.602849615054497 5.821107240523666 -0.8467074655445547 -0.27078704228473366 -0.028405290615570435
P 6.90258206932187 4.133594053919062 1.7941047390107774 0.29777308395527424 -0.6796783197747778 -1.795005130528786
Ni 5.226726598594494 2.9265807175401135 0.6312738200709094 1.099084894973849 -0.3892210527546265 -0.36748931750448965
Ni 1.4566173026854117 1.0859482646331173 6.9779337662191 -0.25848071411355483 0.12126093839572663 0.3286224652359631
Ni 6.889254053575861 0.6867936466951557 9.168043440695886 -0.5563813247856289 -0.21157890735569365 -0.2761765887314212
Ni 2.489633529223379 1.5082554465160138 9.197826534130757 0.5947920633533434 -0.946665528697447 -0.28398014393624
Ni 6.372365915417989 2.1074732623880346 2.71674273657115 0.5291911375240822 -0.08938800094652993 -0.45599645850796305
Ni 4.2499540556119895 6.911078340052015 10.517634876816395 -0.3988614040578679 -0.15784465105703138 -0.3723312189778233
Ni 8.039408428007812 7.167649429321431 0.48873553246056406 0.3961486331123951 -0.02418276789379061 -0.71757252371739
Ni 7.58597539808264 3.8858992602686793 8.254132443262483 0.521022999890993 -0.3185560821388965 -0.5479360222317531
Ni 2.985448382471233 8.349526833763912 12.335854909490626 0.954463170364995 0.09309424615352355 0.4808857655504751
Ni 0.06555881743904457 4.761856629156113 10.296609686975494 -0.14576020908867157 -0.11756934847675235 0.1289341386702683
Ni 8.687812322355944 2.399440955593899 5.811929639457015 -0.123445090531239 -0.030453174283534647 -0.21624905913785336
Ni 3.88549209074487 2.4950353115725763 11.08655294636889 -0.4301077636666592 0.3882368344644862 0.7387962089828567
Ni 0.8965348117995693 3.2445258263649825 12.551900868465928 0.023139671341256923 1.1616668314711283 0.034197986037947554
Ni 2.909144813709455 8.09078417370085 7.9629591830386275 0.8062254462701082 0.569308060149626 0.10933281949957299
Ni 5.702210120286827 7.778141316897136 3.5496333325147402 -0.6930341722563936 0.8220850390101841 0.8794301525885565
Ni 3.080273640460493 8.48610054026104 3.4693539795582597 0.47621664220957993 -0.05094486647898323 0.35011457367146803
Ni 3.5739531157612605 4.349212937304947 9.309518563438509 -0.6006526358991785 -0.32005683505413907 -0.07505847169773525
Ni 7.352468200284086 6.113333712582441 11.558148451519429 -0.4842860494812756 -0.18734188918519992 -0.4760515773866253
Ni 0.5416938103694707 0.005997154675122316 0.2731483178154194 -0.1846363173285788 0.04145903847573505 -0.02007054549762995
Ni 4.513392737516314 0.4671826923336157 1.7217986701516381 0.0399621422152344 -0.33323065343193575 -0.9719165899547519
Ni 5.870932122741573 5.6299601503398575 0.3411691536417615 0.6790337442122435 0.19401390188873682 1.1335618457047962
Ni 8.060146929087145 8.659527612768688 11.313537288396027 -0.502415669202451 0.650054583371074 0.8037978106652222
Ni -0.009926792990459704 4.8634409012406 5.828444435342702 0.4437860324847002 0.2572782091650214 0.08682229710188273
Ni 7.887289893912828 8.772195944112417 2.364387278878613 -0.019307442079360294 0.7626591316433834 1.0408445232747172
P 8.521632867372091 1.526677605415454 3.6875190296996965 0.1475733510380104 0.6515131701944715 -1.08606200035162
P 1.8809693803989929 3.274511599740594 1.4994090099953936 -2.258161854230614 0.736805403805073 0.7202400432472241
P 4.70231939656362 0.9239219387921164 8.181944905975831 0.1640698060311368 0.5716963578761445 0.717522644316061
P 8.472636801340427 1.598095139891526 12.261615237803976 0.18559173926331263 -0.2356945694569747 1.2093875345858591
P 6.110935936497788 7.7082891230348185 1.434451898630422 1.3004464954769088 0.5569009447345247 -0.4504480178859081
P 1.7955995035737378 3.2807458175606894 5.980950232895888 -0.0748350428330195 0.22135629845743168 0.344641980592671
P 6.916163434993806 4.037918264035623 5.95245108069276 0.0651412125840233 -0.6840206559038735 0.9944057721962035
P 2.327770071191902 8.316356089890952 10.123457680101707 0.00867284518364958 0.916567423760486 0.26375687491082966
