# total energy = -340869.83147876465 ev
CRYSTAL
PRIMVEC
9.21703643828327 0.00000000000000 0.00000000000000

0.00000000000000 9.21703643828327 0.00000000000000

0.00000000000000 0.00000000000000 13.49006449974964

PRIMCOORD
 96 1
Ni 5.102957029368961 8.818501185556197 7.837066516408296 1.5016929105583428 0.10589988255862408 2.1641222134446862
Ni 7.21555712775988 6.184336635241477 10.874003585416048 0.6528532291621337 -1.081523746161634 -0.34114785139648346
Ni 7.41538248195268 7.497432542055278 4.380641832774454 0.22910354650301834 0.0341211100534251 1.0615123360367138
Ni 5.765956908418617 2.5617462934930955 5.693913784987935 -1.6711854302669478 0.8850906933084434 -2.6426878155024167
Ni 5.305824005650489 7.5391304157807495 11.198709647239054 -1.3361840580878344 -0.4976670987738719 -0.7820192813375499
Ni 0.6295097764454342 3.4477339397930487 13.521901520313207 1.4159849295665614 0.6842715955724151 -0.03710667504431029
Ni 0.77122908829957 2.01416214715572 10.269905178966443 0.19927257918451485 0.9539044696480473 -1.6726586723783643
Ni 9.373173233063973 6.1957934117756865 9.481869746071155 -2.4239985223541867 -1.376100691777114 -0.8631393858483328
Ni 4.048435868243575 1.2896846337672265 1.9271634600851282 -0.3409208229873419 -0.532483949342741 0.36275026015760753
Ni 1.06434652217564 0.14970403068887875 6.831840832304559 -0.21673525474565256 -0.3847465619230406 -0.7936450385019365
Ni 2.4273065971713152 5.601008820843231 8.417746276182022 -0.4062767226853326 0.4850113576830743 2.5971317241391727
Ni 4.2522429822616195 6.290111347636154 1.8046330967962134 -1.6328273993140396 -0.12452623941055972 -1.0090320067498106
Ni 5.85335284976807 6.822929801288249 -0.03220432599398738 -2.281568920300645 -1.314607103248007 1.1857503547828934
Ni 9.338056323494113 6.156593354977625 5.506523134916052 -0.7870612146368317 -1.297123858861579 -1.7532157052968258
Ni 3.062793621872932 0.08915178682794589 4.78012386938968 0.8807293310159542 2.8381459060368477 1.1683475859254138
Ni 4.402323989748768 8.383060723926564 3.1018250069006186 0.8712648431689447 -0.2240346166205432 -0.6920651234749049
Ni 7.328972763522906 0.5774501101376953 13.026775216266097 -0.047391601910086116 -0.26719341139620434 0.7454036869970454
Ni 5.377468031394984 8.537335483081502 5.370016978981263 0.1253489924221712 0.23446095416018978 0.3222330167698515
Ni 0.46939233776914646 7.06690476095077 7.4345631351849315 0.47123435850364004 1.0551288011078732 0.4504554740850758
Ni 3.673883150608296 7.36024616881701 9.616271652542741 0.11103823222645393 -0.7929549544134472 -1.0147151731775168
Ni 2.5269243290954755 0.9862137026418589 0.022405694349966778 -0.854420003697464 -0.2268929120049447 1.4334406631491634
Ni 6.92354297316872 5.345448046133647 5.847835531639849 -0.5890854998868694 0.685213133550078 1.4236100502119868
Ni 4.667359878116572 0.15201289836532234 12.406731336442249 0.7447848224661238 0.4804414789242048 0.6125792121334354
Ni 3.413492648703277 3.4136585553626624 5.031092716448949 -1.1228328893230664 -1.5891767525036244 -0.5976225908236029
P 5.867971069867229 1.773809482889776 7.576236361855905 0.4912593954753152 -1.1620645811301793 0.9143179656046769
P 8.343510419736466 4.840354438672139 12.990595582372507 -0.6481306268754838 0.5872404762583306 -2.750745882054624
P 6.7340130488944325 3.38951913642212 2.7132835927681804 -0.12723901035603247 0.5079301712627768 0.9419917773708615
P 2.010410813246289 2.0214067379488725 6.305674313990146 0.43863354174948327 0.38918582864131684 -0.5140182864383858
P 9.397506209773796 1.5225161961410432 0.07555850120232122 -0.6752351964017597 -2.6004661878290443 0.8230636008733695
P 4.645552369444055 1.480726152049246 3.9699371323554837 0.8447061188438099 -0.14834108244197033 0.9644660472139776
P 1.8263373746584461 5.919992024621111 2.032642305603901 -0.6363660301403878 0.23778487632710016 -0.657974609549099
P 4.8197820129083775 4.700246264821365 5.78203049860205 0.45540690455308025 0.5229011907503124 0.8958990967778572
Ni 4.1892445368784195 5.526765590768369 10.850706603623719 -0.5622323842497672 -2.20991870295351 1.2384777670835962
Ni 5.007662087625447 6.709975017356848 7.069455114986986 0.1334821630522669 -1.955918393208812 -0.4783118341757117
Ni 7.99266392032 0.3279449284956695 7.798390908994623 1.0388933130856173 -1.3980687114077728 2.1884065399133474
Ni 7.209566053948748 2.7353030932832447 0.7879017858641161 0.029545060646968473 -0.11091816170882188 -1.0564866006873483
Ni 0.3297754319708858 2.246237912525671 7.589146665067061 0.8772974225162699 -1.3728788424057066 1.276892876526685
Ni 7.4109583043690765 0.9696046026300773 5.872333493305396 0.19587306658466266 -0.7153870860302969 -2.4985931670416264
Ni 7.396137309464001 1.5187556451949795 3.494803502467947 -0.8829674763178536 -0.32145628650482705 1.3769355289735836
Ni 4.728929682821734 2.3144716347161367 0.04105544627218602 1.349873639759785 0.7588502994202544 -1.5009745443350795
Ni 8.891159085330269 9.561477291466137 1.8792468517437022 0.16750659962682765 -1.4578861977860376 -0.3698678450389953
Ni 1.409939310711575 7.935868540590478 4.746789534704548 -1.7913274245668827 -1.0588623000083763 0.0374602017289871
Ni 0.4812177957686558 4.42848193971183 7.359127220569823 0.3470583033436475 2.2843953340058465 0.3945563489246108
Ni 6.42486442320344 5.288735619733817 1.7359956684012432 -0.06754313715729657 -0.19190611151711465 -0.868608379382704
Ni 7.618424581930228 3.1777853709001174 6.98958027552966 -0.8800503026710585 0.17244106081396754 1.2153126418210423
Ni 6.455824449252038 4.000378239241672 12.511279261261137 -1.333606527168645 0.5648130004927499 -0.7061750805137258
Ni 2.8334092311996737 3.350982706261599 11.895579370802194 -0.3104707340276008 1.1720255489976332 0.750397540667211
Ni 0.019919859570179024 7.076361440535724 2.8531078818906725 1.0723130261966436 0.49694590433713126 0.7066623045627893
Ni 2.5768161483872483 7.839919189246056 12.01987664001356 0.5319314192733806 -0.33302522228934905 -0.45070435687108834
Ni 4.509241614685876 3.874316829218843 2.7028959924833424 0.5946578517683243 -0.3827932948514117 0.814436778436307
Ni 0.5068992249378164 4.231827246120612 11.148674963879477 -0.3220350418264325 0.8400760762709663 -0.2542206532856202
Ni 2.812514209153775 1.1951547060642116 11.289929737087336 0.8058773189020701 -0.894515329056453 -2.167903534863989
Ni 6.817390362272111 0.006422431125532457 10.595542161489332 0.039201609900126035 1.296465913562606 -0.6911618949343452
Ni 2.643648881009573 5.718231092735484 4.021024401298493 0.30025085607180546 -0.18859915863106874 -2.0453812132573357
Ni 1.3957082061509807 7.757666354337545 0.6201001037473055 -0.2706749421869016 0.03385525798654814 0.4304980571265424
Ni 8.013512857182736 7.3817126471341235 0.9370371253927692 -0.9229833545891589 0.7487150107584655 -0.9004525204764944
P 6.328472654100658 7.354328831298939 2.581337104855494 -0.03124301717468168 0.37393635868141406 -1.673931368443201
P 2.2009453945135204 2.170160492160939 2.307030721042712 -2.5134145483251746 -0.3697439178666213 1.1540507096867674
P 6.086230497325049 2.111825867313788 11.141728083369555 0.268360435121112 0.015150225377877134 1.8005599989087442
P 7.07484062949136 7.8353475390763325 12.24265241542131 2.989298746896 0.4053182154268052 0.42813829864511427
P 1.6632879966293572 6.074193047482992 10.790513824191454 3.2405592891120323 0.47316602830871407 1.2515834512276187
P 8.811219726616516 9.181246879265233 4.2266528017551215 0.8436833340062502 -0.3509992902692664 -0.42792078331766953
P 2.5834063295794922 3.2767855613698993 9.788566640017901 -0.6318887110953246 -0.14109622795409896 -0.8861916396821059
P 8.891113000147106 0.039826815289072545 9.952228029279388 -0.1278625028726443 0.2375856158321005 -1.4367800119350416
Ni 7.2996072848117315 2.0243654067079078 9.12933376383995 0.6333264719831156 0.9245399004430013 1.7285919932108746
Ni 7.681644236192608 5.131059774061481 3.750413127471684 0.7616669429334431 -0.4969487325506087 -1.2391899626592724
Ni 0.09667104531274695 7.185057953542906 11.82607922777842 -0.5758697725275437 -0.15672030764460104 0.9399770609336779
Ni 2.9096156900772603 3.6248485157233468 0.9828485625673299 -0.48967662436922765 0.46488219103336714 0.22267064639348103
Ni 2.415130891779771 0.9974953554800503 8.713260139582545 -0.14265354513888978 0.3235928732318556 1.0198692065746306
Ni 8.972001713634008 2.612486080155059 2.2423722873619965 1.5510832880660124 0.4946169990936385 -0.42672393479609094
Ni 0.6999251712068152 0.35322725997864235 11.844613766742732 -0.4711256008399176 -1.0807932957535127 1.018438387665375
Ni 5.432466088981166 3.997649996398449 7.807402405710228 1.1314116321310128 1.2712919854001397 -0.4573609429556575
Ni 6.238514376567367 0.748462086113609 1.7126719572026787 0.059166997278459386 -1.3914452925539842 -0.7286187542292226
Ni 2.0737226378749947 -0.23336338538751236 2.5670645236300533 -0.3488164236853347 1.0488475960848518 -0.17541659850252367
Ni 6.342132302390037 4.113867611297758 10.076943751953872 -0.12412283332455398 0.2681742872522349 -0.1253649332617712
Ni 7.097938523292429 7.572772599489408 8.70558419147499 -0.17848752411836358 -1.205276597741279 0.1454215948023302
Ni 1.537263454753058 8.140154940513414 9.637397100504453 -1.3383517551631143 0.6742630622964775 0.285109886665309
Ni 0.5489362856113646 1.9387944386116918 4.55792876728978 0.33260716091532394 0.3794657731400755 0.4452147945114268
Ni 5.161697203827941 6.007360314860667 4.023641117998462 0.12212045818254451 0.2025754183055027 0.4545514985313204
Ni 3.2325714366437523 3.5607440259442447 7.690645594167917 -1.9931934755101868 -0.9785996584018825 -0.48595675231547925
Ni 2.51408499706639 5.4525592288400375 6.238197310507208 0.054750870488634744 0.28665589099619015 0.14173823241347205
Ni 1.9556984837957139 5.438954882770453 13.356162610994755 0.36659251672183313 0.9380255936342619 -0.906444219283555
Ni 2.814569608322825 7.917987489523411 7.57626309126214 -0.01236777753673354 -0.015334059253909073 -1.9856223480311481
Ni 0.7803078693825918 4.234297411938124 3.495019181125148 0.6847616478349562 0.5849128565664184 0.742949826139914
Ni 3.8836076021444117 1.1635955726344998 7.027446627126998 -0.7183999047146918 1.168789815669155 -2.215538620243449
Ni 8.277203058202193 2.341090436510824 11.799219861327625 -0.8932652586994357 0.7883475375484229 -0.17687929909097924
Ni 8.923796612045983 5.214741249648033 1.3749071978787337 0.6724270375290031 0.01664377920426811 2.0587553205713967
Ni 4.625781825867323 2.4724147744508156 9.566641597091332 -0.62449730372726 -1.19531331588098 -0.15794698096285056
P 8.318781110451443 4.141177690839883 9.148192742493729 1.0643027542976573 -0.22664505766019674 0.11420043200451944
P 7.677745429697056 7.703672953744305 6.526304363269847 -0.2569779043157832 -0.11237109210526454 0.9857434685355153
P 8.674245345220795 4.012894974988619 5.465621613155629 1.4865054041846268 0.23900537899776259 -2.057770588060624
P 3.4831273604618844 7.2333460084606225 5.252424182216384 1.0921334033566803 1.1188744188959505 0.8897130225718033
P 4.312798912937206 4.494144108681826 13.046592766729654 0.7963400688355963 0.9662840742593228 0.010377743689898257
P 3.736070496767836 8.130836516477947 0.5015008065821557 -0.6707486213853158 0.20036581224869363 0.4227662356999235
P 4.266842768287515 0.07937527607184329 10.006835284512352 0.08335130783414678 0.7560025455588141 0.31759397533594336
P 5.54032385165479 5.979358957571104 9.105604503029555 0.13278925075030035 0.256695597188674 0.5991662811616391
