# total energy = -381171.7353024195 ev
CRYSTAL
PRIMVEC
9.22924127320441 0.00000000000000 0.00000000000000

0.00000000000000 9.22924127320441 0.00000000000000

0.00000000000000 0.00000000000000 13.50792750933546

PRIMCOORD
 96 1
Ni 5.1337191858912155 6.274241106690286 13.365850565254593 -1.3298195493223872 0.19461116915310353 -0.3004948537618115
Ni 5.198905315402402 8.583452591962239 4.131345159696165 0.028889943561472824 0.7759157395429734 -0.7001000779642395
Ni 0.6293096446148215 8.589673100427557 0.07235909565249901 0.5384118847914018 -0.3676176155522379 0.7799168902825665
Ni 1.0875368479513114 6.080519337124974 0.2901553404875157 -0.7971610220749948 0.755070520662848 -1.3869450906907856
Ni 6.645367347650757 6.335587871926142 3.873803188294544 0.001179879240714097 -0.8372792302521193 -0.07841196155100044
Ni 5.154281934942741 3.835091136725145 2.5580096737061524 0.1885359094933011 0.015537690624282919 -0.377981218174749
Ni 7.4190453953349165 8.28073348563817 5.357486749683296 -0.5722745989771177 -1.350292215354442 1.9558710849106444
Ni 6.2415972811089375 1.9388512713183381 13.48503144658402 -0.011267345383703177 -0.5050425653023366 -0.7851310874936543
Ni 5.5367693716314115 8.78746496529436 13.07695686201813 -0.2705232471003857 -0.5394115297005097 0.7479228538744731
Ni 7.788778020897372 3.2246045292245893 3.406050485273997 -0.4981823478473936 0.6765508298893896 0.6499026311742421
Ni 2.847931514395192 5.328410025766406 12.40994853650081 0.017475016856311837 0.28747041647768556 0.0890288178348983
Ni 2.928613539623394 5.2992087070953895 1.3045578365384252 1.382231230154884 0.8125552451428779 0.27107629139037825
Ni 1.3853736857618004 3.1184590279491897 11.414481674304934 -0.6154495917026949 -0.6814390112196265 0.4722144630287222
Ni 8.935326636099783 4.929900626621071 7.596223750324437 -0.4295282370141054 0.4048155647587738 -0.5684914777856015
Ni 6.619377804863911 0.6815554552547581 11.033990522454614 -0.7809520164153002 1.2341161476807907 -0.13076065035604578
Ni 9.06881837859586 0.3754519862389501 10.42317627689691 -0.9018923382468146 1.254379268805201 2.45328030203744
Ni 0.648775036905922 -0.1891865205150782 8.53041768121283 0.045756123189192165 1.3037231093456514 -2.319868844322108
Ni 6.927200681486675 6.132784529171109 6.376754901613902 -1.9190883688646563 -0.9540607927202536 -0.10413584867966581
Ni 6.9657973675429945 3.570294981861003 8.927524235719101 0.20740395004239762 0.6526220869879341 -1.1930317189356552
Ni 9.202024014619498 1.4094896926162148 12.84245938258543 -0.5202233868078331 1.5780729292809788 -0.790245268791768
Ni 1.943253619297502 3.457458280826915 0.21340404902100374 -1.4244153197221017 -0.7970052132234209 -1.0858290584052073
Ni 1.4650866406801233 5.865404186813956 5.9003027159829555 -0.3530975675591919 0.5580957363735743 -0.8430780963220834
Ni 3.0984500333604523 7.771805446612921 0.22357928727473197 -0.023755450548384894 -0.6167999350830022 -0.6457672688496298
Ni 1.6566672263226545 7.799770046983712 11.671632325886184 0.16471232471114217 -0.5202933208138201 0.5392711474679035
P 1.2931366507434239 1.65978670979636 6.715479123108442 0.4618418615451465 -0.7724532349156698 0.3179055930390912
Ni 7.654354125055601 6.277628238154339 13.060045200724586 0.21505272483690707 0.7594215985426921 -0.44488723596867896
P 1.9669173933406396 0.8944122102817066 12.312272709733751 0.36425178440379846 -0.3489966580169409 -1.0998014614248994
Ni 9.218092123281394 2.3937144162933914 8.62756744124024 1.2121270450042092 -0.1637713009541115 -0.6114646389130179
P 8.694240401484011 7.139611664171079 6.821584015723238 2.1262282666123897 0.26766906548104225 0.28940697137876603
P 2.958423988203477 3.3262830778335 2.2726276966878682 -0.5706483762276043 2.4712299445373245 -1.1734142018150437
P 4.551464826751799 6.846555573222659 9.35861654745488 -0.4816416698798931 -0.48953675635725363 0.5040393208488029
Ni 3.6243967928753835 1.7063113139115926 3.1479418384721236 0.6138753052370396 -2.778200378721151 1.276891333864788
Ni 9.36731049252065 4.437031467016673 9.916547241816337 -0.5714387333393836 1.140142070025475 0.26554687693171686
Ni 2.1321761835186517 1.2292703027018828 9.93687741399349 0.36768626400664417 0.9002859129916431 0.7352995086835078
Ni 4.148506933422068 3.56675095329916 0.2684389363051823 1.6907479257799074 -0.4980129121490649 -0.8617653883189417
Ni 2.4684989564929016 3.6347889182937037 5.595415660937072 -1.3931782160846908 -0.6533584509333263 -0.08854082245488623
Ni 7.154553805425308 4.468872348626979 11.23262501702896 -0.6640344425899337 1.688275295869699 -0.5449162615688228
Ni 8.284166763307455 2.2297384906208384 1.3483108995674042 -0.24338910988775506 0.3686159749097651 0.05260194246643198
Ni 4.957782163822444 8.875133525994736 8.893186844405726 -0.231058356236544 0.6439227594417233 1.8741105186023854
Ni 1.4622624929199048 8.348531490365506 6.208946072134752 -0.7696751579499003 0.8270742646946595 2.0276565422840624
Ni 7.129311831163224 1.272315482942598 8.357637982506054 -1.0900703501800648 -0.3183642778430646 2.2138640607545033
Ni 3.2202114104864723 0.447571121624241 5.477909886857578 0.3954842600555189 0.5446902616009457 -1.0923917992243897
Ni 2.7131845951167954 5.1819142826358595 7.6626955131133965 -0.43860731649723816 -1.5726748981938592 1.0902171601705741
Ni 6.208833475393985 7.75337465224313 10.669020185272133 1.7092691245125466 -1.5751200173002422 -0.5543131294026905
Ni 8.765333245264936 3.9869675273857816 12.862815396637513 0.7298168883023817 -0.3754124290063083 0.8844270915825154
Ni 5.959182505087092 4.266345883103339 4.81735926130047 0.8489749214224926 -1.0949690730332624 -1.6175033673624595
Ni 4.421129484693613 6.387022432278095 2.901854278133272 2.0426805264967207 1.8319449409779291 -1.6426598120234288
Ni 8.643728765236705 5.030047121216269 4.920519103097339 -0.1832738897634134 1.113315179640618 -0.7253668229508282
Ni 9.197040224454406 3.0590319448509984 5.7751117528840705 -0.6063597135862847 -0.8842584272151351 0.9086849356886156
Ni 1.406102561152162 6.380478900376151 2.852468609293635 -0.9920277588823302 1.0809766154089127 -0.3452909270305795
Ni 4.948682132150629 2.21116925763535 9.154065186445644 -0.12466430765032079 -0.5679476894669896 0.11033529262215837
Ni 7.596680597756238 9.277509977138541 0.5606966979030829 0.5894202575184687 -0.5658671527888771 1.0845077684906226
Ni 3.1507890593349583 1.193174740969156 0.5644179278930177 2.0959658681834226 -0.7832441548835866 -0.8095401124656381
Ni 4.2191752321148535 1.0781414805660097 11.742994663505666 -0.4290052746310999 0.07318825125821589 -0.44125143898830455
Ni 7.244022068129744 1.0732776705345224 4.323401051252589 -0.05330153963661788 0.6920021314474534 -1.219688659401551
Ni 4.79159122029874 4.8227491380716065 8.702657469318387 0.5916823140797681 -0.6416306209734368 -0.2640101285722163
P 6.0972334926601235 4.125895292858227 6.870294104118274 0.6154516485852239 0.7047324345299282 2.476840348745567
Ni 3.031251929301137 7.35038907119026 4.489711051985793 -0.49544926518694676 0.3795956138497204 0.8729918531623805
P 9.076607858039077 0.6900186692943671 2.796397278239938 -1.5203871445337365 -0.8667389302741332 -0.11584413825552953
Ni 0.5197225593531944 7.9461827269448415 4.367409764258555 -1.3677422925100897 -0.48717828342740616 -2.237160826498915
P 7.827660813426131 4.835956182009098 1.9485585870510105 -1.568491456240131 0.7728463565890302 -0.6446789208814574
P 4.565114874259521 8.510809235685509 1.6232878302299028 0.32575285699765194 0.197553282500563 0.7775257643425706
P 4.904132585619339 1.754829434092862 4.895192219817629 1.2491136495308874 0.08729795118672062 0.3572853803882943
Ni 1.0077408298635706 3.2372670479403407 3.6677400776018994 0.7555834557435246 0.8577837779633743 1.1702275765569459
Ni 2.4138803079799183 5.796157191242326 10.11878852379164 0.38024327473604835 -0.3730920084032478 0.481559651689048
Ni 8.381479880901388 0.7381103985392896 6.6245304901401525 2.9331162861671616 -1.0250175835447894 -0.5265449581504866
Ni 7.520880841041617 8.294097426673453 3.204931479009944 1.299547123591091 1.7236189654763154 -1.7735253633884551
Ni 5.291419227652172 0.3298198497329106 6.828648999744307 0.20059232643720293 -0.3050469919088682 -1.8030614251743595
Ni 8.668610799097976 7.164475239550257 1.5471844314848526 1.3328364817718399 -0.5121349533727438 0.8840313988059936
Ni 6.458696718244946 7.179472756250764 1.5536005998603555 -2.1950947505668 -0.24939057888682853 -0.2008268110455122
Ni 7.040000465556577 8.186327578973874 7.933192570171942 1.1138895640868494 -0.6039799005001986 0.40866939128722524
Ni -0.22920912431307594 7.3573848359034795 10.121138288562069 0.05596520251171007 -0.7669220206847953 0.9019553302742659
Ni 4.281823320338262 3.0085018501215997 6.7947573807734765 0.3528301728304182 -1.7495423702102966 0.6289522541748201
Ni 0.6406339233788347 4.373451225447572 1.8860987753449503 -0.8329186392905785 0.5385792636072015 -1.1812735499584623
Ni 2.555207676124445 8.137449518391792 9.636204430409421 1.035432094009894 1.349475890100734 -0.0568378349246505
Ni 4.156850167328073 7.84241836985943 11.384467259497724 -1.9279949273256667 -0.6841073020804089 0.7507369262845006
Ni 1.4427149603834908 1.7529189811962436 1.8330933981668895 -1.371181914319258 0.01736188831721526 0.3695369440621378
Ni 2.2203246647534436 8.709542483139051 2.2168941558564725 -0.060113163241812595 -0.3486050790054771 1.1194464893493365
Ni 2.9528218388882728 5.073526075786168 3.6837195855497495 -0.4757474158826452 -2.609597974926983 2.091861873317378
Ni 3.646934599510852 3.2879448105264824 10.921212888563224 0.5343469706934088 0.4306867760985808 -0.19621913707017175
Ni 4.837377485130255 5.3620506093807725 11.14356745555109 0.6112080428175215 0.35968576229967086 -0.324023533011371
Ni 7.958503763741873 2.4816783127072544 10.744042839890644 1.245883058408732 -0.5450841546052548 0.1948803636540902
Ni 3.0403704194550447 0.7020960541277719 7.74856621765792 -0.8489929191446217 1.334535723851134 0.89736462557979
Ni 3.3092458988617253 7.636957005683014 7.433182746769892 1.293499117624798 -0.9893491836089027 -0.5027604541363793
Ni 6.369228455540509 4.312648985433457 -0.0968451950728767 0.5318907958434324 -0.3454495640956308 1.7426726396736567
Ni 1.2480148912672542 6.903564595166677 8.342482645783653 -1.8085003368017434 -1.99564322260226 -1.808843579073775
Ni 4.211764151554542 5.209897341488742 5.921604727242303 -0.009959425205557041 2.321408935115718 -0.25771709647465296
Ni 7.319231153417391 5.987423982689277 9.475608252808083 -0.8775663599069402 -0.5311135513577756 -1.3634446935760003
P 7.766230985020856 8.392536511675052 12.078126864384922 0.917739075471084 0.237946598715945 0.14407767917992606
Ni 5.813342038070844 1.2881528605783328 2.0433032068617116 -0.2710582936682493 -0.9496737193961514 1.3191150184206897
P 0.18032921788278525 5.783097815161576 11.74541272465984 0.8058562358561476 0.09651072803424025 -0.45732828994550917
Ni 6.778379169612419 2.1402240817111693 6.2208324116784945 -1.546749436577349 2.4356918995317147 -0.005694993502248257
P 4.82548099342136 7.406844338671489 5.891995476117033 0.8302773450129894 -0.1566074362158206 -0.14337242558278535
P 2.1724710499275197 3.7582023295670406 9.309582512699112 -0.29561721395453605 -0.8819462341421908 -0.23862614128147291
P 5.719129945468524 2.8948806635985624 11.730013735973813 -0.6658900077414338 0.3992959204921252 -1.3822181175287616
Ni 1.0992672133213692 1.1332677373365483 4.450348338922618 0.378702926832122 -0.9216165561486191 0.8833693397419625
