# total energy = -340893.6885228242 ev
CRYSTAL
PRIMVEC
9.02678205157807 0.00000000000000 0.00000000000000
0.00000000000000 9.02678205157807 0.00000000000000
0.00000000000000 0.00000000000000 13.21160797360234
PRIMCOORD
 96 1
Ni 6.323739266467211 2.058404198041144 11.306494088906408 0.05894999617164686 -1.4813464856915068 2.278559186940044
Ni 4.675484965793533 0.35144963617964814 5.972135272313995 -0.24340273673450988 0.8168806119911093 0.7908710753012251
Ni 2.718117539573462 1.506190804299155 4.660592580718003 -0.20320328169748875 -0.45202204724124734 2.244888791270792
Ni 3.4159239014832403 4.349437597065121 4.748555864052659 -0.24917589177286117 -0.38359779303057806 0.44579792070840646
Ni 5.201448477246977 4.516568467275712 2.684453058484432 -0.4026416970359066 -0.17115422368174393 -0.2839557184562077
Ni 7.462007459968986 6.00808172391284 2.2412434744272938 0.9226786788645465 -1.4288255329746555 1.3094929219498932
Ni 4.854260384887282 4.251072752739719 11.67186121769695 1.561205464101679 1.4256551056664737 0.049813581088017436
Ni 5.592226900270835 8.050851535391482 12.437434340715667 -0.4109080508097569 -1.4604773555519814 -0.10662364809852604
Ni 1.7512047502957027 6.49419199248323 0.5572367979694907 0.19630218370228125 -0.216928087482749 -0.28924293499707604
Ni 2.7851684768634573 1.7647900573260533 0.36081672794403 -0.4938978615394268 -1.2701182768070125 0.8448295317955515
Ni 0.7017221799760684 -0.06839502514170293 4.810597839966481 0.42440762795808845 0.5957582839213547 -0.257105431032583
Ni 8.560982071076664 2.2113901007324266 1.5982477333070757 -0.04592067379151447 0.23389865389881653 -0.6214119799337169
Ni 6.73598337727723 0.8642439752566287 4.810716090811728 0.29899615772909793 -0.4267555593649747 -0.26807941354558346
Ni 0.9131583019915546 7.673134866037337 2.686302646132617 0.4735432091424748 -1.5235280041555632 0.2990015570457367
Ni 7.745340095894994 4.023868647786946 3.802934545666919 -0.032885437874111106 -0.9367778372700898 -0.6443691029505225
Ni 7.650956062466857 3.811658027868999 12.587623746318576 -0.27932259055957054 -0.12286530676836904 -0.541621392867635
Ni 8.151834146520073 9.093760803000484 6.726650587284752 -0.96254723292471 -1.6262456323314638 -0.48737522992956067
Ni 6.92263917712679 0.6465874977098373 0.36411872482888197 0.3890739856538009 0.21541499327233224 -0.02286662018552836
Ni 1.7836921390015044 6.468357342170364 9.232376971298667 0.7124475437859988 -0.7691815061429333 -1.6365866092461556
Ni 0.199077554669803 4.55812777197188 1.2298331628863373 -0.11172857342525919 0.24414218600369567 0.603954960799534
Ni 6.2397901931235165 2.324757456874734 7.103260573155892 0.674632015600122 -1.2784800185081466 -0.2282399129511424
Ni 3.3940249281572403 4.523121911065768 0.7503873675255872 1.0184455867542266 -1.1262313734816538 -1.3854952456181366
Ni 6.103765613960491 5.613250275735077 4.6770285455292075 -0.23898738127563357 -0.04141944348705125 0.5534479531889177
Ni 5.032981643288551 2.814099313429752 9.609912202333003 -0.4669524432988345 -0.206087031003187 -1.606607289275246
P 0.31274008658612507 5.588471758925568 12.46138690696486 -0.04776261209625968 -1.8091711376165227 -0.7846600613945067
P 4.078670241794427 6.119029902457716 12.544778125176013 -0.4703419285963577 0.4521624294738535 0.5407927263187524
P 2.5019080551940887 8.407932980910822 1.3670971192289414 -0.19067918108854903 1.2747020395229531 1.1830465826984853
P 6.372926202020952 7.821174092148798 5.669708284254233 0.4985592715708382 0.07887938810572222 0.48547338492115744
P 4.5248369996609625 0.8977829840747464 12.546482381632709 0.92246990528785 1.0947736691930048 -0.25373959988414363
P 3.9210897070244406 6.203827493316927 7.93028080714936 1.2403256189256122 -0.041745716478218425 1.8789732460113253
P 4.7576016023749945 0.9329089011825226 3.774780915037709 1.1491504441716724 1.0339020305186128 -0.05448578975270617
P 0.34204824264336237 5.6047831541440685 3.4885118669010877 -0.29577302280610995 0.034343767587192466 -0.15782691044521852
Ni 1.4045041041683253 1.067904427188431 2.5158598495768856 0.8123958367468783 0.14169452365973015 0.5384869610037114
Ni 1.9099407131719246 6.429776875560585 4.905536117814328 0.9665735804752836 0.6908034831536619 -1.343783210591331
Ni 5.76647087476044 5.661913657928181 9.172040154519749 0.5579702665393036 0.28088504995068403 0.7935959304315559
Ni 8.539344874430983 2.4226348549678174 10.296916214127686 0.006891842023826839 -0.41233835549838016 -0.7989759637965466
Ni 2.381752558927646 5.189524098119342 7.046900053883201 -1.0958229363931258 -0.46437028439395517 -0.2950669978780209
Ni 0.4405006467549398 -0.0014533119148747076 8.834747220676114 0.5516697782425725 0.09410880346096695 1.0541517819065847
Ni 1.377116847337705 0.9391373808176999 11.38308182146389 0.6900722614145921 0.17117093585229232 -0.9601414516966948
Ni 3.9778771930895136 6.797645325665485 1.6476991535757595 0.9476304637138777 0.01717805444118332 -0.2893223820847598
Ni 5.667266539701602 7.733803868396796 7.930531751691183 -0.1629716878709516 1.238399348437177 0.11991419455984509
Ni 5.206720117981678 2.939020950634417 4.881147557990673 0.8711663699178673 -0.4754170291264199 0.08575580351058135
Ni 0.8337849044841956 7.289966020306892 6.806646832755628 -0.47196815134587106 0.48859753237243597 0.8053173326335421
Ni 5.2196193895739516 4.6022777631250005 7.04434998794561 -0.9411178594063406 0.2853083758293603 -0.4743785605595766
Ni 8.155914252020219 7.195744468956194 9.176016452025976 -1.0378342756934835 -0.5130986028375938 -0.6076902594722501
Ni 4.318990261109391 0.2075762699980921 10.363105996407251 1.1864538086078211 0.9294237108978638 0.1877021007380961
Ni 8.204487366392522 7.211776033930216 4.632452490261914 -0.4889993957965449 -0.3797647924377331 -0.08252315550589659
Ni 7.089390922490022 6.080214739513858 6.89083150511161 1.6401550433237042 1.1220420179906545 0.38236700594727047
Ni 2.308536329477033 5.212027865844699 2.6195053614190686 -0.7007454248577222 -0.010838742486716818 1.242572248867944
Ni 2.3534716506711093 5.176949790681947 11.573461168921437 -0.5987690457232203 0.098239794910205 0.07768279669445977
Ni 1.112659212740908 3.2920493709998513 4.094726179080064 0.21072864354025644 -0.01580534246337278 -1.5539153581981688
Ni 3.5805724066218403 2.4940367012203577 2.845357254416262 0.7472996184681775 1.767832426768736 -1.636525159880601
Ni 1.0735371392063304 3.268218666308738 8.153636794901443 -0.7910667362517988 0.33808515331075967 -0.0020710235964157882
Ni 3.8518542884710927 2.798862105278767 7.3980644437491225 -1.8477366565945468 0.4871050069873095 -1.0759395672056373
Ni 4.261950025146079 7.0377938361209305 5.850853233643973 0.171142396607202 -1.0412276176457487 0.24008447099455427
Ni 0.7448232590514956 7.2485511441240025 11.103219983247628 -0.8202310165205808 0.5031643744430173 1.569677506128432
P 0.11310287142736411 5.583940314321424 7.996457951934015 0.24047862110917936 -0.2872161343750344 0.01654916260793279
P 8.332017743618296 1.6910683280789616 7.9877380804447675 0.4336060066279048 1.3224366265947547 1.2638316724673524
P 1.8121896900279604 3.1889635196466264 10.237649071025245 0.09716250268562622 0.0262123967293097 0.06657280282422728
P 4.073037529776527 6.151183300226559 3.8504443051102015 -0.3454842739883082 -0.040415427702569104 -1.2283751314319555
P 6.681669229502067 3.988140644314436 10.4603695733189 0.9436740501692908 0.6112406958276698 -0.4833491394893031
P 6.220599254421507 7.722357908719397 10.283717253370357 -0.10645215551766828 -0.30650660717353023 -0.5631600382703592
P 2.6000472299674913 8.46839436728244 5.827904445562073 -1.458379078262056 0.7526022616280136 -0.15723941337286468
P 6.933218565724511 3.8135626788878723 1.4152270186011182 0.6072716838775928 0.8196442907791754 1.0146784064023107
Ni 5.303315713019407 2.727162375217589 0.49864846887946407 -0.9568848924326101 -0.1066457595857131 -0.747954478443357
Ni 1.482251778223082 1.0902818199646696 6.988148340037527 0.6131597672272537 0.47284721151671466 -0.9386745400721704
Ni 6.7713683630307 0.7866605886357272 9.274786598866767 -0.9101435225120131 -0.3094507774035187 -1.2787566692083008
Ni 2.6576380996376816 1.4298061743384731 9.095729544172125 -0.357356599945862 0.47433742290899605 0.7109573323937175
Ni 6.286332281527827 2.142046360794119 2.633258566596106 0.19693004709426729 -0.7414079355740909 0.6657979622482597
Ni 3.9858027077557248 6.938102054829773 10.517272602194595 0.23587634645047767 -0.691035653769126 -0.3043587075925919
Ni 8.052738132846194 7.148751041447887 -0.1481971947978603 -0.5157594374992085 0.915181599156553 0.8667926663302039
Ni 7.434394533586366 4.065102988328237 8.25304062184425 1.1268188705540079 -0.45110107808887473 0.935254715757344
Ni 2.7903949836877584 8.327224522333834 12.447528088437487 1.2527041950956233 -0.39123576919181 -0.6306993187729139
Ni 0.1253531173880875 4.766646438019121 10.145128165418413 0.6856849309801739 0.00887364834054601 -0.2152116190122745
Ni 8.572103066599183 2.3976758025167086 5.870736526531517 0.40276845242175796 0.5997049272739284 0.30437876219725
Ni 3.461545258115394 2.624789639648681 11.540022357384405 -1.108658140484581 -1.2798329329916152 -0.8607292337449435
Ni 0.9058105013784613 3.2258379244432924 12.272116951024941 0.9772058633781494 0.3553465114943687 0.8291206057007269
Ni 3.1488665536474127 8.290792429859087 8.01192895374087 0.39949852342123454 0.2074620569738427 -0.39102365318100396
Ni 5.785833322321969 7.581314438719911 3.3145414039085055 -0.3858475082967032 0.7675074608746201 1.0485069249159813
Ni 3.364994796988066 8.385745150558261 3.635754930833096 -0.7748759854245493 -1.150775124259289 -0.1726323508891672
Ni 3.5770429348285737 4.640939470773499 9.608775730469135 -0.8719623834566014 -0.2969665288935789 -1.336781582462517
Ni 7.437382398454835 5.957856708419904 11.19686382054521 -1.4297141062271959 0.011865383979018275 -0.10037972407134325
Ni 0.5084939800940842 -0.17274552866433093 0.4805136636808101 0.08836033101296395 0.6109064524167028 -0.07450697006963941
Ni 4.71775738627402 0.2768225206899359 1.5263503167183454 -0.2926203361097412 -0.35560156492796824 0.10976270794813998
Ni 5.919113759732684 5.43438458882053 0.27762770965146893 0.35132427770885305 1.238567755694241 0.574762655506294
Ni 7.9249008450297005 8.912051679730745 11.092321046564278 0.3751342356442572 -0.41481895582838885 0.7712288755902653
Ni 9.159746580005041 5.010649384422712 5.655809747885707 -0.25813721473120704 -0.43789872046598777 1.1118519648315301
Ni 7.970910353291292 8.86352369926884 2.665349679568598 -0.5811281927130056 0.38032837825068694 -0.17579172245375532
P 8.564312953664171 1.6126075382398875 3.820625233187238 -0.02580179155445234 0.35602425428768364 -0.7135708587571646
P 1.8620897413660187 3.1591209780902556 1.6562863313684324 -0.8872177669537753 0.2548773130330127 0.16587986265668206
P 4.764046724780091 1.086553758965643 8.220328466264656 -0.011522398817302737 -1.2943851197741774 0.2308416122400476
P 8.665927439538361 1.4249136584511308 12.444528488752313 -1.4830323580343618 0.8447043190715967 0.7713209210834393
P 6.580515109513955 7.610028632516286 1.3763983154841395 -1.3181475123010977 2.061084225814889 -1.9473170246930462
P 1.9635327183806892 3.2764691451298282 6.08224125209081 0.017604857565956776 -1.3413380914849482 0.023941855527578125
P 7.105666210580203 4.082371222447213 6.027280786718722 -0.8992818972071609 -0.17414621643053232 -1.5746690458057526
P 2.2523265574650777 8.398256270521095 10.052249799241217 0.13519965996400585 0.9102900753922065 0.5575239230305044
