# total energy = -381174.9510143746 ev
CRYSTAL
PRIMVEC
9.13677517044963 0.00000000000000 0.00000000000000

0.00000000000000 9.13677517044963 0.00000000000000

0.00000000000000 0.00000000000000 13.37259402134094

PRIMCOORD
 96 1
Ni 4.353664277933017 6.381799967817322 2.10883168904213 0.24659219020608497 0.1851443673132489 -0.1941116038088657
Ni 4.360297576776833 3.350236207789244 0.9563142884796738 1.4946838262303612 -0.3653455316886095 0.020136622848874998
Ni 3.031280519994802 1.3203736673794828 0.7332444887243845 0.162402702741359 -0.3791842373439147 0.041726433204508785
Ni 0.10783679008834107 2.971617377501528 5.090411806294756 -0.17583851653129073 0.663810756614902 0.026853886968050522
Ni 2.084993842370621 1.6678360940068517 8.620763092276711 1.2576990772070533 -0.2287073395058642 0.2517418527278245
Ni 1.968883702278044 5.597270759519469 12.140937837966323 -2.032855827096815 0.462952321000506 0.011212323776051657
Ni 7.455599481067251 0.7979566132301827 8.372701471133697 0.71474533868124 0.4433412316377977 -0.19471889837556142
Ni 6.9950968708370045 3.3212086727660997 9.72948518795203 0.5631253283776817 -0.38501344243118213 0.9683939215134743
Ni 5.957232294712044 2.9237863589789725 3.141957933513642 -0.7743573939169179 -0.08796309557454528 -0.8810268076517148
Ni 1.5453484847779342 7.7723166589212855 4.072543062841546 -0.48147814771883535 -0.1271688192397294 -0.5837409477455043
Ni 4.204789661733107 4.661208133419021 6.405833341479544 -0.32682089325085 1.3965998401717301 -0.16675198084899023
Ni 0.43620975215044244 2.3924280565534217 10.272733176032482 -1.7495624248149546 -0.7350951059821856 0.7937005743302202
Ni 3.9507781725362454 2.721945856556473 7.684120280946811 -1.9548195037176783 0.9607777997291133 -1.5120878806394216
Ni 1.8955519439853923 6.773603164815267 1.9850274704972428 0.012158746849720995 -0.5038598578481451 -0.5454423092756219
Ni 7.309200930964689 7.581924535908294 8.083371777142384 -1.1552293033759007 -0.3087573508809199 -1.963201814244103
Ni 3.458251164995291 0.034038142579547195 4.701589939066421 0.49106347741442535 0.13291806301868078 -1.073689594829196
Ni 8.431507584106928 7.903146143968942 5.820247364167035 0.11135962012161467 -0.11586419286018755 1.2415414936105846
Ni 0.5133844381203795 7.468701616800077 7.992812629083872 -2.5301979384311006 -1.2161096838010412 -1.240010915898671
Ni 3.8236308079211763 -0.13010767980156548 12.251168463174608 1.870557254033488 -0.03409025681548968 0.6781161174939805
Ni 7.643853598667774 2.0548059368885725 12.493185193801 -0.017360345655318486 1.1690397268964319 -1.0136502222481123
Ni 1.7775870385136219 4.244141752807921 6.226065460746976 0.9416022552419269 -0.8381580333126468 0.34015052048022065
Ni 8.278749838418559 5.07231733655606 6.210312746509203 2.1164310780163103 1.936491909053084 0.3486382462362576
Ni 9.041898992591717 4.7272487450486365 10.63974373334352 -1.4246006962600306 1.005575672770094 -0.7440021786638283
Ni 1.7890445546983946 8.404517549968318 0.015354350836132782 -0.41643129462083117 -0.3293773411241166 -0.0021602408761124087
P 8.851790109612 7.617758968505326 2.1132712481443474 0.008447359436404806 -0.5766403321449812 0.6357859892672018
Ni 3.8338822697707093 0.35599434737165986 7.34051083244952 0.8162290944500394 -0.6073416178835799 -0.555815939200462
P 7.320621900048393 4.347844152087961 12.230160275803279 0.4765861097338566 0.3465762215009063 -0.4276811565030376
Ni 5.135077845864836 8.190269306733281 0.8436359211773686 -0.7880300063080041 1.2459180254117252 -0.9631576128151993
P 1.101063650646549 6.2691161184498565 9.644047202430649 1.2272361327315058 -1.0423293353503598 -0.1856768427779512
P 2.2363079775668098 3.116608864212978 4.312140375377246 0.5146942294594877 -1.0585627664900867 -0.37910916113160514
P 2.8443969186843234 4.939377256421736 0.6161302170299683 -0.2562446256941845 0.34795484701598783 0.0950148602150041
Ni 7.754298938094833 4.2162471779178805 3.4564274646520046 1.9183052108417284 -0.058539905217421764 -0.5615955219967166
Ni 6.082607124925323 6.246466052563053 6.070796929215246 1.18158516766161 0.09309630303605257 0.17359651457464942
Ni 8.454322111948537 6.240545422190061 0.3595732222437296 -0.9325316603992262 -0.9171775465406592 1.1888763020063846
Ni 0.31083400825963753 3.945031140893325 12.720947641333403 -0.2704692539339987 -1.5763577463620853 1.7209488748433197
Ni 2.214635546633571 1.614175812863973 6.027122229761632 0.17221017575008404 2.4673727755747636 0.24996239222989852
Ni 5.021526002847008 6.239028717495745 8.13512429960952 -0.524249991468723 0.2972262103128687 0.9696625038132525
Ni 2.6043098749943137 7.635566543500638 8.423825383462466 2.0653072627573015 -0.3210919611868728 0.2694192154029295
Ni 3.800642681349495 1.8622666716878429 3.009074501385973 -0.6500656391146675 -0.5938268712265966 -0.40454791291968395
Ni 4.477778233159454 3.8900551641120034 9.543485112809867 0.7511593585338998 0.7633091065225563 0.5529134208416865
Ni 5.349499687829943 5.1349773413368975 4.059611784806211 -0.08375522814078479 0.28004172811378225 -0.0047904794101078785
Ni 0.9796633176744001 9.283329142245972 2.1016766803305704 2.0960751400677773 0.44609642578543174 1.1472164603737534
Ni 6.03976478569853 5.769709119132878 10.341240716984176 0.8813019156899725 -0.12227498148253779 0.28164943892053423
Ni 5.954865869917901 5.909602285245362 13.112537037790101 1.1598580603971638 0.06250583184370526 0.7779003740731699
Ni 5.762984452536394 1.2769557113108705 11.234155835563914 -2.7259113395094476 0.39965793181723425 1.8866199639233057
Ni 7.125999450086796 8.109079921711041 12.173486686177355 -1.7318097288172238 -0.6607760835536363 0.8262772227146608
Ni 8.10652162463629 3.0036235012617025 7.455394817301271 -0.19652047036067444 -0.5604297838233897 -0.2357089676346779
Ni 1.7293996857556544 7.9904114845437135 11.008613624421384 2.050183005521353 -3.16948268488018 -1.3356269000327836
Ni 7.4252745239561975 2.941000043581932 1.2276226069344256 -0.15725561132278076 1.396365612673737 0.06500957210216546
Ni 2.71846474517976 5.073477707014964 8.338213799211015 0.005998897895912249 0.9637656787128434 -0.7662170241979708
Ni 5.248538321129992 1.4909572616136981 8.991571807066226 0.6874955018263516 1.0260730213924973 0.12717576121826485
Ni 2.1079636953917684 3.970011084473204 10.45147134219246 0.12138100891335869 0.6375065715027344 -1.9293663537518968
Ni 3.875399776583793 7.31193282676951 6.199855707216163 0.032569706405905195 -0.008379482312946858 0.5825512983127773
Ni 3.8419865894325063 -0.06213646755804119 9.833363013317197 -1.566698111785134 -0.14391878500455857 0.0747756503499938
Ni 3.0056335918204344 5.851803044906549 4.606818737609839 2.9012837150375965 0.22574568577437898 -1.0544060640092356
Ni 4.498390798161725 3.0213762556054133 4.882454232831024 -1.2125191382363052 -0.5676972640190804 0.9264936817352624
P 3.3844808414898244 8.843384276366393 2.233276395533231 -0.3054190305363062 -0.9159616718556871 0.7759550774213411
Ni 6.3141604205159885 0.737567097103185 1.9744096239595041 -0.14467006134828633 -0.043878446550505074 0.43182886012282407
P 6.247909663055233 4.924913741174132 2.084801056412488 -0.4261297528555178 0.2266568847347387 -1.1373398246899897
Ni 0.9354778724833628 3.6137499432637488 8.278745270030926 -0.2877956610275882 0.7074889142291428 0.3392616901173641
P 0.3331533228817769 1.1413659663491267 7.351196291124235 0.09156598243445521 0.00018511942761258442 -0.5102624189403793
P 5.385717864988187 1.4665346613251038 0.18146092518953594 0.0034720177090004725 -0.05682266541599891 -1.0483009795527622
P 7.646009877630778 1.0784775421866144 10.542123685358696 1.5902627864789516 -0.3839562048112613 -1.708048621841884
Ni 6.028234175311621 8.502756157638713 9.702766516038846 1.1420182040022655 -0.6908045115949264 0.5764158748390008
Ni 3.801227434966581 6.693747748982003 12.922739718846987 -0.4446887468046277 0.21407853384909584 0.7382786459164897
Ni 5.811190078844894 0.977388260632926 4.433015343771545 -0.7481149152806214 -0.7545467869488941 0.35524726691234304
Ni 1.3967022879596989 2.6275721048240035 2.174570787087935 0.07604191865692711 -0.5392310382585874 0.47162130952941356
Ni 6.010115949957232 4.074005860561787 7.701102805135516 0.4048330482602705 1.1131742831873797 0.6108393466241931
Ni -0.04683785105103689 0.0877760863121952 11.846835092575551 0.28439434865552315 2.3074437311848777 -0.39548657404836407
Ni 7.796784943086216 1.2696828381983671 5.636146824602874 0.3133369998318023 -0.7924260784931707 1.1059721090119856
Ni 1.1150703271308047 4.908239126311923 3.9808737965880976 -1.830173708010119 0.5157926047299891 -0.12604499004793132
Ni 7.924845985227981 5.410268380130519 8.589939267236083 0.28519858972437334 -0.5220370429778042 -0.19653049766300348
Ni 5.2247096112337506 3.9144594908500636 11.988932048882425 -0.32858004203380187 -1.0461641357154177 -0.5689074822770976
Ni 2.7879956049613552 3.2031889466427272 12.425854469503692 -0.39304325471419405 -0.308363714986927 2.3713855241441615
Ni 5.478757647531681 7.565505750753559 4.119775622584116 -0.5757090785799633 0.5096512677189416 0.09079979369239202
Ni 3.5685137689170108 5.965044237565299 10.380328755253773 -0.4162443754210057 0.46531516480572765 -0.29251029289443814
Ni 5.8878658968852555 1.9505279207667139 6.789466434033769 -0.47589191188030944 -1.5357479432605228 -0.7948843102256762
Ni 8.444308206255945 0.5953586721380526 0.6954794555134427 -1.9405123430663869 -0.8440000939157207 1.2076738943288619
Ni 1.6344594539566326 8.618482553170077 6.276280263936682 -0.024238560832390517 0.058969536555672636 0.9226213432640498
Ni 6.83333026473541 3.699206202335662 5.499666244052601 -1.654194552135906 -1.420849199637398 -0.9704824286113868
Ni 0.4024859146400788 4.699463811461798 1.8527196552113923 -0.08523386956884031 0.3211840066800468 -1.207126506465824
Ni 8.342067691018618 7.404460949898054 10.223294998740466 0.24395552391418632 -0.6992408152877376 -0.1994813527612113
Ni 8.075410904852278 1.773694772249895 3.1516931675605924 0.5765829965444844 0.5388975661785688 -0.03825801503993411
Ni 0.6299212656179236 9.254365564649694 9.41240710747495 -1.271968956862506 0.5358798623981674 -0.2330882421823792
Ni 0.590401057878198 0.8109025101059438 4.390797959973011 1.3219794844526782 -0.8169446324598252 0.27511343757422946
Ni 1.3930658514034473 6.391923514813119 5.8976212318377925 -2.0209315648554034 0.4364640449019903 1.8322781559476315
Ni 3.215121575141382 4.443880796919018 2.671830644217177 -0.7641696547506388 -0.7902756078090712 0.8687510756081553
Ni 7.695860123487333 8.707648343000377 3.8440862203888546 -0.05841032161809295 -0.043798742352505214 -1.6141894724978783
P 4.854944316179723 7.440359339921955 11.14643182887074 0.8193095331475762 0.16679620382336435 0.6143594439623098
Ni 2.182355319615388 0.9830165141973758 11.292995754605634 -1.7774604367768034 2.1988115372967547 0.6474006906879947
P 5.896975261826418 8.550568902610735 6.129595732768265 -0.11850831535125395 0.09160532031282288 0.12127662212501049
Ni 7.760301799445228 6.3700500748240065 4.140195401628254 0.567368677035068 0.21230987198444728 0.026976528588843862
P 0.20164588910931253 7.167224580091338 12.200219063253439 -0.005603719340022607 -0.3979242369555792 -0.39041533017304375
P 0.9499870716073013 1.5996574769647676 13.269103905087267 0.887625029694523 1.2566318122848035 -0.3657288831699572
P 3.5456352836485334 2.366744581277986 10.62905918834633 1.9558235195021605 -0.6739568439099682 -0.7770822490472489
Ni 6.733172934258952 7.1323769192231365 2.0562504610582795 0.6192077731935465 -0.31674782528556417 -0.16565411979912117
