# total energy = -381175.9562703789 ev
CRYSTAL
PRIMVEC
9.17394898734211 0.00000000000000 0.00000000000000

0.00000000000000 9.17394898734211 0.00000000000000

0.00000000000000 0.00000000000000 13.42700165994509

PRIMCOORD
 96 1
Ni 1.616559884887736 5.451527398790595 12.531702277549442 0.22942004930217264 1.1350196611972454 0.9077685945219333
Ni 7.691970853081524 0.7154643491620558 9.241375597176607 -0.7340851766604325 -0.08039196809550671 -0.18991787744249228
Ni 2.269992743721974 7.8042324658625555 10.018194399237105 -1.6264058120584117 -1.120599372006857 -0.8647365551321237
Ni 1.6731081059535433 1.6668422988497231 3.379616725089499 1.0357928197834225 -0.0193830325123021 0.667551968824889
Ni 0.5824760336143174 7.6249551563122635 4.717469289982825 -0.32790281346111916 -0.0037103589720516744 2.0778545032946925
Ni 9.15177547298687 7.648082681508061 8.897201142988521 -0.2728493241304011 0.9241367514673118 0.4861914940341046
Ni 4.551874925228064 7.491951245051382 9.714610081990239 0.5079502258674348 0.3862930804745541 0.43557058655344344
Ni 6.177361062402794 2.8036413516710335 9.506008244757135 0.16738781466077624 -0.6274551008040032 0.8399855734396889
Ni 5.675472665571486 5.550431741962313 9.207674178470025 -1.0543896089490035 -1.4107211100644605 -0.5499003450469755
Ni 5.482113344448188 5.85859385971402 6.430177663790467 -0.6591452328184326 0.79302051754406 -0.5480581496319141
Ni 9.010349876628908 4.4172930947550935 6.6376914706831425 -1.794307333130813 -0.5253491380701727 -0.5398851269028186
Ni 8.708893915528579 0.06613041069968699 6.99503788071261 -0.8118571906345889 0.6970762035362511 -0.5797539380732983
Ni 8.427694033616003 8.798706875332968 11.11332812830524 0.45581596706604083 0.10498225584036114 1.5867398609273575
Ni 2.328045492408611 2.778761602233904 0.9489826316279201 -1.5296325743914045 -1.529160262740676 0.24046062338705043
Ni 8.16788780055571 1.4202373782673154 12.990396053344694 -0.07900742904315426 1.7059711704875653 -0.9821614076112117
Ni 0.9329722559945576 5.172226524301871 8.459682676061552 1.1256783291916614 1.2941367512087971 0.03883059971395248
Ni 6.534016674079527 3.901717166153802 4.971696844712472 0.35364032743653934 1.1155294136831173 0.3894948752413034
Ni 4.420458107128179 3.6427732842908114 1.1914409273041395 0.7198788032530634 1.279788452906925 -0.8381924860950081
Ni 3.317354968644103 8.19429959946039 3.0543745492618144 0.4245354117852044 1.8764448231625168 -1.4069043074215317
Ni 3.674047276116466 8.579770584655568 0.3577142853806583 1.1781758848697452 -0.3594299375351229 0.11768247701584893
Ni 1.2333548650727086 7.971757946862345 12.383750333938686 0.27339722621407114 -0.6837365490045515 -0.317629199449253
Ni 0.5822081543062184 2.3307059375917847 5.75553830466166 -0.2614516238164207 0.051179351087292504 0.5751742891224159
Ni 7.187256879986707 6.418067133837681 4.811552723003653 1.2968112127171665 -0.6359770222320853 2.0291089584598727
Ni 8.466866795451013 2.492286699699517 10.821223173326322 -1.0185738848019747 -0.9860077779404954 -0.5193736372130281
P 0.37165410074559896 6.620582055970662 2.7667813423556042 -0.46334364290165364 -0.5936018996999841 -0.3840243390450354
Ni 2.8763265488651264 5.2266372152722305 10.471852594477031 -0.07742388660611828 0.6267873853130173 -2.147286629944586
P 1.7920391795903252 3.441239974690933 7.335762012716585 0.43605009729302324 -0.08401336689817789 0.3052418815284937
Ni 7.332086011389351 6.905011167898677 10.246977089276921 -0.07817156340542021 0.28289153885775153 0.2143510707841921
P 4.020189542345209 2.461517275063774 4.264200987571467 -0.7886586410309385 1.058526256825196 -0.23763523812311332
P 6.42785573732198 2.6112269472852065 0.5316330913740822 0.0634774517283552 0.047895538129698156 0.5493943519448344
P 5.433583154727533 8.636713285524399 2.1454472133538047 -1.279864557560499 -0.776084918130986 0.10397541184240157
Ni 3.964595411965781 0.37452004238430076 5.049855219824777 0.009641893965138234 -0.01598917633940472 0.004589162032579193
Ni 9.456690012825325 5.354448671451469 4.571786981331784 -0.9414862984893528 -0.6807746381627501 -0.39950469406882166
Ni 5.630290967202067 1.0829571466832144 11.688620959924986 1.9008039687331715 -0.02166925744331752 -2.1662012074609014
Ni 1.760389055859463 7.374598090626689 7.382809692293789 0.9599946417061853 1.9871225867257585 -0.09436694221836006
Ni 6.357005329909386 5.0595337359221855 0.5022920505832368 0.7353455314300948 -1.3558995342388909 -0.032938145488917464
Ni 4.155752985351281 1.704253662494493 13.172720948722057 -0.2922644954322192 1.1368055494530744 0.42784596421567606
Ni 8.88011649793809 6.7499347355663595 6.726484287369018 -1.8087769875018977 -0.4305628489262069 -0.45578228561462797
Ni 8.79529416633938 8.775203218231963 0.8055149142431486 0.1824565360684406 -0.5490883906686415 -1.111769175309737
Ni 7.41372498271716 5.577421499648167 2.8120978977739632 0.7380824707452837 -1.0154574506601801 -1.0678596184109803
Ni 4.109598848397668 6.067741546907121 0.012104108188550605 0.35833387625746677 -0.2976959508604357 0.8678139085058667
Ni 3.8705349138172216 3.8649204570858338 6.162967136566932 0.44733903994328117 -1.634941874553881 2.052993992607587
Ni 1.0438944722350953 3.2941999216015825 12.223270445699853 0.765016061911334 -1.304038326593225 -0.19239076446301706
Ni 3.92491808294086 3.452202843635391 8.560035585765764 -0.7523978589266913 0.05005037968917187 0.9610099703445771
Ni 8.66371221715916 2.6527665879383493 8.272617601283686 -0.48052581110789505 -0.5075321644934099 -0.9594989330166896
Ni 6.148252122519308 5.389428938635752 11.523267870026492 -1.1958882145478438 1.8174760579377927 0.1608494993216262
Ni 0.4340020923107252 6.048714776872973 10.539766420844336 0.288674978308748 0.13508216054953512 1.2204707889832143
Ni 6.978219280180497 7.2295763062969876 1.0718346510277659 -1.7119566986470387 0.4024912875009713 0.48365921453055416
Ni 5.446041377343912 1.1022591351845865 7.725775937410757 2.401774935069296 2.57406018703169 -0.19247792486018464
Ni 2.456866082967674 6.282393603444718 3.7969277347579253 -0.10588702704281763 -0.9016385703647956 0.17431770901139013
Ni 2.0069939764418705 7.011750063437396 1.1154292562361883 0.32344837723419134 -0.4483618247808407 1.2139952085611996
Ni 1.8340099958421208 1.039142366701012 12.809023413863928 -1.244831991436398 1.2672952055359206 -1.0749975150073423
Ni 6.298686536704432 0.2089128341010685 0.29662954658009427 -0.502378131096296 0.3205299180358157 0.24332766052220028
Ni 4.29905924123528 1.3878992083683912 2.19250865385437 -0.4613919184919215 -0.21277369899474322 0.8026207596379854
Ni 4.936107427320731 5.884776309896014 2.3655155693263885 -0.00010644367087723603 0.5636848004255777 -0.6405232468418711
Ni 5.657684378639852 7.979188845477418 12.061260342783251 -0.5266076930676222 -1.8907866937064857 -0.7615021352208047
P 3.518273623667179 7.435017718131459 5.646215107715699 -1.2755353340575257 -0.9811031415500264 -0.07970676910302402
Ni 5.971139864911184 1.510215469152039 4.485048211806298 1.0314016326942623 -0.2268337766322351 0.5269355087206861
P 5.529129832599105 0.25959339744564097 9.702095898285524 0.6558326235054317 -0.05785984843126164 -0.12271438301280155
Ni 2.152850590122154 5.458086772259454 6.204308619923673 -0.6314829910164738 0.3775906676045497 -0.5740293768846952
P 2.5439176841509057 4.753188060054162 1.3353168854152946 1.274477582216973 2.6610794306357266 -0.9265214496494043
P 7.424458502938931 2.2851389333682506 6.153635395738227 0.6489844902353468 -0.6364279937265749 0.21934132490993194
P 3.4858620621769947 6.948963557114491 11.668239197637202 -0.4313501207141926 0.9149769393449144 -0.46488219103336714
Ni 3.5723724003746846 6.118904659964227 7.9242671655529096 0.8584460941377215 -0.8296895908303195 1.0264136925613678
Ni 8.350871385464629 3.1073907999982353 3.580524371373886 -0.08880436052891802 -0.48965245599951157 0.38940102997591647
Ni 4.336626562011478 4.879091334860641 4.348884792541675 0.5788751350127708 0.22391248922038212 -1.5190936225332934
Ni 2.0605973599083716 3.7812448691005605 4.600681250810835 0.6037564716354827 -0.8651296768054844 -0.7540575060173014
Ni 8.423024493622087 0.8271856163524365 4.5296528687894355 -0.29686702720123714 -0.13767614652895646 0.43920021288623073
Ni 0.1320259683073421 1.7953326272481163 1.6245861727869044 0.36283870610635577 -0.6107560428817674 0.20690592736005656
Ni 0.8731764570154968 4.257391165297433 2.5035183653469644 1.2031577516260632 0.48734566224320586 1.5609031023699118
Ni 6.986411616554892 1.2674636071107799 2.242282831046882 0.8514485797739659 0.4152200479215494 0.44039217631180283
Ni 8.829357038632914 3.8423617167223005 0.8094936558843299 -1.9944250339244427 -0.1657335668868049 -1.8369863600565781
Ni 4.323663772205186 8.547368197114292 7.299924898704342 -1.2782082529039986 -2.834065822430203 -0.42879187306871314
Ni 3.504209959991987 4.085654841749102 12.26993006723827 1.0719710694761926 -2.1129356632685417 0.8722020102712333
Ni 6.06935616191484 3.6596258284338825 7.335681281966199 0.5529532729406864 -0.1647238946753679 0.16533221768332818
Ni 6.1403258306632305 3.2711366140481366 11.94695660897541 0.056806724576398945 -0.5960398197175154 0.3974892063006897
Ni 6.517494392097126 8.489453057661269 5.846774143941602 0.16471798113809696 0.9067751202604124 -0.10667481305143563
Ni 1.2477854867042002 3.25045853321064 9.709320383050176 1.1052223753301547 0.3096202131018474 0.34588922273621076
Ni 6.672341475706756 7.865055747119256 8.141542971478051 -0.09401495819558002 -0.1648359947732 -0.11676536451821826
Ni 0.44596308689631886 8.785578954446342 2.9120746755729674 0.7430362152061333 0.9213298781461359 -1.2544787704975429
Ni 1.6506135832323623 0.24008224290917787 5.7278247224070045 0.34927742248215327 -0.36296186194778135 0.03946103420909978
Ni 1.256748434786824 0.8960122506360365 10.369915343796496 -0.472192094431219 0.10320999443128676 0.0036928754705549305
Ni 8.253471569913742 4.46742872553456 12.013031058586764 0.15619297438622132 1.486614933179298 0.30280293306969785
Ni 5.21487621277282 7.320728662641871 4.309799183221287 -1.6417673821161467 -0.10365068151313117 -0.3828714563875148
Ni 5.970699515363624 3.343042025585093 2.8102713645464807 0.08266765150356085 0.5111306804779455 -0.2665102692862507
Ni 3.46638576864638 0.11119101294352728 11.431454071965378 0.5968959970702236 0.006131823929350731 -0.3302381464625151
Ni 3.194891924677935 1.6571270869566845 7.028511785486283 -1.0261223865731939 0.5952985706761167 -1.09256843401157
Ni 7.097554007569209 8.308762959979221 3.374890306612357 1.4360256502675204 -0.04896768814795438 0.024927102258982876
P 1.2358318312777326 0.24862502413183843 8.239009756855964 0.7228684820090067 -0.06895055902778448 0.17674765860912142
Ni 7.932511793436076 4.646953731705356 9.56053544487862 -0.11603825654420662 -0.6501132045231514 -0.08040868026605506
P 1.9244284362744042 0.24762322891113983 1.232147573396482 -0.6843687832719116 -0.2016271954596205 2.824019493937794
Ni 3.3433172440523173 0.674076996060777 9.037526782872476 0.20445180939260918 0.4858608501675633 1.0922172213197383
P 7.158680029139856 5.626511300252179 7.696464253256416 1.640218549571788 0.27076878745228855 -0.30738772422690286
P 7.760307598493463 7.115901905384201 12.46200320072474 -0.07011321187731796 -0.1302857676021563 -0.6535014042690939
P 3.0598605707084974 2.4669207309702896 10.876703546739297 -0.5667562402620497 -0.269948091323206 -0.42288836310008454
Ni 9.071402506608296 6.287897972789216 0.5843218321345056 -0.7818323621377244 -0.8983431874429754 -0.2567966415429126
