# total energy = -340864.797352477 ev
CRYSTAL
PRIMVEC
9.26632398106367 0.00000000000000 0.00000000000000
0.00000000000000 9.26632398106367 0.00000000000000
0.00000000000000 0.00000000000000 13.56220180066988
PRIMCOORD
 96 1
Ni 8.453639766584844 5.116836422994761 6.733931384339584 0.575214655442048 2.702871426970848 2.3823289105295427
Ni 3.1422290680868774 4.044889507156971 7.162280193231926 -0.8044033054597048 -1.185313781466107 1.7152148005730203
Ni 0.39160598018364134 0.24660283260842591 2.135938692351858 1.3665102198752015 -2.619434758511747 -0.9750175974775789
Ni 8.276087728632804 5.884328990993073 11.911451111240213 -1.425353515265655 -0.9181473666530962 0.2589789939062121
Ni 1.54899581818354 8.115455998665757 11.335600027136536 -0.21284774676578827 1.9786549155743793 -0.4782946077845311
Ni 5.434458217519164 0.49123101153032295 2.64860271175145 0.1436418771940881 -0.6982691954030879 0.41185215989058105
Ni 6.021025805557475 8.377618842866953 12.210457787083863 0.2689579594957948 -0.25075429200357463 0.18854722234721077
Ni 8.441621344100435 7.332145815261978 10.372941992151203 1.942845619185254 4.213497892573395 0.38574106462582597
Ni 3.039447000086041 2.434708150296049 9.390211245688825 -0.08633430172187068 0.1787826867612792 0.7623241169014677
Ni 3.2071582017401283 6.32705542851056 7.467660246858753 -0.49345563179568563 0.42640666066598826 -1.8005096052867828
Ni 9.046165601082274 1.103267091626 13.066964518590078 0.5454081136035768 1.2168324208996786 0.358834212932653
Ni 2.9913269785274093 6.057905775864302 3.9643948021164315 -0.32286036594120526 0.1460564001728517 1.6988427869729
Ni 2.379082406137284 2.951815372148436 5.003706650762358 0.8457864963921821 1.1050318565859034 0.9444412673526187
Ni 1.3297823866386618 7.1945223682778074 9.019501753203405 -0.3311344330245394 -0.6502443307843769 0.08442680028651267
Ni -0.09507897269529234 6.886695078430368 1.8040708510059187 -1.9690366757583253 0.7302182375058586 0.09710928085018758
Ni 8.36874170428556 8.205515403543156 13.12738465888873 0.8508338290081023 -2.350680687496642 -0.31962129017861723
Ni 0.36952896278263225 4.41205833716645 12.78851888950869 1.2703787295572508 -1.500687866332596 -0.17923545802798163
Ni 6.814454814985137 4.416079921868251 4.904539375831043 -0.4151750536162269 0.5890623599584178 -0.7903627682062389
Ni 2.7447778905993294 4.092184825862008 2.7343430829203053 1.9651993042901057 -1.317186433939409 -1.5849264618677026
Ni 3.7105234648073333 0.2681637157516234 11.9449497998473 -0.5858780486931652 0.3868232419464112 -3.747737412700133
Ni 8.29427752303288 0.04361288146887278 8.888707587152936 -0.45494204910151975 -1.092916304269292 -0.607967938613669
Ni 1.8899038854167507 8.110785771270118 3.7138602681509236 0.396736130184749 1.3232460098699275 -0.32400990616461617
Ni 7.4944732825572045 8.651633315717001 3.715908125798614 -0.13521354392107682 -0.43588194714627515 -0.5591720001568886
Ni 7.968695956022658 5.590549448629341 9.325071766476285 -0.45760262665281837 -2.2047824101682094 -1.5482676729940883
P 1.3434131495334716 5.15403144832431 8.046752691166784 -0.35428438877844143 0.1257832517461124 1.517951024288418
P 1.205604376065347 4.44812287094388 4.010424340936063 -1.4269969644063487 -1.675131045178257 -1.345842664223521
P 4.167909227205574 1.9585395487490798 3.949259188171916 -4.150813369059981 -1.8890558270583078 3.102927622667766
P 0.059264629671199935 8.885737730247575 4.684995136512307 1.3581050265306418 0.11042116746774532 0.48887649706543546
P 4.910716307541226 3.5589449335814334 8.696802939651086 -0.048126423193581624 0.5305553648614604 -0.2629420923190181
P 3.9509104471439453 0.02548887797060051 9.561528900720655 -0.570419805156566 2.3683958453882177 0.1318104317767988
P 1.2746384913381772 7.482640186556748 13.376711790811278 -0.034491606018966406 -0.2799885062783436 1.3027036669422016
P 8.137092865667375 3.8335153858833437 10.796435247163956 0.7229638699362904 0.11848851785691206 -0.11187821162924604
Ni 6.896396919865356 5.105309115692828 2.2048208399078457 1.4209201620846497 -0.5269445075817506 0.08809113651197731
Ni 7.325094142547532 8.738032522536312 6.520788321776616 0.39086887277069454 3.107392086197023 -0.7468609882688622
Ni 6.297162266648796 7.98255837702241 9.889692992284775 -0.6382115679895589 -0.06412459839405085 -1.2318088397038527
Ni 7.086421430187494 3.432783929629812 7.440956553785835 -2.799745708992094 0.6458726840792425 -0.7216775470246991
Ni 5.162991983823481 8.154717414291392 6.96340449003615 -1.1172350835203146 -0.9334883678855408 0.7010279890951474
Ni 7.918620740058312 2.3594841304591587 9.115616700944 1.1101609502823524 0.08316593129621805 2.708026745919543
Ni 5.745176600516282 2.20689556989571 0.9022731067186303 1.1206783048739086 -1.3060126767107765 -0.6990348699245188
Ni 2.4954581717361397 8.608563440846112 7.487610642856391 1.3347630093705916 0.5374649474971 -0.510971529192262
Ni 0.539683694127652 6.346320116517569 4.37390517391486 -1.968075083176004 3.142842970805465 -1.710349759171235
Ni 5.52469368255632 5.6677935271413284 8.082326109761736 0.6270797197424556 -0.06256316744420193 -0.05285545323813477
Ni 6.939105408092534 3.3638054123021677 12.476737659126096 -0.10794210979963346 0.41918366055498774 -2.006482736419925
Ni 8.660093469709496 3.229656836892133 5.814482219088106 1.5011347240620276 -1.4775409959024877 -2.493007188313416
Ni 2.7605028427628184 0.766781840932349 5.484853121668329 1.0234857202812953 -1.813865714878715 -1.1828349809083112
Ni 0.2738662116628851 7.727521336129242 6.730215588336308 0.1811128775563526 -0.34958081265518504 -0.09096305874313367
Ni -0.03939763059134118 1.0676010097890705 6.319728545967442 0.6387620411763902 -0.9745645691005603 0.566656995680024
Ni 1.5604953265128798 5.8812989029804275 11.119771583821073 -0.4838924135872828 -0.6937399400741665 0.4713559716831689
Ni 2.9664932296775857 0.817426009202433 2.603562816356132 -1.0929314737779434 0.20598932908305814 -0.08445096865622874
Ni 6.022369422566141 7.346944135005698 1.5132027877051024 1.4213040277866296 2.455784556516532 0.06570299862476427
Ni 7.491350531302581 1.234858161557471 11.332196506258722 -0.7408541199531499 -0.3520742685010001 -0.35325723306550777
Ni 5.666014392895371 1.4842056793932543 9.845562123293252 -0.9238091929245638 -0.005065844558681598 -0.634676558253107
Ni 3.494757105863998 5.19520172673467 9.75984862446457 -0.29002686435095215 -2.6073595725147674 0.34649368908942907
Ni 8.685575861253158 3.3125441068405177 3.2486629944540257 -0.65441748832546 1.2821446118439273 0.14681693248796007
Ni 3.9659311586684094 7.276705397587167 9.360293064751724 0.06760767184664486 1.3937348599191093 -0.01728372678111217
Ni 2.0897321667400504 6.404188311132176 1.7179783595175513 0.4310004506842577 2.4742777302247125 0.7523353811198721
P 0.07735990756445936 0.3325350166881732 10.807352830333677 -0.05830362083689959 0.09649350164305961 0.7323931336699903
P 2.718276203393921 4.057917958978931 11.79276895754855 -0.6212042347982849 -0.26550188262639435 -0.3204317018950546
P 6.749572012952873 1.2119054765197799 7.732001603878827 -1.1153311816293825 -0.22631389957302311 -0.6290113895475297
P 7.660433148937928 5.9584132529536475 0.37955049240243977 0.5615528416842394 0.5431563414549225 -0.39622653753818216
P 5.000219732966765 6.694205725871645 11.162044554810961 0.2874696451467372 -1.218214645959186 0.28498467394135435
P 7.309128265954904 2.1669762452520382 4.532813367581137 -0.5643288617674798 -0.6606182178195332 0.07494894270306447
P 3.8651320840458796 8.230404750338167 2.152728345165662 0.3397548277036987 -1.8580300681007547 0.25166266275045696
P 5.54825794499106 1.4683787976635907 12.436241042484909 -0.3003871245393536 -0.03500017022426876 -1.6171063890343569
Ni 1.1117087129701002 3.62103857203019 10.344094998291357 -1.1309115525661424 0.7208447667107585 -1.238539473559467
Ni 8.171387531523045 3.054375048368528 0.5294981505695453 1.5659674042666964 0.17332963406650795 3.6307437342211926
Ni 5.864999438716681 4.476894807577724 10.499463456114116 0.16758758937640814 0.7626611885259122 -0.4143330173309058
Ni 1.8969462918069993 0.3235003505954203 13.538712156862326 0.7518335017827891 -0.33200012345894436 0.9852163923874517
Ni 1.3726669350255958 0.6284319141310789 9.097592773747063 0.702930605434499 0.23790494684473223 0.7313901463267727
Ni 5.627994664712228 2.8854684908929378 3.207827230347202 4.065956166104269 2.7109673166051054 -0.9427795633794795
Ni 0.922707204839388 1.663351525107298 3.7868918756826395 0.0815016562199177 -0.5516605222711918 0.7918658351143265
Ni 1.9086774582412813 1.8595010757241122 11.598245646828431 -0.17562228675542657 -0.4974387848131498 0.3897095623552708
Ni 4.363159944375212 5.906725696578903 2.1421091376351034 0.20663904685191511 -0.3861061612747286 -0.086392922873948
Ni 4.264825711989269 1.768394576212372 7.566719105796956 0.6070616247493158 -1.4352499484437604 0.02693024873194072
Ni 4.808999866823124 3.336553152836746 5.901890528612546 1.2481641411334248 0.4830717174582003 -1.9854151171163485
Ni 1.373880823495494 5.221759011885265 5.9191008725449255 1.7732618253144232 -0.7359929352061066 2.5272712517026084
Ni 7.815838672057476 1.3580261427932372 2.3241414433367287 -2.5160213898204025 0.4442668287758607 -0.3123160147664557
Ni 0.6151208394210895 4.5451042199969605 1.6438885377624586 -0.08419540100199692 -0.49546109226148866 -0.3387744660683004
Ni 7.358749432033561 6.764722453016105 5.5506023250130765 -0.8563239055883962 -0.7103603222396668 -0.6724432354789194
Ni 5.488619882454693 5.819548118526986 13.395264825119904 -0.06046540437490877 -0.6161610159474227 -1.0848031882438542
Ni 5.511405773656826 0.8926453958772249 5.6133408996259915 0.5300275173824485 0.6369352723802966 -0.994940561653751
Ni 0.5283065012777217 3.0044944252123345 7.853803728927854 0.25466493991189043 1.6089187110172423 0.7353843550878303
Ni 4.7419024133076135 3.5057932979834527 12.418908383073118 -2.418734702852086 0.1977782540271755 0.8711851389709447
Ni 3.2916485457747147 7.0431754951568495 12.54037136065651 1.1586995213126883 0.22590920793543673 0.4567986426942843
Ni 3.3266474522694094 2.2756424291184114 0.8358706275179456 -1.1358683823507856 1.0175184469542669 -0.6987803307115514
Ni 4.477738043079715 0.014258093042993785 0.3268436403659487 0.43989646762230694 -0.5300763683425129 3.0092541069720045
Ni 2.7448149558961203 4.99903364346946 0.2437210057829427 0.9809362769548591 -2.1341562632102145 -1.4516433022001194
Ni 5.4258683349879 7.7410501694578775 4.372223336072978 -1.0795784495098053 -0.29281111196430865 -0.1911977725961804
P 7.798427248890007 6.358227343111608 3.5963975627236784 0.129577428681222 0.7630237140716536 -0.47531521344123306
P 1.9490971643916284 1.6650379961112785 7.195846526005658 1.131647916511535 -0.2787448636792296 0.18856367740744298
P 5.292266472705529 4.1181861315607415 1.3964591490355982 -2.972609202055461 0.4418710748501745 -1.4511157118314233
P 7.450152453919628 7.063200021748069 7.6787832507466245 -0.22151467841216688 -1.421830589714061 2.4035299700871895
P 6.898518908106628 0.1389568710362192 0.41222077162625415 -0.38712817478133976 0.6497913024073584 2.195656536607541
P 3.5068681915903857 7.687527880891989 5.528821829986393 -1.0009512866242052 0.7576714486208047 0.7866930326641355
P 4.918045969981604 5.575973520666366 4.777557375555505 0.7885827934876806 -1.1836245666891423 0.0870549819379791
P 0.8587686412428706 2.281582142929134 1.4506134009117695 0.5008164430361309 -0.3703424706825686 -0.3667889490033554
