# total energy = -381172.06562753086 ev
CRYSTAL
PRIMVEC
9.23749615539099 0.00000000000000 0.00000000000000

0.00000000000000 9.23749615539099 0.00000000000000

0.00000000000000 0.00000000000000 13.52000936383625

PRIMCOORD
 96 1
Ni 8.37076965393424 8.649427964632727 8.151862239976818 2.5814143134039154 -0.27498205420268773 0.3428432368210353
Ni 8.157097129079546 7.267341494044132 4.20539878625769 -0.37895618049350865 -0.11592821332890356 -0.4406960807054668
Ni 4.427494983907118 2.8382946107735787 2.8560481547413383 1.0442967434893757 0.1500477807204319 -0.4877269568420245
Ni 4.888603082267404 8.850713007068583 9.823111901954954 0.12164043322233244 0.9055818712832597 -0.495469834012237
Ni 9.019417400368539 5.571503464651779 11.685168514416906 0.5954687777053939 -0.2255752216347857 -0.5946946185435307
Ni 0.9790545109063371 7.877431931294068 6.025448808450122 -0.10729702001646683 1.2688442951905956 -0.3137689451628983
Ni 9.076680639380006 1.449289255523008 11.856344861702901 -0.2728441819240785 0.37524376463892795 -0.7691511671256303
Ni 2.9600170983448173 8.003209679701898 2.625640058001328 -0.873970672135882 -1.0379458615706834 2.9675338444150827
Ni 7.814081182279607 0.5320105005271705 5.538174578322795 -0.6740298632397489 -0.3602012684835087 0.6530290926183657
Ni 3.8052387641474055 8.005075653936503 7.777831399648731 -0.02084007667380282 0.18975744060522803 -0.9819906863613023
Ni 2.4701526742799502 7.645644676369768 9.67820422264394 -0.5542074570627616 -0.5655928160815679 0.7997388101045001
Ni 7.2734751915281795 0.5245650785811723 9.963083987040477 0.33766683482641846 -1.3991190070491581 1.010066361551596
Ni 3.59447605059915 1.3093596629200548 13.039129580292125 0.9268340957938167 -1.0433194671777708 -1.0938326454359744
Ni 6.001370350826748 5.993841791414852 3.1886405108168785 -0.3624841509804144 0.7275684585878374 1.2480726098608825
Ni 5.853967623789164 7.5932588353576635 5.77175945000974 0.31673985486576417 0.08004306939652021 -0.563221487635914
Ni 2.616714789162341 1.1407568820784189 4.004870294761508 -0.3596309978023355 -0.19450626814412308 -0.13939518610259222
Ni 3.6512219898228055 8.473398236837514 11.757717038408574 0.7901359969074134 -0.7357931604904747 0.9600769170073467
Ni 4.478365875540631 5.853191674107447 6.6644997200709 0.6930061472319354 0.9329821176730834 -0.9281774971955885
Ni 8.36906071713522 3.401680267181125 10.419722984733923 1.1235450848987425 -1.4885106075401138 0.00695560538222673
Ni 0.6103574008904321 3.822078719739905 2.0123451333158244 -1.6103253615567816 0.4956904346634754 -2.516679078009059
Ni 0.3943856632288409 1.4470075939589118 6.608877984136113 1.3508272619223058 -0.7941916550340258 0.4517279130395962
Ni 0.9270104572540372 8.706635778666929 3.8966825866385038 -0.5184079308656492 0.7459505606394509 -0.5743813609074754
Ni 6.663098391895704 4.6980150604437885 10.359531459423597 -2.2563299432281982 2.6840090428487065 0.5306229848746022
Ni 1.3678792014162064 0.7659685670610359 0.4134592454051399 -0.07794504921691092 0.8058755191298573 -0.29379918690919077
P 1.7720473731324073 7.102886349001197 11.766897262142983 0.07279847201896494 -0.14227636430512916 -0.037704970749941516
Ni 2.958788511348765 5.541130577110288 13.009479988703948 -0.07197417634545669 0.8478153538967528 0.28501681273087043
P 5.890400308845016 1.0656283253950403 2.272199596727371 0.532965774075166 -0.40559512323727565 1.2626903597740577
Ni 7.922113700466268 2.2120662676431726 1.7769487886219193 0.34651785745914515 0.0692691187094678 2.2976478281403785
P 1.0587186782292752 3.94094682098197 13.042130842811051 0.8763733680401036 0.45320295492322593 0.34110594241495445
P 1.1065411961131866 4.145658974512076 5.279023088372899 0.037366099353284034 -2.0722942355980956 -1.4278156036529024
P 3.761591594550828 1.4104086339712634 10.41996593088427 0.00979204638975733 -1.5851437200848313 0.9283538748724529
Ni 4.472647865386075 1.2224348235753368 7.686923351937866 2.4722313892186456 -1.2635380524863338 0.1543644058179148
Ni 2.243981817051887 3.4853719828520227 3.285443004859929 1.2209734396512455 0.15858332899526884 2.3284776690370417
Ni 4.921793406153225 4.392808185635129 4.815759882146606 -1.3044545881950373 -0.636612084712923 -0.9405313907752512
Ni 1.7696179116289363 0.25438771315392694 11.174896613722883 -0.8593300394045716 0.06095854196124341 -0.979876468231777
Ni 4.177140361598877 3.9686408346222954 12.001834503275205 1.6832035377737464 -0.8181311965687587 0.1486835533830536
Ni 4.809243752319427 7.03876888780123 1.4354191549623176 -0.14537608627637544 -0.7989911333051982 -0.5544488836496064
Ni 8.238063783368222 3.492337054995053 13.374304740308238 -0.615151857956618 0.2838539027710208 -0.7301066516286587
Ni 2.4541995183236986 1.838705145790376 8.10612462498771 -1.151071058233153 1.065571850818068 0.6620251254693889
Ni 8.475698373394032 3.3753718779724364 6.564721828498314 -1.0921480586446997 0.03868404683375918 -1.7974474214216916
Ni 6.207542028758178 1.2663036930809761 11.857859811081491 -0.36722449387887723 -0.788487405560397 1.369848283109499
Ni 7.345518424477112 6.340331036790094 13.393299803766745 0.6045897661700554 0.13911596429927653 0.5619549622186644
Ni 5.355807928126895 8.886138805037445 13.535962771498507 -0.3210418246752278 0.19281859602905502 -1.0162352093664693
Ni 3.0280882079230556 5.380490518002462 8.439216729608262 -0.5497589343731049 0.49788281432910375 0.4113469381193883
Ni 5.673651697752087 2.1917530134753687 0.5207841713820445 -0.3184072152658581 0.4503534012895728 -0.2676155865352875
Ni 1.378049684744425 3.3570908729710345 9.598003356791148 -0.3440606541679042 0.01375823012635695 2.414835110687364
Ni 6.96473959316695 3.9694537342888565 8.07454162544259 -0.7790972225947486 -0.032950229673775505 0.5136583319958057
Ni 1.3630295159054757 9.020396574966895 8.16647780648173 1.2325986825949995 -0.386376898437612 0.11601897327049696
Ni 6.716260182589525 7.082526907352339 10.292350844480088 0.33444524256532726 1.5222090282338236 1.1562402611389182
Ni 2.143625658216497 5.719894603783931 6.10351396517895 2.769153180917218 0.8301372198906994 0.3638046695640509
Ni 0.8092240668182705 6.731021701534568 8.011863366152284 0.1948816492056708 -1.012981992536494 1.2726595551716275
Ni 7.0567450554276725 4.470089078935651 1.901521967523846 1.3311038153514494 -1.3407025147834781 0.150887760123224
Ni 0.8072546326261033 6.054929353857638 0.43382238205248275 -0.6768267092585956 -0.8633178204077261 -0.14653565380211536
Ni 2.7716368381156102 7.846938956301835 0.5100603620307923 -0.2835096320577246 0.1501007454455544 -2.709019963070747
Ni 5.256061444041426 6.499668608932181 12.389263408107604 0.6055752700117764 0.022622365385206202 3.040385024048854
Ni 2.0572273561558014 2.4606657656713398 11.773710839348155 -0.1134884935391594 1.3765588623604552 0.08892674503939522
P 5.234575027854835 5.653135218667643 8.654928893626327 0.6276535899680545 -0.499872591065623 0.3962550767832724
Ni 3.6976404082826577 3.363141432989184 9.803588453713184 0.38798409502373177 0.1623656788558365 -1.4347377846940323
P 7.344299074977271 8.486090556631313 12.000955093635925 -0.47307089749174663 -0.37830209184927754 -0.002042998571957772
Ni 4.4082625167959915 6.5607931213598105 10.516539335021289 -1.0952248977978105 -1.3018361767355837 -3.118598496435803
P 7.96096660952938 7.6463744385704295 6.351943493276837 -0.43052968169542627 -0.4462874587503153 -0.35579362633411626
P 6.079630418725627 2.121197017416393 6.257993538063717 0.31829074429265186 0.7174241710649838 0.6892374242181226
P 9.243685333377153 5.096049534675942 9.153073809294659 -0.6556685871237418 -0.5099988808663475 0.8489499817218281
Ni 3.7374817294403377 0.7204193969946311 1.8264857858025765 0.3958038481784667 0.5296595925200684 -0.5509382993931866
Ni 0.21281805645518456 1.4597922887148191 9.259989514189419 -0.361021707502275 -0.6315760649509122 0.43897087048424405
Ni 7.66220750707594 0.16955424295136023 3.2814413215013603 0.5690013275424846 0.9743509104278575 -0.3184565804465548
Ni 2.772579062729124 5.583817047100931 1.8541345357114687 0.5912974199365236 -0.3876727344309001 0.70703948539655
Ni 1.1495047909901561 6.042772808844073 3.8196464869875713 1.630351426969721 0.9907103256224872 -0.6427187118312931
Ni 3.6052746836697103 2.4569984796756064 5.808818437308692 -2.3235450076221142 1.3180027591931172 0.008561002196133642
Ni 3.392682945871693 7.944292928868677 5.198402840192131 -0.28265474025659704 -0.1300476834494212 0.025574506034994664
Ni 1.1981863960216825 3.8191873834258883 7.575761170034947 0.40836728666577415 1.4189229291489627 -2.5448683959590817
Ni 8.474211136504076 4.832476055289879 3.840169432319363 -1.2634444643312628 -1.3358791252529059 0.23181400345564593
Ni 7.420988768520295 1.4981094229976981 7.944479526292137 -0.3395331986111959 2.619998087214385 -1.0918523817811518
Ni 7.412536459487307 6.3356845761960034 8.247949751813145 0.2830907993527511 -0.19733011074616338 -1.2343107801901
Ni 2.4216927691574854 5.006584383873221 10.72712745989116 -1.145620319531227 1.8109732238222682 1.0952670638896558
Ni -0.13504295710737865 7.818801542843384 10.292823804286087 0.5165137991667298 -0.09435331537160524 0.13367293890683432
Ni 4.46745639251554 3.6493929655730444 7.491923501923917 1.1919431138571666 0.14666292340859902 0.5275160638145044
Ni 5.926537394022119 2.538731846149789 10.07941085307492 -0.11303649360340531 -0.1285441023207012 -1.6553389501529943
Ni 6.8594598488511425 5.080530541041602 5.682473506633511 0.10089985824087139 0.8849531392893145 0.6484934095315412
Ni 6.303418001931274 8.779713611191484 7.849325001573114 -3.291678733495667 -1.3206193708803577 -0.28293164806706755
Ni 9.15660345659685 5.740595832792594 5.97488460169081 -2.2623563519279357 0.41512286022205286 0.899545949501825
Ni 5.149562350225777 8.538384022681306 3.5355768510087295 0.7771467837365972 -1.091878607033397 -1.288985803135477
Ni 5.2621674290368405 4.511214412066648 0.7385572208047643 -1.9604715597971332 1.2411483719372238 -1.3620663251712348
Ni 0.6411117970254342 8.025638320502 1.6108687679954845 -1.132117657059102 0.4194777947566389 1.2301090834039266
Ni 4.896704366444377 1.1921912609807983 4.704165385421017 0.980482477246892 -1.50187108800742 -0.42972364085436315
Ni 6.854046676071546 8.19325268924907 1.4948125606000222 1.1431613164677732 -1.3904978410390503 0.9376764378249592
Ni 6.748739219267105 2.450171969975739 4.136068605945903 0.6515566218378973 1.2331810374610312 -0.11181367693989776
Ni 3.047486949965979 3.2068060471156445 0.6759233014962706 -0.8352460018721743 0.7360258453265711 0.6693807945035116
P 2.427272216868879 0.5505686304149005 6.301189917845201 0.5515211684798501 -0.6226162846544632 -0.5783071783244428
Ni 7.878180168487153 0.7223232449637008 0.15787435274227826 -0.30878974678075205 -1.0321721923116998 -0.33657154487971064
P 3.7015109191950315 6.07381079611275 3.8643698248927203 0.24124686673377163 0.262707864821025 0.08690662928557291
Ni 9.37892227790496 8.215431917651477 12.762024092706692 0.05740656294392693 -0.5660602426362896 -0.31305623536658983
P 8.439589000705562 6.065090599689645 2.0182534358923263 0.38258477838503147 1.1759230842798265 -0.20070854030009305
P 6.380976020118124 3.4771690862167293 12.169725996908602 -0.21286960114265918 0.23772085585838412 0.2447785340361139
P 0.8914063756083044 1.2969906554936386 2.439523908093417 -0.3831406508885014 0.06886879794725559 0.7279713504532108
Ni 0.07797647676520388 2.483981206107691 4.321265624980828 -0.08223776305499385 -0.948810857175224 -0.7331742348103889
