# total energy = -381176.00228768616 ev
CRYSTAL
PRIMVEC
9.17075954136996 0.00000000000000 0.00000000000000

0.00000000000000 9.17075954136996 0.00000000000000

0.00000000000000 0.00000000000000 13.42233358337926

PRIMCOORD
 96 1
Ni 0.7813459629826565 7.9372465423196825 11.923474920600063 -1.005043711526024 0.33762415451394107 -1.3121892378351334
Ni 0.32219446134525204 8.09990830457264 7.709761266141875 1.8334788611239519 -0.2749424592140039 0.8275342350502135
Ni 4.830807645480794 2.732629566557959 2.5147277341166543 -0.32392865930471954 -0.4961984846481455 -0.1423630104816645
Ni 7.175789205587124 8.938528412213266 10.258636323467014 0.37994117011459727 -0.4984721111736705 -0.13060946949016214
Ni 4.872626309058259 8.00803563533601 8.322035105941607 0.9289493423646065 -0.6032597345047223 0.2561152992051718
Ni 6.499610761970102 8.029944579916396 1.3662991929877333 -2.0969904527931953 0.7265089069750713 0.11397468914695855
Ni 2.8865607657131656 6.180394963328788 4.5609892261144065 0.20501025299924047 0.44155148672722666 -0.39973789312555025
Ni 6.174012114677492 4.649015678793058 11.910133299597323 -0.12069375303834697 -0.3565639288412375 0.7273193186915087
Ni 3.6793362463310397 5.316995463366603 2.5626321137357864 0.6747392306019476 -1.1288937508051655 -0.9062321032727488
Ni 8.255013360951075 6.092850892602806 1.8506977956840762 0.38317484656054657 0.10938758399690837 0.3754296553974889
Ni 3.668147919672157 8.862053448271935 0.4126951849522371 0.08526549413772412 0.45332405388212255 0.17704359258298544
Ni 5.21255885353762 2.1278913398857715 5.608079039992515 0.34067142598069716 0.8694892393257606 0.8144576043719135
Ni 1.13082801938816 0.3480037299650018 13.384563084363382 -0.01785785411702731 1.4424811760848772 2.199292847808548
Ni 8.088068853985249 3.258875262186391 10.756241737000618 -0.3559756604379353 0.5577470947849039 0.2561798338945201
Ni 0.26938372536341265 3.0261305554029536 5.232763870992415 -1.5276931912768463 -1.5802470541141624 -1.3514870069934917
Ni 1.8181856189045087 1.0448980023441152 7.359237411450757 -1.9761077236724935 0.653785511168416 0.6866789194623271
Ni 7.821612435072259 8.991691305362073 13.026173469200689 -0.31973956092403644 0.6385872061614227 -1.4614931984110056
Ni 0.9925421360362763 3.007018692487288 12.090207583020135 -0.0948413107516173 -0.4816390987767319 0.0999377514379182
Ni 4.223198971067435 1.816736638894588 9.19942551668313 -2.143043795507832 -0.200170665518752 -0.03314151974897518
Ni 2.3706871991430907 2.9674010112033744 2.7389078685503123 -0.19726506183618286 1.3606936131934242 -0.03212850510342854
Ni 0.3859275719588372 0.1656046589946269 5.7086125745542695 -0.4165454516011923 -0.20569802309488444 -1.3207260716615512
Ni 8.824242406620643 1.1297275282413846 11.455746924625457 0.6690208400609317 -0.36072140265303687 -1.1262624838299053
Ni 8.255756192475149 6.864726212191505 9.717581685306806 0.33844433642239136 -0.1541260645548636 0.8213916124875853
Ni 1.4802889830466834 1.9724286238846354 9.642282412740613 0.15079751440226288 -0.036293435114395554 0.773799464530919
P 2.460780741025769 8.716678567782905 4.990181690432762 -0.08364158538105594 -0.8310653881319235 -0.008531434509778855
Ni 8.85324951909773 4.391143090824916 0.0673784875372786 -0.30438724683768226 0.26260424936362514 0.16609454977064944
P 3.5596028095618784 5.3461217957179255 12.1184480199983 0.19801942350370413 -0.8522474215261774 0.5458914809978985
Ni 0.3230876933260515 4.766254668962863 9.738292011613165 0.7846322934803648 -0.52575177282523 0.2269592464665059
P 8.063408681537924 0.10335262604941028 3.8621149867470526 -1.1468912158238507 0.1866032112469625 0.2458565975916411
P 8.213689918389658 5.319792545031324 11.593204688389392 0.6349133568542613 0.23599358875463228 -1.5878078971805558
P 3.269999393528379 2.694800183387555 6.619116763902264 0.0950634540647524 1.3580559184602612 1.0529693315627093
Ni 5.964561137167466 5.763932430350756 1.8016259783734063 -1.079801878374521 1.7427865395437017 -0.9513027703591422
Ni 7.95521206029079 7.098644776198169 5.489090268899338 0.2684193133835055 -0.21875408494789422 1.9881410006879436
Ni 3.3906407354936308 7.514685454236604 11.863759519748163 -0.5951743863934266 0.8288431836696242 -1.5602677827787579
Ni 6.977214748911062 3.6627921960911833 8.593528106003006 2.090674023656864 0.013510375781608991 0.35422319652320283
Ni 1.9864507152464652 4.203766131567294 0.5778128766144159 1.181486437300217 -0.10167530295431522 0.5733359503620965
Ni 0.37887709201182956 3.257068622553768 7.509366413693856 0.509482089130929 0.4881748430127205 0.9590803574220321
Ni 2.908121221430407 7.6939829743249835 7.119769620836479 -1.6339355447765538 -0.24932038777052548 0.005336067500932746
Ni 8.577264681005577 8.782506279879186 1.6020363186144442 2.1039257464604475 0.1589445689894295 2.7989142142297343
Ni 0.16681703340799112 7.52560782886835 3.707638127398236 -0.39877450077101645 -0.35048147009258346 0.5070901918599848
Ni 2.87965518376715 1.9509140219651768 0.5358181344534673 0.17685950159663735 0.6003340762174951 -0.21983780493037622
Ni 6.530397001801143 7.414540759880044 3.734952317661201 1.3162603225807137 1.5007991950994797 -0.8902164445707831
Ni 2.5937200715562354 0.8873902069618882 11.663618697339858 0.4615484986744438 0.037488998084393495 -0.09193442151746747
Ni 5.804879871770358 6.733685228889226 10.74880608515224 0.560628530097757 1.7881914500410623 1.7586944690232098
Ni 8.842978268394493 5.614604952492893 7.54249211428775 -2.629651808254065 -0.020551084678474284 -0.8446868355701002
Ni 2.9950508512661056 3.279472788150204 11.082472249626667 0.5973150868855133 0.7923173208294484 0.7921635688604035
Ni 9.131728803789242 3.309837173041648 2.3819809895368733 -0.1338058649402728 -0.4283954089612428 -0.7750500491085685
Ni 5.102344665188064 6.778704487551895 13.18678464961682 -0.19931808771046963 -1.3464291328546103 0.28644608897822926
Ni 4.77245410242303 2.0231612657509808 12.297944545569058 -0.8701595259199078 -0.24171172218533213 -0.5880747992341678
Ni 2.770431437449693 3.743806686012965 8.771226245624739 -0.7522801024019045 1.2274590473755893 -1.572400304376234
Ni 8.336183753785317 4.926898864113399 4.027183156307626 -1.1609728907278973 0.9366384834787482 0.7448889521441558
Ni 2.8312885978663718 6.620408006847813 0.6816240406416493 0.10099421772689057 -0.2903158563462806 -0.5660065065802188
Ni 7.131989657945464 2.634163121200231 4.111381733947411 0.3540787005255386 -0.8588662123942757 0.17902591312033683
Ni 5.674911867336185 8.865840971968753 12.32619873868656 -0.9945189007353001 0.37823267206392286 -0.9760720068840224
Ni 6.995858903089348 2.4352034926227977 12.719956305154705 0.12894905106860372 -1.0145177124547302 -0.3571545112373849
Ni 4.337053950960906 7.689581009737882 2.8441120709541723 -0.6913277310882481 -0.24906199190281622 -0.899229960923303
P 7.725970583657921 2.2268254939808787 6.803378416138555 0.1590337862691261 0.6541912312472669 -1.2692543861448207
Ni 6.990558204065714 1.3903605148360214 1.8268464842296313 0.33651266661731727 0.22501549247657374 -0.1229036162054722
P 0.4111434924352838 9.036673880986518 9.725017337155187 0.23949980213567787 -0.30230465327704065 0.2815262830791087
Ni 2.432498118553642 1.7576494350723062 4.940909033487805 -0.007820010265051048 -0.3813231380637884 -0.49219861946013305
P 0.6401135145852818 7.2806018165579225 0.7204851342621551 0.4023326504359199 -0.3506956429859186 -0.8788899638143701
P 5.002365044503521 0.03390613223214961 10.109970057373172 -0.2851440823373541 -0.5029214051942759 1.247516994467729
P 1.5681998841549238 5.767857515440923 8.170322313523108 2.69477296623343 0.21669488842602033 -0.15067590122273405
Ni 4.968378209587274 3.538867722204719 7.7078418261667085 -0.5188182789301903 -0.4795359363908 -0.7608228497655929
Ni 6.994730899663904 3.7467229875519195 1.161023662303765 -0.8359175740179023 -0.07248094077854614 0.6046255045039974
Ni 6.793350190563565 4.120202170488816 6.182622540825053 0.3574725566984359 0.6645478918912426 -0.5191813186965639
Ni 6.233952199138524 1.9419266775998445 10.17888006175638 1.0343905401192572 -0.12633321071231146 1.7774046438382034
Ni 1.868734845579725 4.400882437473878 5.984280104365769 1.4904996129456847 0.27791156914465687 1.181676698934152
Ni 1.2176476001091814 5.728258175676121 12.31296441557063 0.48759891590459253 -0.4896987358564147 -0.3987973835891519
Ni 6.714307413946423 0.16464814877288794 5.941288500641034 0.6376742074288502 0.10678408493579028 -2.351122660130067
Ni 1.098702848661875 6.609302217024938 5.860110771199148 -0.8694329321665284 0.9142169212504384 0.3218085276379232
Ni 3.8290488960902747 5.983214462105308 9.85140232583065 0.29659731847961823 -0.6655575641026795 -0.5521112366553652
Ni 8.485107718222695 1.764444967903644 8.85353197849207 -0.6924039948715623 -1.8351559917160587 0.8356177833892963
Ni 6.1457111506862505 5.845799800911289 8.835331689076316 0.25105408263218054 -0.5727176000518072 -2.858273787134974
Ni 0.7465007449719252 1.11592553510891 3.237869637422316 -0.5515090842949921 0.3791976070803534 0.2875020410465694
Ni 3.9188581444267028 0.6593766950336293 7.063382288627619 2.331348305716617 -0.7543552397633784 -0.9399006991697878
Ni 1.4239438363317836 5.964817918435047 2.3990807878058513 -0.08714625610020475 -0.27813628356095327 -0.5089323872750461
Ni 1.856895394992333 8.2883307304197 2.4177781323895653 0.99863780799968 0.11669131674717322 -1.031954419873939
Ni 5.374872126927433 5.638641513290379 4.515608639525212 0.3302954820630118 -0.7328317638693056 0.2084781569431829
Ni 6.292287400677176 1.1631457760651303 7.921445323603899 -1.046260809194282 0.14761037492353285 0.7744826066408725
Ni 4.593009850181748 7.702686025144066 5.229099235473654 -1.060115198578871 2.002519380896803 0.7460837437832053
Ni 7.422757760442633 6.588988984607376 13.134988199641928 0.575282532565506 -0.17622186801263845 -0.7465252021959982
Ni 3.9300281295664727 3.894170459700708 4.592653107635001 -0.6900663478773214 -0.856793389025647 0.25918313949721816
Ni 4.982042641326402 3.8474362690009802 10.040993106445203 0.22699344213855102 1.3691011205308292 0.3250244634720596
Ni 3.2930546830533234 0.8971515634337858 2.7740740631455196 -3.339217659616894 -0.25914097340537307 1.2501994263958984
Ni 4.580721032376088 3.9058723488947527 0.366681815953647 -0.48685098199497445 1.078350233529659 -0.46112298110125094
Ni 1.7879954784446375 6.753209775984932 10.179577956558628 -1.2934872905502564 0.6019677551661762 -1.4250856063162487
Ni 7.330554943861969 8.188259402139591 7.821488629818247 -1.3681816940403533 -1.5005392565698739 0.4919332816138883
P 4.993313504821294 0.5401476500400727 1.897232980901429 2.781912537465416 -0.9472239723040784 -2.801212266235292
Ni 4.062242970091979 5.534232415740065 7.0692341503005975 0.06751768323599985 0.7730114214119849 -0.4298131152443759
P 6.049684127370542 6.720983726903527 6.375957742566508 0.33109021005016526 -0.6761430529280097 1.9369408236650447
Ni 2.754850316963265 9.069624420072884 9.38621096194936 -0.15092349845716588 -1.0010214777405084 0.028900227974117967
P 1.243353239145943 4.539480126650681 3.838263675292607 0.7338329514403104 -1.2638203596134427 1.4391014609793666
P 8.880440821182638 2.118298725389713 0.32972732324492954 0.26525762782607226 -0.37438938705843267 0.6750739882335471
P 6.161301441932236 4.2193839350919475 3.0791641408420154 0.7375024298720976 -0.39399276311165693 2.013452739979855
Ni 5.257926601063434 0.5980765869303734 3.9594405896159564 1.2338099292942815 -0.7062648120140547 0.8029254353625978
