# total energy = -340873.3018424691 ev
CRYSTAL
PRIMVEC
9.23241252565445 0.00000000000000 0.00000000000000

0.00000000000000 9.23241252565445 0.00000000000000

0.00000000000000 0.00000000000000 13.51256895785790

PRIMCOORD
 96 1
Ni 3.318913773582248 7.678255798374711 2.9685631108605164 0.7328718730786217 0.15291044698020761 0.3621915594406601
Ni 1.996656901282497 4.203794340585017 7.928081185101908 -1.0914975695448945 0.08020607733694575 0.4042859175075489
Ni 6.358002359566948 5.182226942492467 5.100589335797053 -0.5001716103632806 0.9794190689793844 0.6157884630993524
Ni 0.18097836417832736 7.915464170308585 5.989405680208276 1.1944846493320977 -0.7067422658711054 0.13908896771608306
Ni 2.3475901292270143 4.570976614363171 5.026445678251163 -0.961929396835053 -0.5394534386820388 1.3377765993859347
Ni 0.7689851708355988 1.8798668843532358 12.204674020745339 -0.3950515433934744 -0.3767324333693125 0.16782773041167223
Ni 9.072313141951842 4.087585965637301 13.220224613487758 0.36325856725259376 0.6451376056854309 -0.7587338284470481
Ni 0.8743879303039468 2.5856201858649754 6.2264968005046 0.25141532262634125 -0.401094921374077 0.1047004629338842
Ni 6.841549959303712 0.14354739456280932 8.762603558639013 -1.0177932978822084 0.13374441557471806 1.5513216293290637
Ni 2.3981837492090183 2.38285794461593 3.1660896510344174 -0.8367781222459847 -0.042942822110113146 1.0309028386809729
Ni 6.494835943828496 3.474803057048696 9.086499666854095 -0.4815979611261512 1.4618189571815403 2.2056740687445435
Ni 8.885938432722515 4.703046273823493 5.362787078388826 0.9264137204269466 0.15183058365246754 0.8499642819189556
Ni 3.456393626712179 4.781881843353846 2.9289172855089243 -1.2212457194760258 -0.17512143585960807 -1.4484993572544989
Ni 8.00359677913125 8.13080095725389 2.1340130400861947 -0.5840926746579683 -1.2565626496097648 -1.286380761412462
Ni 8.875274996394191 2.919768888056339 8.271138242023314 -0.19884037674310273 0.5313410939875495 0.09938265026539658
Ni 5.542752646926273 3.999508751289068 1.4548573954733883 1.2519207799623795 -0.03133480555753958 1.2279586127198272
Ni 9.26454120064624 6.84239010883261 0.5949514272686699 0.01845563560202628 -2.165239357768265 -0.15735948389049675
Ni 5.993774457758546 5.761320778213492 10.145763885853961 -0.06143856692145548 -0.2062965759108318 0.7087240721878245
Ni 4.791437390193513 3.4433297631584314 4.472092861294329 -1.8459739082671696 -0.2696285032002583 0.2714323891782164
Ni 7.121661351685828 7.86532293853445 12.882396794952815 0.20621507194061905 0.8605947650496082 1.919498202708565
Ni 1.8210656497427644 9.045188314304555 9.176371662173953 -0.3759644448550364 -0.8722691160637429 0.5835082629094079
Ni 6.375793218272299 5.1042222900786065 12.926393856271106 0.9995603198139495 -0.6719529261060622 -0.2441812667717472
Ni 2.6154593427594715 7.189565744928098 5.463752740455103 -0.3109134779919742 0.777590556142235 0.5671791867320812
Ni 2.8687875067533053 1.7848191986388686 8.165929363215481 0.6245453833563759 0.6262148006389989 1.9099691801722074
P 4.790311035880046 3.242764836061889 13.017887063209367 0.6244916473003052 0.42454312509468817 -0.11596240900094867
P 8.29988335804776 1.29173451688725 5.909505613527572 0.1393576479964374 -0.5777564480272953 0.3169337160441252
P 5.003967523767552 1.928189330883493 8.87294750522677 -0.40923271998986294 -1.3212492911548728 -0.130821071280336
P 3.1513731856600895 7.741091597206375 7.875774029377447 0.4811500749554552 -0.1482436376321576 0.20180768690154277
P 6.592320986417909 7.784723978234651 10.418623218291579 -0.617423170489298 1.1317407333356573 -0.10207870904032097
P 2.9921417689028593 2.8996237641875924 6.431212620218645 0.34664384151404815 0.673518470820969 -1.8620831551242059
P 7.880898018262486 0.7665275026532612 12.99723969610576 0.5181683040510173 -0.5847457348609348 -1.117440000442269
P 1.0520241611914922 6.0137072361419674 7.056534068095126 -0.4602899436769944 0.3120573617884303 -0.49092386651276737
Ni 5.345963776503569 7.145130144020547 8.103298523939218 0.6436592213676914 -0.5151814535085514 0.6521168652167415
Ni 1.7167855516229222 5.7440469346028475 11.97263579975853 -0.3250450322973499 0.38997669997372836 -0.004769653474501463
Ni 4.2708770491232 4.725942656589072 11.517032865890657 0.497777141989175 -0.24733292502685145 0.25059874026231677
Ni 8.047478435294474 6.475918730809677 11.46626567655543 1.9647028242696616 -1.133809442939228 -1.0863355657279807
Ni 1.0685132497476708 6.424725004021317 9.523577765230382 0.9860039212857536 -0.7202786097946433 -0.38043867857630603
Ni 0.28890803492205397 0.8174830332015599 2.3573626377582095 0.7371753855499821 1.4665593000800032 -1.6617553952022992
Ni 8.089513608976603 5.195715497016866 9.126010698984567 1.0516768380035306 -0.9357697077205497 0.49771826372678146
Ni 8.182345515713656 0.06395476721520772 4.093524253296502 -0.9511335917711297 0.023651320870352818 1.879768488219111
Ni 6.705870426592847 2.1094585160525927 7.385105469952341 0.7475017071766545 -2.1875215662052327 -0.7727543110958562
Ni 8.741201903441882 0.1415827372029242 10.47126828031008 1.2392318716408013 -3.0691186445381207 0.7027048625769382
Ni 0.416343023354828 3.9910149318760304 10.507752004412795 0.5155702043065379 -0.9519871980206766 0.10583971874465
Ni 2.8636819826930773 1.57841015448966 10.758369532124382 -0.5979871732518734 1.467910414791259 -1.269683760372755
Ni 4.2541848474941 8.850005883640405 9.620016775494253 0.654979017255885 0.7459554457354571 -0.18300983746874933
Ni 7.718666067473476 6.164241720413241 7.1488249554652175 0.8119978299775112 1.6558832526922385 -1.0243992332345002
Ni 4.57738390857257 1.4491471484006018 3.0689748281824643 0.6885074880306336 -0.8537579446334329 0.24023333786759277
Ni 7.041228574809328 1.774663544992846 2.2814214295169735 -0.006154192526853918 -0.11147480554324027 1.173542499862792
Ni 2.430100198894746 3.629418267603189 12.420117903674543 -0.4200904886399733 -1.1544841976797602 0.23125273163553722
Ni 4.7445644324109155 9.251431175030467 7.23661596502888 -0.1363286313621265 0.9561883805862177 -0.2525774612552424
Ni 2.2652000809205535 0.2045173228473269 6.683681246617529 -0.7418190549695806 -0.7605659965597805 -0.6218061300483421
Ni 2.5848723604601322 7.3355948119455 0.4013015770638278 -0.6663594911786848 1.988667562615375 -0.22834738506328414
Ni 5.025137445413306 6.925915743864944 12.293896977473091 -0.6865866168588369 1.139809883497037 -1.0005139419764704
Ni 8.33600055537798 7.505905123589301 9.02076119756215 -0.38568604301817444 0.8709380559571451 -0.4854353325943704
Ni 3.4866020801028936 1.533568327436267 13.123136564631782 0.26856663759464716 -1.0705631333850725 -1.6115875160986568
Ni 5.464849551048873 6.14198237410364 3.112782625046444 1.5190218887550937 0.8201695671550262 -2.395039416117675
P 6.912076357669136 6.255605673577823 1.1819906771058475 0.5390847424887103 0.5686166905095562 0.11332008628209517
P 2.38763110182956 4.265946940898676 10.176680465276176 2.5671976555839016 1.3529882741293666 0.43048880115516186
P 2.077892898038273 5.288538171341513 0.6163973980453482 -0.5308464137393181 -1.1119635507087302 -0.08677961678940539
P 7.009875302280335 4.301417869360511 6.96678301737778 0.2916456309012977 -2.0182522182510274 1.1923976848960818
P 3.5924609207440725 0.4196509967197097 4.988894687274374 0.9808514305505366 -0.47647580940823747 -0.7168143053951268
P 6.6535780427282365 3.716027528378952 3.291728935254326 0.8180314377661009 0.4356245797198304 -0.6065150082172264
P 7.668681786710233 6.9879113931677095 5.028526664007356 -0.3555655694837102 0.604330598971398 -0.37672960515583503
P 0.5801223264629956 1.8682802067843647 9.858162237287283 1.2812059020797417 -1.1866944638637174 -0.4845858401098815
Ni 4.189133269685122 4.705742138245892 9.088094104476522 -0.02859786624235075 -0.2561548941938556 0.13799522043127202
Ni 3.685652891564939 5.61894774650866 6.946216895503343 -0.01952212919332767 1.351525059320279 -0.3078952599909407
Ni 2.7938480152580634 8.72292172687904 11.55519227284497 -0.13301422227691284 -1.0113958789962967 1.2798830695032604
Ni 4.9027525865663275 3.6844065158901995 7.134109413332131 0.35388303957496475 -1.1348854496122263 -0.5050327951103238
Ni 7.745781662708357 2.016515820366674 10.85028189058585 -1.2596927105983144 2.208214832888526 0.8799487440961878
Ni 5.753907151051896 0.28779460598595363 11.629835403901996 0.807232547378384 -2.3322286514390416 0.39933602970144133
Ni 6.907469383878803 2.8629341572882336 5.195393285823915 1.8540669696879488 1.4560805120358666 0.12024201021290905
Ni 5.976749889282851 0.9340246982371138 5.419769527755419 -1.6232356418605463 -1.8619317171480063 -1.5926204880778505
Ni 2.8884156155273457 0.5371436002330275 1.579821790346457 -1.1185332335064477 -0.7844939681302877 0.09808321472768268
Ni 5.977229974727935 0.45560755007407344 0.6246834881792621 -0.4965332422797449 -0.25553911498672766 0.6855643462419097
Ni 8.631640865426107 3.3830790398003003 1.9206898422865253 0.4968147780759056 1.0579598427987649 -0.22713408148147332
Ni 3.371686242891944 3.216138558684498 1.1802346722663262 -1.2581418211714268 0.037018486205878186 -0.07432287908329135
Ni 1.5215754237215549 9.093086069864162 4.219704556883372 0.6601765022964243 0.15756645769498026 -0.1738842210183973
Ni 5.407414713474411 7.682271897771093 5.408000048420919 -0.9508507704233882 -0.7468231930523912 -1.0442705182371306
Ni 9.050847783109113 2.5276129387213753 4.068742611917726 0.02825282419810618 -0.6814606084861813 0.3708775172504322
Ni 6.943466559847752 2.5754091377445203 -0.02714790867829979 0.09580675998868016 1.192683334457301 -0.830584334730447
Ni 7.220337375475547 8.405179021532206 6.655413446314445 -0.07489057866130328 1.4335859304777763 0.35789781716131264
Ni 5.168479880420714 2.244224039935314 11.061253592945844 -0.46277440066174497 2.200885131996332 -0.7082466183307737
Ni 1.4596444013056271 6.344929263600795 3.3842635583119227 -1.0626071117627893 -1.0084339681544956 0.4699979149933776
Ni 8.048032380038803 5.701854809909826 3.3409690835776877 0.10172312547311513 -0.09574582484375768 -1.62629371196058
Ni 0.6062546697766931 8.886224637507084 13.25015424802383 -0.19344671653135717 1.305463746185842 0.27086674648273357
Ni 3.4621361872283845 6.562860358432037 10.40370548632681 -0.37762717726944 0.8265307334863636 -0.8313944893365681
Ni 9.182742026733731 0.4654714594880831 7.765646121239977 -0.46753119862044 0.5064705559981149 0.22230760662710747
Ni 4.2098600355354145 5.770682444392644 0.82093964840617 0.7308113910051672 -0.14674031361375373 -0.30183876938421567
P 4.273342103235462 8.70961782060275 13.29742142981614 -0.7131643673473653 -0.39550225777764786 0.3196590853950882
P 6.209397449488419 9.079209754018732 2.9051078171564444 -0.8651427894316067 0.05569755067262021 0.3231694125411918
P 0.8913635669938941 7.6022822766900555 11.521681385536814 -0.8523836899937255 0.9165329709781247 -1.059525387513672
P 7.788629288682166 4.230392920725191 11.252023853721418 -3.2837039428203063 0.48778197844967613 1.0863144826820583
P 1.2467080415857474 2.4189566771213373 0.9013825809363156 0.16039544250334312 -0.673970213646407 -0.3316142008744353
P 4.116400324754789 5.834764618899047 4.602394513779003 -0.3368278838648909 0.6681584920606364 2.368081913692225
P 1.0752898404532896 4.130645937096437 3.2808790041954117 -0.8065787158444689 0.6696260777450984 0.2659880782341935
P 1.0799152790684328 8.085165142733624 2.2354514016676315 0.7861317608440268 0.27618610181311787 -1.1231115969057497
