# total energy = -340877.0021720277 ev
CRYSTAL
PRIMVEC
9.16098500197549 0.00000000000000 0.00000000000000
0.00000000000000 9.16098500197549 0.00000000000000
0.00000000000000 0.00000000000000 13.40802755694471
PRIMCOORD
 96 1
Ni 1.5290783490581557 6.438587691918474 11.03358667398574 0.049941622025449474 -0.36305056500684574 -0.2619218785846199
Ni 5.415891956588142 5.129656976381075 11.093815570685095 -0.2025993295649027 -0.2949548977801888 0.6133127478653503
Ni 1.8649841906088853 2.579467742419083 8.830151720158609 -0.8229980377427568 0.7425155668159729 0.852286502294229
Ni 3.708174397607189 0.6592849520425653 0.2692569264763024 -1.0853320641641309 1.4394724711655402 -1.9087782451878998
Ni 4.519407113314549 5.849472221533583 7.488142519534582 0.4261356663927887 0.9827836145762429 -0.0782749217525039
Ni 8.6451117299295 5.3282671338747285 6.715356626196658 -1.7230309541833293 1.5544565754136197 0.8013298087407038
Ni 4.277886901498926 3.408371998431113 7.416154582329743 -1.2430299052306528 -0.8578858507588774 -0.1925056927743265
Ni 2.634873380450523 6.740295576000393 13.224619486151663 0.8547961560899602 0.2162125494729631 -1.1208212582096762
Ni 4.532992854253806 7.163523927755436 11.747765164991298 -2.117249460152547 0.8958895836961602 1.2569069203230614
Ni 5.658566452529421 8.699124898222054 0.10961668360267846 -0.027933750295790604 -1.9001277686017535 0.26378489993528764
Ni 2.4233004290060602 1.8517007621787285 6.595529108574494 -0.46845962397198027 -0.5238139323725689 -1.4869098387118973
Ni 3.345417708657294 4.677140955183817 0.7949179172995902 -0.15279114779352396 -0.42795369343813394 0.31827840299747767
Ni 8.831153015832689 1.244446541247831 7.9364930407958445 0.36163028762055144 0.22599662544292046 -0.5540344218200071
Ni 8.107728342541227 5.1568651022000855 1.7707442205372537 -0.627062493351275 -0.39163249040959647 0.3966751950398265
Ni 5.702346800438192 8.593562866635368 4.079915264668432 -1.7322103066897523 -1.959539534901167 2.582001296255637
Ni 1.422792599646653 8.769966796187848 0.24914673193155748 -0.3628381918857235 -0.10612742518839786 0.9972712666694565
Ni 6.65983464365414 1.6978145340616433 4.280915523181002 1.0766340221695008 0.1767898247009665 1.7197808226771478
Ni 5.015813414242069 1.1128947948636578 6.304253754352067 0.4583929837645977 -0.3215609304034914 -0.4569292547348776
Ni 4.781979268945689 1.7017720796353177 2.9275622746776215 -0.03624227016148597 -0.019092754965392925 0.31121018329678657
Ni 6.5764880009937485 6.480416749995782 12.77927193581413 1.6195211691234366 -0.0022641134438283585 0.1299327551381117
Ni 5.789476929954896 4.701133575224217 0.9583242411577916 0.18341298644443896 -0.5084055682372985 -0.3030739273428974
Ni 0.2254023745880242 5.219920162810271 12.934066933655538 -0.04503081498739342 -0.038917760111120074 -0.48017511263669566
Ni 5.05505907451434 0.8500780409297003 11.111674911184812 -1.5070886276526174 -0.8191472965380989 0.15701804139067796
Ni 4.190243756815264 3.1701955461858398 12.27541134129101 0.9772097200328912 0.21862167313508798 -0.5883607059057028
P 4.563828730182018 6.597475817913397 9.556759835780746 -0.4798570671756446 -0.41888207015416895 -0.10294259970251303
P 2.5226696346487567 4.662785691494124 11.876763744821345 0.18852742485286886 0.5426554905591042 0.5841767497313423
P 0.5518165194515225 1.5410975615411664 1.3964327810501473 -4.352538523550046 -0.8210913076383471 -2.0835178722280565
P 6.408814490264674 4.6159180915984805 7.071997441477605 0.5981470958685053 0.16409525995243351 -0.012226623973178943
P 4.60452182610392 2.612355679015126 1.068581277620655 -0.6653356778998607 1.3563785307578382 -0.4595463806427505
P 2.3583490444751556 8.395364953472304 11.602596530318445 -0.8975952535333575 0.3136506744174792 2.0036735491059043
P 2.130121422074814 4.85061336949654 2.9196655055005216 -0.060244803723670436 1.1476574045659138 -0.6068394814361807
P 6.839921289226568 0.07939734197332803 11.816132680875034 2.8341149305005837 0.29277794473352803 1.4382607102456262
Ni 8.316424744656675 2.994945900759013 0.36725381654738715 -1.2449651745801527 -0.10183856800505686 -1.4052354043595412
Ni 1.1567392696682992 6.275980205963107 1.4608720665126063 0.8424723444172845 0.5553094318776888 2.0337827097864585
Ni 4.202629408703245 4.429226375751471 3.1107966347387412 0.15326963009183925 -1.420317238393328 0.20001331400528136
Ni 0.5671062036238892 3.4916545141956337 6.659123751208498 1.2436765376757162 -1.889807103402036 0.19263553348397147
Ni 1.0125453638126667 3.8305101929563703 1.3579648884149258 0.40375807002853686 0.7754475416573032 2.163120511653049
Ni 7.021281311731268 2.866508889317084 2.324737390054297 -1.2094060465286203 -0.27812291382451454 -1.0268896037565218
Ni 1.1870438084593051 -0.0742470361364769 5.162492695361911 -0.03453557188302439 0.37019180403731733 -0.19512359001314783
Ni 2.363433391219113 1.7874547735023911 1.8827418441737236 4.0804600161473985 0.24030275765294742 2.0218898150036146
Ni 1.0743728524162033 8.5612703940724 9.655630683832682 0.3739404724464721 1.8857105647351589 0.3824649649777155
Ni 3.5911611346151946 8.59158409384853 9.963277634570652 0.457653791605728 -0.10623309752832671 -0.15576591415113175
Ni 6.752378915379273 6.766349417693748 6.114141326659664 0.11400142861983592 0.850658993993135 1.2644099135683258
Ni 6.012785103343518 1.5600974446888527 8.588740524065964 0.37994142722491336 0.17819236147544798 0.13475845866152922
Ni 0.6520349484152369 4.030402888367419 10.79192080250664 1.7286465005978942 -2.547176475266968 0.9318711439970919
Ni 3.494393648747783 5.008677006830282 5.512173910243969 -1.26816192441159 -0.8345654308653819 -0.05162877991988528
Ni 5.663321003808903 4.082052522497919 9.161705177676808 -0.6982514547912749 -1.7709092659218468 -0.36980176768775025
Ni 7.967803455753493 8.842759983985108 4.939423623685031 -0.3290775504955107 0.4678253328220911 0.6165037439988222
Ni 0.4550646072588228 1.3159571911276955 12.341338370737647 -0.9925144687107615 0.1591325166305195 -1.271284786311288
Ni 6.299762123345649 7.241859511552863 1.930072073818141 1.8282248118138644 -0.33000391896452197 1.2363092986773676
Ni 8.043647251597125 6.339300935141894 3.988633376693419 -1.7618235015704948 -0.14408770648225505 -1.4864935771100853
Ni 7.943563489114737 0.34859838644037255 0.5008878548503015 0.5167243725156392 -0.7812487217201126 0.7703433876615184
Ni 3.5512467224288544 0.15611234750227682 4.355276155533019 -1.206108349613955 -0.1111953266296085 1.240986906658695
Ni 3.0591735674651024 6.833160482204875 3.9748900668100253 -0.21874174365272006 -0.4622447534105201 -0.1664953847534939
Ni 1.9054757448580526 3.22924725629673 4.297272462120343 0.42934311758649285 -1.1193485303188915 0.5270254973313311
Ni 2.027573354594004 2.911489326277132 13.06004880108417 -0.6254079884669874 -0.37585003076435913 -0.715289126999852
P 6.369101619751068 4.668859424631499 3.244675271344473 0.7582108660640425 0.960853390162055 -0.0827373283992317
P 4.293671278868002 2.460988721807208 10.11713454753534 -0.6112221838849087 1.84389182892716 -2.0947206829224116
P 0.0061992386335772975 7.1140546080845075 5.468839702310747 0.35545089828271687 0.18962657145431858 -0.16587394911941108
P 4.7748703444892735 6.7627491505399195 0.5942602796306669 -2.0783301573795305 -1.1315088198305094 -0.5713487447287386
P 8.48666333122054 6.9589224859905245 0.6199577590026895 -0.5994205632642903 1.5857515288721595 -0.4659180884970492
P 1.922771684772629 8.910129868588813 7.306329028266233 0.6629201264798326 1.4323870250736688 1.3683264471483338
P 2.276266617761911 8.391718881392853 2.8171604946497952 -2.201483170591647 0.5025226270939603 -0.8081159784246018
P 4.430270728055635 7.5689891293545655 5.949731874930357 -0.06695923962936855 0.6347179530140036 -0.4732984401215203
Ni 6.761805569072123 6.042906422432038 8.800264922289267 0.8024073580755987 1.24284812823715 -0.5436921593537346
Ni 6.059277102849066 7.976698772309136 10.351560492470746 1.6925649243839882 -1.1167794840401348 -1.411099576449802
Ni 9.004982708565258 8.176444891958196 2.5662566857714073 0.07514177544016092 0.3762002150149263 -0.42591660840344714
Ni 1.0564448045280537 5.320297076816636 4.744685814603395 -0.3690499771233902 0.43475760373384487 0.07109614461587756
Ni 4.236580019573701 8.683725282228197 2.1071923924073386 0.1385814319520452 -1.63170099901908 0.17992554211647077
Ni 2.0502651147467614 7.0326134503299595 6.244547949903306 1.4788450594258917 -0.904218672387146 -0.33483785001805555
Ni 5.278165706230228 6.141863383744144 4.446503993695799 1.145880258060833 0.1415240595201369 -0.7857396676119307
Ni 7.936005676387235 0.22876262393159766 9.920921819848699 -0.41163541589408464 0.6419430100075332 -0.08828294080780925
Ni 5.437750067094593 3.5637056621978287 5.34091387383875 0.245368602211629 0.537386528850681 -1.4526231496148854
Ni 2.578524160951285 1.4753491713044524 11.32384332666235 0.2561394675748879 -0.8283492747523412 -1.1846689487932565
Ni 5.149582119026309 8.364235926020116 8.063024567331931 -0.33642473488920127 -1.2331882365498827 -0.7207560636516942
Ni 3.636095766649621 1.074995799404652 8.411820831050989 -0.2327686540594314 0.39694284687891634 0.14346524240690778
Ni 7.958724919495364 4.046059011944756 4.5878250146164685 -0.18559096793236424 -0.27329875296299383 0.5448434993493585
Ni 9.250121509504957 7.70429687963968 7.517036266616454 -1.0557731195600915 0.6510370018890013 0.38333014119148817
Ni 7.252696956954847 2.6684941958565056 6.516140927586291 0.822204595307184 -0.884657719536083 0.7954640939885462
Ni 6.758938180728234 2.5553560295720668 10.782307264717256 0.7305547949096709 0.31060391717135544 0.4405325585444091
Ni -0.05677062481495273 2.4932353894445547 3.3380760951787236 0.20340537040596582 -0.4372880834651824 -1.5118253710066545
Ni 2.4333317077171097 7.036415259156522 8.63556048683896 0.5332308548110946 -0.9030467635662317 -0.7775936414660285
Ni 6.000170426827431 1.646302314708008 13.09853043519708 1.2732033434902394 3.353746192250372 0.7086173714066313
Ni 8.042859406876442 3.687250707583411 8.890956842822279 0.10453976898630382 -0.7802621894371271 -0.39567400746882175
Ni 8.76776815975803 7.856937213779867 11.738875345026731 -0.5515563925931598 0.10516737526797372 1.0501902261556753
Ni 3.075049554685421 4.826272632021419 9.380443851685456 0.6137529207265624 -0.8969213673947843 1.2348828506434861
Ni 0.5336823493980775 5.41372996409882 9.049252253079663 0.5965681814171597 0.8379626294723891 -2.283055275038184
Ni 8.120590365655667 5.4370813151805235 10.90204042419264 -1.6537086136384227 1.2472704256745617 -0.5608727848980792
P 6.980331708225887 9.14492591732324 7.3678853517100915 1.0711177203369617 0.5994041082040581 -0.8549288250130825
P 2.267316335295523 4.797113216370943 7.334057498040301 -0.30058252837961136 -0.019697735539243495 0.21132051148798447
P 7.018917777569213 0.134561129997488 2.8474897681006364 2.7373080113821633 1.0124793418684628 -3.0219527854855954
P 9.11746128392075 1.8314458240690206 5.326821530422123 -0.185126626701436 -0.5226718483483257 0.7922818396058227
P 8.538688565741133 7.2613357659270115 9.527811122788128 -0.8300798842902027 -0.9568794931159713 1.1192127760719757
P 9.092204447933204 2.0677717573191954 10.157037050441016 0.5337224497355324 0.10425411942508496 -0.5796292395699759
P 3.746806271876135 2.2955596524335737 4.797835101998734 0.4518801223467443 0.21339333485661313 0.6488482217677987
P 6.988228477402988 4.231376580023129 12.281123215515978 0.40459984920354186 -0.5415301187054093 1.3016770254499002
