# total energy = -340870.7879828535 ev
CRYSTAL
PRIMVEC
9.23538239815917 0.00000000000000 0.00000000000000
0.00000000000000 9.23538239815917 0.00000000000000
0.00000000000000 0.00000000000000 13.51691566646864
PRIMCOORD
 96 1
Ni 8.780705814059683 5.746541069312567 7.6087118074889 0.48487817453931975 0.9419532108234422 0.18361353249101928
Ni 1.1570456170260814 -0.13075454045093757 9.543280553399589 0.4052662791429472 1.500205784489855 0.5940032489034608
Ni 5.011072176576951 8.165851012176535 3.5400124840613634 1.8875872129325815 0.6190954159853983 -1.4972618713701829
Ni 5.988618906175117 2.8370724543273216 1.2789286493856806 1.2074761764957593 0.3827884097554053 2.3334463258962264
Ni 1.2988641452902852 2.462503825170016 11.787439626750905 -0.9114072197157853 -0.5625517152623989 1.039633019465119
Ni 3.746886891252287 2.509428801863844 1.286809200972542 -2.0248262719241192 0.24921342987901593 -1.5647548720158342
Ni 5.347812680456177 4.815716138000973 3.1612685386349617 0.16193913284137915 -0.06565080523059015 -0.7575423792421082
Ni 6.37365122330607 1.385316557577418 3.904225479216152 1.1615146221639803 0.5766812126852456 -1.6272226515327524
Ni 2.9060053466797577 8.696700778041762 1.523842672105871 0.060980653448430455 0.9984709434045127 -0.3076782588841282
Ni 0.9906517368661336 1.4112495106489136 0.7559012521997823 0.4238931502155151 0.015964493749056376 -2.357855093757894
Ni 5.853117379300123 1.2393698134930724 9.663499369896122 -0.5528278031064157 -1.9580837762912473 0.641446787097405
Ni 9.047368238200125 7.0103107624405725 10.035146847680025 -0.2520814954554304 -1.2278516548283176 -0.9973365726897534
Ni 2.4904500915497687 3.270784470760216 9.893476085530189 -0.9092089265128858 -0.3830969421347596 0.467795250915104
Ni 3.798641972809502 4.317485741882371 5.2655143430592 0.10815345447949117 -1.7555001304556284 1.439625708913953
Ni 1.294819047909475 5.226976940432157 5.973894936416611 -0.24998398949645334 -0.946443385384312 1.3648942815383331
Ni 0.7352555554079988 8.220302825320957 0.21038015825429207 0.5545985218535933 0.7078336991630713 0.32480129171766
Ni 8.871092499141852 9.150804518257372 11.62100603444772 0.05091452746168006 0.395272401155029 0.4337777563190788
Ni 4.885637216243242 3.5673787684422233 12.927875408983864 0.055767741788923304 1.0862607466259873 -0.26985681716098037
Ni 7.717288501249707 8.263311999984046 0.7247733966700546 -0.9330245408752448 -0.6016391681821639 0.01577834588017928
Ni 1.4151191357689124 7.402057202393099 11.689955550488023 0.8897227927638159 0.4418309656408584 -0.41815856172458304
Ni 3.8830071887311943 7.408725148303932 11.357736689708442 -1.045115125625613 0.2417991396928158 -0.8034049461021777
Ni 6.532398207047501 3.313895234626933 9.221456115227545 0.5985019081047629 1.769561493644701 -0.3098770663076599
Ni 5.807014351617465 6.780682220713485 1.406637360804218 -1.4641126383117238 -0.1929191261626613 1.2273808858394861
Ni 4.431247179181046 6.312402168900744 4.787488192465708 0.35462454572667956 1.3218023354448656 1.0184805537572201
P 2.5761359671186206 0.027693216908898248 12.905964464837808 -0.28997364251551355 -0.08837112964624136 -0.3107509842721809
P 3.6444849739956124 5.935617048027926 7.084499510773417 -0.6615898377041831 0.060158157547135105 -0.8401424107325272
P 0.10538771630511257 0.24094373193477894 2.5623881772531543 0.3292035345504137 -0.21042653891880533 -0.3103401219870075
P 6.723367439103193 9.179563498266145 11.680290723070174 0.18282111849671095 -0.29817520448969936 -0.6290448138886263
P 3.489940089131508 3.44197151425496 3.33366357011466 -0.3800134181134294 0.03372413172532257 -0.974859988853792
P 1.9617891112536097 5.729714203038968 10.225965543006705 0.2773343564849482 0.5634258903372361 -0.3205057496660996
P 7.057632860566763 3.419354063374585 3.298113813612485 -0.2670154910574434 0.6203395728051445 -0.6948953938348483
P 1.288668283398928 6.290523548592206 4.256138792426276 -0.19514081640432845 0.06844919391133372 -2.180192379533671
Ni 1.5591818618950726 4.80214012624346 2.4466965450855533 0.24284197913503341 0.4363326615304485 0.0828748824183605
Ni 7.892723820532516 1.3141394673630251 1.3430674548651067 -0.9455879793625521 0.18817184128566303 0.42640537511440757
Ni 4.274587391805057 3.7768187647938527 8.581051628632043 0.5660998376249734 -2.323565576447405 -0.5688827996867494
Ni 3.97258116018434 1.3068342800839818 3.1422639692508723 2.0987961385433658 -0.8735207290826569 0.49017053328651067
Ni 0.7162121974188879 4.979718054184597 11.816311278421884 0.25749238205835656 0.12178544344062896 0.9245159891836013
Ni 7.1915274309480095 4.246899716125448 -0.15964189227156814 0.3655298797852737 1.447375528062701 -0.21350157829970326
Ni 2.0097946276587497 4.934584741627476 8.203753944050012 0.07607971387339801 0.592467786095541 0.29729280188474605
Ni 9.081225149154577 3.4561016489413516 1.5144355118499506 0.05736645373461088 0.6063573995934396 0.392221273033531
Ni 7.892345169864449 8.978546170433464 9.264777445807237 0.7934208383062722 1.4340219895739301 1.0980381988768895
Ni 7.664342055395403 6.952645036308658 12.09847713857412 1.0800577031390688 -0.29209968771958084 0.1955254534372568
Ni 2.4371157596452506 7.482839090041379 5.613115656344437 0.22668259576635152 -0.028114755958345124 1.4644114004990652
Ni 1.7170053074217055 1.6533827598043507 2.821182979341742 0.29637388961490246 0.4246300283815396 1.0323429135616091
Ni 6.36833164318884 4.65471572101544 5.284384075863929 0.9398611041811039 -0.36799839593042427 0.7932025516478791
Ni 2.5660509298130383 3.043631011448784 6.977850241266893 -1.2116940712318487 -1.059815407950265 0.37761483597426576
Ni 1.656208786741629 0.286553590210736 7.024741047046772 0.25929189716094053 0.015249469959902768 2.2331133959024188
Ni 3.1445737383260797 4.854772569104732 11.923136020189219 -0.22468227750687111 -0.020262606903778006 -0.6271337129088426
Ni 0.27978405509627513 2.0933563653335687 6.093357375115228 0.35622300056205103 0.8529601313224859 -0.02615686090102592
Ni 8.546071695208397 2.1299469494038195 10.276978099839225 0.34564908170094666 -1.44207519889571 1.1246527161406243
Ni 5.5177067704502045 7.810030208779605 12.94068950171417 0.6762425546203514 0.8791491310130279 -0.604908582962055
Ni 8.095172632598132 1.75789957957291 8.003406181423058 -0.6665870338084584 -0.37797196220336843 -0.05369080465523656
Ni 5.937824304361291 5.491699934321526 11.20062990983649 -1.3637737947806448 -0.48581302764876333 0.19438619762649104
Ni 9.11562694765576 3.8575729462956887 8.904294621502013 0.16624675907779754 0.477118842308875 -0.32369648868925543
Ni 7.605678907991507 5.465120504499673 1.9206048481029592 0.3477285899377947 -0.07540377085229595 0.9894463713083991
Ni 5.980187002274022 7.78241641615718 10.036323435365675 -0.9575099276111186 -0.03753990592698696 1.3223918893997482
P 0.09194192343588528 7.958313504547388 7.854720222993626 0.5092856568494067 0.07411153440343367 -0.34334434482716997
P 5.966278516759181 0.26259423830426143 1.8582106063112844 -0.41400057369215154 -0.8125539595912973 1.1488709652580409
P 4.67180117798918 5.874829762729997 13.086131070395021 0.35014516979908733 -0.32126499642962736 0.42493007612046174
P 8.513627797722584 2.6150076905794193 13.147551902908301 0.917483250706536 -0.829812746671745 -1.463923662229369
P 9.02511096722352 6.070111918248791 0.40320293150708136 -2.3599690547771033 0.7114209022936974 -0.5891790880419401
P 4.634268584939837 2.442342985941001 6.745143546669888 -0.40640399229181623 2.308958625167507 -1.0920339016643388
P 0.9648203729982657 1.9794563973026735 8.617925738934236 1.00505193905614 -0.4790631105194395 0.001099660822081977
P 3.7180540281863292 9.266043616699722 9.823701849864072 -0.29034902357706127 -1.422682396191395 1.775486343769568
Ni 7.990129396047139 4.375982652407603 11.046604053449103 -0.5356047543599098 -0.4686313736631542 -0.4746261577940084
Ni 7.038866564042091 7.324701641521715 7.942052767199459 0.9341707386645459 -1.4109291123102088 -0.2289752484552702
Ni 8.851707432013265 2.325062868043949 3.7235583159465184 -0.35911652005976213 -1.5092025886718268 0.08798623550299685
Ni 2.512282534947566 1.4565490600846989 5.146673445579142 0.39819985921446904 -0.9547004831867816 0.06006791182617397
Ni 3.1330849229340063 6.693583331675994 2.664508415354316 0.026006708476406824 0.4507902317166752 1.5142146971744375
Ni 1.6147234501329548 3.4947147817020077 4.488994176675863 -0.06360549266578723 -0.18317207407822647 -0.24988397358347936
Ni 4.988741022543163 0.7334186378987678 5.485664612087828 -1.1528230079272532 -1.1971812223276543 1.2585251726527744
Ni 3.8691910570378334 0.9501545861472919 7.953447381693623 -0.4955600797331982 -0.6335177620583154 -0.08229201333169699
Ni 5.529343351956645 0.9235566855611426 13.433664965390578 -0.6743049712780064 -0.47815911064793143 0.25633589985641014
Ni 6.697850078228356 2.230861970134671 11.915660901878653 1.2545520469376394 -0.6160648566891906 -0.49051891776486484
Ni 8.483381921187986 6.645236106131379 5.290777730924968 0.5545075048016838 1.2435083875289683 0.6955312276466344
Ni 5.722898491013768 5.336970341814462 7.660630355310135 0.8025341134614501 0.21019333986207672 -0.9489671802474303
Ni 4.627831523582703 7.761609100177807 7.8875122943864175 -0.4728929771529856 0.44845669848749214 -0.240207883946296
Ni 1.800096040606978 6.0730487697718445 0.26550061306622713 2.0164010239749013 -0.7004271222863551 0.6989687925732736
Ni 6.6975914875282125 2.413103766060533 6.270713653884814 -0.04482358407259377 0.8855856306669908 0.0022049780711187834
Ni 2.2198995715250325 7.365060261508337 8.399749071070628 0.051533649102917696 -0.40948828764409473 -0.017270099934357352
Ni 6.216067897715284 7.708311709801881 5.839320641909274 -0.16477994472428395 0.9451706893194756 -0.06998722782241495
Ni 4.118047664396991 5.860394860432723 9.376819254949961 -0.6757959540012362 1.0235821366498437 1.2846622360594584
Ni 3.7983002636700274 1.7128586208372676 11.820853239362254 -1.6102199463271687 -1.5560977105614684 -0.32416931456061593
Ni 3.831362931759754 4.986672296942018 1.4125443112260587 0.08608027672953562 -1.0603026319993287 -1.5715896355494807
Ni 8.76562443501205 4.74067865804873 4.038760061580253 -0.1907455155501102 -0.7175110743518353 0.058952310164492025
Ni 7.458226796617043 8.454170407453962 3.3350285595961293 0.9506173142563433 -0.3333576659281033 -0.06908605616438424
Ni 0.8408390618146483 7.4318782513488895 2.4778401007649324 -0.971052956402876 -0.3087362678349973 0.020464695612255078
Ni 0.4513072665012047 8.917952828160642 5.280193982983396 -1.081069432233035 -0.38829391295466675 -1.86345098200601
P 7.846242142181791 0.801035488295119 5.476959340875153 0.1024216942020365 -0.9903591129306556 -0.923635643461177
P 6.1723660693910976 9.29882922332501 7.7877433845801285 0.28721896258851176 0.9649998082302607 -0.4562132025044594
P 5.043469897152024 3.0552491221909284 10.820885772523464 -0.7839537793561014 1.8120034648589955 -1.5938911272601584
P 8.282309181062418 3.937477472639912 6.564327693747672 0.34676622602452534 0.3098526408276277 -0.40492637930502523
P 6.675288039640868 6.4839955692099975 4.151476977157993 -0.6696427899156467 0.13669784177608715 -1.8371575955271198
P 2.013017776028391 3.590688872983696 0.024422044552087813 0.7499224008030053 0.4807489828622946 0.6927369527309489
P 7.209425601550772 5.474365122029789 9.312357211095355 0.3424508864786231 0.7111740763902139 0.15834858727664342
P 3.168419495032134 8.792739516998486 4.131594122931632 -1.1096408161128244 0.6686943099594485 0.26230960094134176
