# total energy = -340895.5735881761 ev
CRYSTAL
PRIMVEC
9.04909888875445 0.00000000000000 0.00000000000000
0.00000000000000 9.04909888875445 0.00000000000000
0.00000000000000 0.00000000000000 13.24427092063176
PRIMCOORD
 96 1
Ni 6.263569198135901 1.97355421265437 11.478479025951856 0.5457073900115504 0.13575321847463073 -0.1400770426609652
Ni 4.854524932788736 0.27701464038194834 5.99998613550411 -0.36952023189158945 -0.3947293841673653 -0.3758407747929785
Ni 2.9208772470347197 1.5082857348519678 4.841668877739454 -0.020563683083964585 0.8159850967600334 0.38945065226692926
Ni 3.2322115005509726 4.119575204491017 4.761766237857949 0.40864445158656076 1.0094927484363132 -0.21333599925611643
Ni 5.004839517446736 4.651779868116983 2.776780298347975 0.26684682669006304 -0.793188410580492 -0.5821967431868361
Ni 7.137838855721113 6.206415088407413 2.4984653024296137 0.09703009087282 0.12610386831032475 -0.17388370679776505
Ni 5.045180401102467 4.522432046005043 11.485471264803534 0.646693380208325 0.4905163466617036 -0.35352591334586214
Ni 5.64823951044947 7.6229972532802 12.209046275569793 -0.8790925667434796 0.7533298838226574 1.4778945225871645
Ni 1.9115588349232304 6.51207555680654 0.4645834610027747 0.9467359769240663 0.3549639313439693 -0.9078421280723461
Ni 2.635450564156951 1.6604463357203236 0.12434819487555836 0.4022904843440749 -0.6053780663993058 1.760766006840258
Ni 0.5238487255443818 0.07356465089261373 4.775394181057934 0.1292339292988742 -0.811755374949402 -0.01167846477919279
Ni 8.779119199610383 2.553094713517468 1.392661776390158 -0.1818440992954223 -0.0391293619012939 -0.13053747860164616
Ni 6.9510745000076435 0.8926836692835184 4.811021389007908 -0.7985442755757667 -1.4916550667063666 0.04010406710973738
Ni 0.9567250483144695 7.528216989617091 2.4398063275257216 -0.6918735762893891 0.10588908392534667 0.7228911077168261
Ni 7.6232415789551 4.242398626173218 3.8046158818871727 -0.0661197744472087 -1.0822462261499555 -0.1465377106846444
Ni 7.553554467014141 3.9430182325289302 12.650702939167864 1.1004892315205435 -0.7784739871884528 1.464355093339833
Ni 8.167743968217707 8.84034540392054 6.888332571603198 -0.8064840992481336 0.6783356897039543 -0.709322625003772
Ni 6.778490082537451 0.9033245048803725 0.320923583801129 -0.12357467413056784 -0.8270673227161242 0.8776072404472047
Ni 2.0476482358426007 6.417856337285795 9.18123311009073 -0.2664547334579669 -0.02782139308764241 -0.6029033796065681
Ni 0.05464931910580883 5.0230915502716815 1.1891393941082604 -0.31786162717503325 -0.6383370378238297 0.6391513061950089
Ni 6.353128131635402 2.0435489939637206 7.076864216365112 0.7598170342088979 0.3704944228794006 -0.6080682116369592
Ni 3.5496357977415873 4.5335352905643935 0.643677800344195 -0.7353792128815076 -0.28814841638131666 -0.14099646915144104
Ni 5.779922000121567 5.548310309415318 4.920286545552965 0.9149730826901726 0.547367808433109 0.10369824692161494
Ni 5.2953698922001955 2.914913890747343 9.429524100203494 0.07361479727267321 -0.8862204360375124 -0.7041557360908518
P 0.37115694256059484 5.776401900583191 12.392849766067437 -0.6719452127965782 -0.6023881305330464 -0.7683435836226703
P 3.8961438993443878 6.086813145994266 12.44893970174525 0.1706410314907513 1.4505724377334437 1.1072242362515317
P 2.5822871071184976 8.571849585403443 1.3357773298139666 -0.21026018854427014 0.04753686923869878 0.7298855367567882
P 6.529133108554197 7.6510313622002215 5.890548141166809 -1.066945334126827 0.2982477095988476 -0.2871294881984991
P 4.660059793766377 1.0521839944078557 12.619326997961155 0.20417284469960967 -0.7464483262114757 0.5192579375707702
P 4.074058236167031 6.054661696997223 8.231446910943424 -0.8479305393183784 0.17468229143966044 -0.3650431699568423
P 4.927433523998747 1.0736756046999962 3.7926955036817676 -0.23438253551377056 -0.07808183190509134 0.16416673662031725
P 0.17745826222949637 5.647832300991303 3.3710246802905255 0.7130208997909656 0.16780459048322066 0.600070023922831
Ni 1.4221202135038569 1.1183238595132265 2.536012729202321 0.5409925010343843 0.05681418077556667 0.2569632490277639
Ni 1.8305965455405853 6.424073068347143 4.801617565253974 0.20915075753017529 0.6342916641098625 -0.08031972009667458
Ni 5.946488766709961 5.447277118294581 9.263294865010428 0.2221973063014883 0.4990770917475212 0.6311050388517647
Ni 8.545037104857922 2.1370804819551172 10.332093910221397 0.4664533921752289 1.0031444376207819 -0.4804355653869338
Ni 2.355408095226055 5.10558313739722 6.930899533630242 -0.06838054545692739 0.4401962582509128 0.4132163872279593
Ni 0.5536691266208957 0.0018659242283113294 8.906719640691835 0.6333362421751286 0.5050155687191431 0.9801461769533959
Ni 1.3018667359576432 0.8138035775969664 11.321494350369084 0.21297450215163966 1.1178089537459135 0.2905475127411125
Ni 4.201170930808589 6.890897991189649 1.7174239880169402 -0.1680688998882009 0.17990085952612242 -0.19866245640434174
Ni 5.604215643472095 7.79311126670418 7.937980103541627 0.34933192986917255 0.038355459849746844 0.8340571237703959
Ni 5.184192661021568 2.949010896044516 5.037590921712144 1.0299384178851747 -0.44728864632132 -0.3293518872028199
Ni 0.9500106168042511 7.34816706541384 6.987346003811427 -0.09026166180073486 -0.7130039305101011 0.0707197351130653
Ni 5.0555597177361875 4.55035756573622 7.038919534143215 -0.1613819747863285 -0.8635309648597966 0.06488101694410116
Ni 8.003240396217357 7.404524854424135 8.808884401182567 0.12672864637851722 -0.8607526307837111 0.8314834495059488
Ni 4.53129111399494 0.15605623801815244 10.531182233958813 0.25292456018201603 0.6722198066142036 -0.5892469651653981
Ni 8.225097158125742 6.953689689638981 4.793300538298393 -0.02389531856035885 0.8426741760154456 -0.13082055705970372
Ni 7.104357189160725 5.836741293184452 7.215280140655476 0.9542338279630083 0.35900570551351074 -1.2644934744210672
Ni 2.249461243310104 5.368133697825081 2.5939703989282585 0.20157731605829157 -0.6898197790841539 0.24147183826038415
Ni 2.326939629550655 5.04066490066635 11.414230422552196 -0.07034563960309821 0.8887375460324114 -0.0839963976173134
Ni 1.2695976486726859 3.204783681268666 3.740645990738878 -1.4920492168209918 0.2821474616028754 -0.4790484552314201
Ni 3.609423195299555 2.5570129734149405 2.600407023097017 0.1139752033675908 0.20798064848147407 0.05243764897442582
Ni 1.176192848068275 3.315680390376112 8.054874555512917 -1.4555529216671708 0.5183685929872816 1.330265378610554
Ni 3.4929431920656877 2.7798379889238545 7.210274179049744 0.5022452050628575 -0.690010040718089 -0.3038812537355412
Ni 4.069949945189081 6.83736352108931 6.11936999462966 -0.18468182585453355 0.539160332921652 -0.23622036005345767
Ni 0.8178865310975196 7.459344296592468 11.041907956031336 -0.8197286229628656 -0.5732400482141805 0.4849391096842423
P 0.11157448662781697 5.533017331986384 8.217514013104768 0.46328039376388597 0.19577022245821124 -1.0179169679442663
P 8.369095471632619 1.703013297747368 7.946629232433091 0.8800801274677293 -0.41151945914151056 0.856441405002867
P 1.6866706248262706 3.081969308685536 10.379932877366842 0.4118303055137101 -0.11427036601050643 0.10745077198551173
P 3.919020021794296 6.12889145667151 3.94373311135549 -0.5543370406620904 0.7482023327881051 -0.5866231543893059
P 6.994410635455669 3.913201451092045 10.679068040426323 -0.6413485709566438 0.4322278953334556 -2.558385199498594
P 6.465852758755064 7.714936099835209 10.265422863000595 -0.553484462853808 0.17011652644584896 -1.083063065624296
P 2.416362826564101 8.530748577425799 5.78329640916491 0.3000449107085865 -0.17673814552742464 0.10317194210449973
P 6.863062962449176 4.095251226189849 1.5593271781584181 0.31141510021874114 -0.7573554600422828 0.7481190290456793
Ni 5.160936476410704 2.91991804253326 0.5312011185390615 0.7400910165348802 -0.558838785187186 0.15612946813813755
Ni 1.5150544609566083 1.1425211504274095 7.001358533721903 -0.49052714529498104 -0.04102092249705193 -0.6786740468799796
Ni 6.80090470093477 0.6926479048734363 9.371196322325577 -0.2531302484349189 -0.19858120954444508 -0.910319128857929
Ni 2.729859814758173 1.5524091419191166 9.25381231409458 0.49487950872640585 -0.2972724901697719 0.04008684071855676
Ni 6.63707076226563 2.0161121255823438 2.635543769877376 -0.6692288423066798 0.7281425859237525 -0.5155365228551251
Ni 4.221739532995551 6.747315936240009 10.351020100927085 -0.31131045632007676 0.6105431555400129 0.05265696407408351
Ni 8.271736214734455 7.242102575209974 0.42811740156897743 0.2622854325716257 -0.027344710561540003 -0.7230644000698967
Ni 7.448032922754499 3.736363957058776 8.4656982238485 1.4588776151650293 -0.2060330378368 0.01598249147118538
Ni 3.048505740323289 8.3828772495168 12.492751819804376 0.9013238673378541 -0.25938599953664365 -0.9255570288536059
Ni 0.10939455866176365 4.7910816992063365 10.282335629163127 -0.03304304649789793 -0.4527039037996203 0.14245994107084498
Ni 8.587414035804489 2.330740251160213 5.728239880600935 0.8311738886853297 0.6981761214686492 0.44894289409529137
Ni 3.7952283465115655 2.6911296707369683 11.560791440915803 -1.6275959757117713 -0.20587594343364543 -1.1932507769249965
Ni 1.1654244201745285 3.3703731451574583 12.55681401176319 -1.2486745051109398 -0.4271157709178709 0.33052970956100497
Ni 3.2410162739464474 8.550466564300146 7.871136218528581 -0.39464093821861707 -0.41494159744918213 0.5645535761837761
Ni 5.564824915218753 7.866970013316581 3.584178018713023 0.14111525411749246 0.2538079912282339 0.9944654217895454
Ni 2.955517198276115 8.584246851129857 3.611951513579818 1.0847006012277192 -1.3077281167399866 -0.35670353974289537
Ni 3.368192312281498 4.21881667399582 9.390346930688214 -0.027412073464365694 0.1534300669291035 -0.6753367549766304
Ni 7.327489874038033 6.092595520300236 11.444467082185946 0.8244530250217285 -0.16543814713357313 -0.11293416369758615
Ni 0.6282409422400421 9.218407713981739 0.5418672916133126 -0.6861672699332311 -0.08774583735741662 -1.2728336188556466
Ni 4.704698999480537 0.32657565108048525 1.6548585170443673 -0.24373003816694153 0.35124277373864027 -0.4638889738821623
Ni 5.848577514768502 5.563214175584227 0.33186213475739834 0.20510718358842098 0.659827860707754 0.18397322982328318
Ni 7.924585627097658 8.888920967730314 11.541587442868652 0.07735575237234418 -0.603282874433174 -0.16089937872295515
Ni 0.03368255655974991 4.908095599285356 5.738703353856009 0.56621296616407 -0.5857260964963331 0.617689279666491
Ni 7.892126508732223 8.758984954178798 2.4015042058905456 -0.01732023644600243 0.4166184709309729 0.6021518461525243
P 8.597920039825194 1.596704481868602 3.5954350979565692 -0.17754752880259744 0.4908176799522063 -0.9885079186545299
P 1.8400076085737753 3.3758568991941056 1.5193030129701495 0.08011840271914589 -0.34724753653631807 -0.20327527258600475
P 4.881038793064934 1.005137728340976 8.159503858604221 -1.117997672717952 0.12227061060716363 0.9422573723274223
P 8.53293845940083 1.6760017370222984 12.520842938048542 0.11397854580170047 0.32052143339538347 0.4174592216647133
P 6.336839753308728 7.790125064010955 1.1163321528078372 -0.9164982610854475 0.08578922785167806 1.0412402160512388
P 1.6622471064353284 3.1527423125149387 5.893938838588479 0.45208709615122783 -0.029965178903522592 0.561796068043297
P 7.062695137040719 3.9624195009358143 6.005045486794356 -1.154200090780438 0.04292071062292608 -0.11535434310330456
P 2.4729287448530153 8.470246301041271 10.067619511331173 0.14493514208421493 -0.187554005196006 -0.06629383813122776
