# total energy = -381168.1629655506 ev
CRYSTAL
PRIMVEC
9.22013984268367 0.00000000000000 0.00000000000000
0.00000000000000 9.22013984268367 0.00000000000000
0.00000000000000 0.00000000000000 13.49460664579422
PRIMCOORD
 96 1
Ni 3.041115566932697 6.68319984131421 11.420782393549317 1.8899479998552742 -0.9142878836976899 -0.06693121460491053
Ni 2.141414332307726 7.256904595588339 9.1702864321516 0.8419725219627306 0.044446146128517 -0.021110556726370095
Ni 2.111476538612017 4.10268557461645 1.7729618745529332 -0.35746252939610695 -0.728429778146868 1.1672998613871897
Ni 0.8209123746102056 7.142731605340738 11.283947221865102 -0.37092739665176117 0.6677206331922694 -0.17174172075409777
Ni 4.510602996447541 0.8122804797971712 0.48697274388398615 1.0526677411618903 0.4778734610867125 0.6584309803602273
Ni 7.3396553496440795 7.219646010948869 5.1314724534845375 1.6949028284885455 0.9999225882493747 1.7361338101138748
Ni 5.3164800892038535 3.806553126843496 10.081833702298669 -0.14886533037655653 -1.1945836368038072 1.0883099158455323
Ni 8.748824625060578 1.6297242378418315 8.640650257719791 1.5086775694062922 0.5420052585696149 0.8153351218808604
Ni 5.483383058553938 1.7169651999449413 3.2976364504076816 -0.27871118222781677 -0.8454820777778859 -0.15713219837103906
Ni 5.431685735100953 1.2616009390753162 6.203956340563921 2.3055562843541777 -0.07182376681052147 0.918168963919651
Ni 5.522753055191042 0.9245956118896499 10.518573280918423 -0.8198396946194333 -0.06388420024847062 -0.481217694968597
Ni 2.4985287842394164 6.966433313608169 2.3566714024455453 -1.6770801984848278 -2.009433848628449 -2.497393747416886
Ni 9.450735422247806 5.388424839498777 13.170870945465873 -1.2213418787342578 -0.234737347750028 -1.3129325437590615
Ni 5.862266260382631 7.752717609443205 0.6150487828269253 0.041157190964600084 -0.29477286367636973 -0.24289751496331716
Ni 2.4423965735774282 5.394851276888955 -0.028983509233896237 0.6615330163243187 0.909945033347962 -0.831952161612251
Ni 6.779329018114783 0.12836278528846937 4.436405766017151 0.4860775941640597 -0.3326277297406142 -0.17104700867991834
Ni 1.9206473066686576 0.8756726284807183 13.18641702306068 1.4020058416786498 -0.2967037621504955 -1.3250018162187698
Ni 3.1853462126924668 8.9762762520022 2.710189077869476 1.6148080799184834 2.2823024560325598 -0.9265168216637141
Ni 1.2442394159681343 9.315568173840326 1.5941990394711612 -1.0955465428032873 -1.0629799217211757 1.132382223574398
Ni 3.550675809121502 2.2747559930491312 11.213627060190191 -0.19837012197490353 -0.05003058219482997 -0.6021341055407113
Ni 3.1788183537652843 -0.2659623065561076 11.062986573291752 -0.703294416531821 1.1108901151388935 -0.13157491872722502
Ni 4.433614829721589 4.321009263227688 12.267433710223255 0.8363577468791145 1.4076031332607692 -1.9040834108153917
Ni 4.351371183350869 3.1585063859452513 2.0089153923374288 1.6259157597958707 1.8001925882669967 0.561510418482078
Ni 9.00498776711413 6.495155091568604 7.0060079973472265 -0.08547940992074311 0.4951129648934505 -0.9227267584936625
P 4.491074740504359 0.04631368386600419 4.4804660477337155 0.6179101374280455 2.116784861811303 1.209193159186866
Ni 4.511073223573652 5.870352322923789 7.579421395205962 1.053931181255346 1.4763212645627735 -1.83110007647913
P 6.4066140897638935 0.059536286249440046 2.1651147014776737 -0.0017174969117389775 -0.6618451482480989 -0.490867045132903
Ni 8.638551753917778 1.6386401129584778 13.181936035153036 0.2796483493301055 -1.513266474328555 -0.776102915853115
P 7.469880603157535 5.038336134039563 6.048970401811836 0.6638151274902762 1.2193425889160419 -0.9926805619749808
P -0.06949127111339352 4.0922299361652845 7.980737196992051 -0.03905145747550693 -1.4477635075297388 0.6104824775054067
P 0.6303957054036139 5.456893597116372 2.6089796040789626 0.4036084318245501 -0.14638370160528338 -0.7599638441994073
Ni 5.593877213050203 5.785195112399129 5.188055528979208 -1.3116652470108634 -0.38454344477329905 0.6482954345881222
Ni 6.39260869751758 4.428027425046627 0.6112344110215928 0.11223868029245833 0.4208589913748817 0.9406985124807347
Ni 7.406012695264042 4.34345108332481 9.526261274812954 1.6664409736034267 0.45970656036969865 -0.7978814451807871
Ni 2.0734065816765126 2.5036367416485397 8.733763526815448 -0.31651154090504197 0.7952746036855594 -0.3294909838838455
Ni 8.087786707286064 6.308889828790436 1.3704446885603312 -1.169509981664631 -2.4464131426039613 -2.777515179728668
Ni 8.153646165360732 1.3725376602785098 2.4365454729062557 1.0681223851540635 -0.3151195456535218 1.1879157378653282
Ni 2.9064185456513254 8.595309298595055 7.316073920276619 0.24714060651038725 -0.2670473727366433 0.9803873464299245
Ni 1.6518802336073963 2.9962780274370906 5.64236500586399 -0.432312741737778 -1.2926907627908897 -0.5394647515359484
Ni 0.3088156719823213 3.535259735496856 10.722557808225206 -0.1982881037840585 0.26601687458959994 -0.2519868788590951
Ni 6.679871370872525 0.18302714970581435 12.351546278916771 0.6022251225926208 0.2609654282086215 1.4286332144581912
Ni 3.1070580062649142 2.459592134169512 3.6915706083278055 0.6523361803163991 1.006165740945609 1.1084971894266844
Ni 7.175306358998557 4.212331476257771 11.97116019431247 0.06789280718723145 1.9075657129370371 0.10422043797367211
Ni 8.657277857704653 7.648317967306922 2.7987273136322677 1.5302923194625904 4.170448112571773 2.6493474869107794
Ni 1.1115062844487544 6.695739231343826 4.327800818151082 0.0340563182537607 -0.6611380948787452 0.023539992103469135
Ni 6.516601136575139 2.1301288812810713 1.0570659694267914 -0.8462369536660393 -0.3734079969817698 -1.7398048312075585
Ni 1.7206255954168221 5.245060886873406 7.608690728771417 1.5010624760631954 -0.7655143417039912 -0.9696108246397108
Ni 3.4970606966051645 5.0719896440455186 9.243131068083946 -2.6390767011123906 -0.503299871579617 2.5265261460064683
Ni 3.094297332881834 5.018522053764824 3.919454659822654 -1.1854919589151842 -0.23683871036374696 0.1559428060486282
Ni 8.881437894763499 1.3497270345922812 5.079504979937533 -1.0073602754743425 0.015704040998818117 -1.7142087279060092
Ni 4.340555959450326 7.797379966283986 9.239824725977606 -0.8341910782450989 2.7119340513937487 -1.0314638533907654
Ni 0.46586600001942907 5.701079777663695 9.383919835683379 -1.7424705509651797 -0.8456366010778791 1.7095267490493073
Ni 1.3476156225946474 1.4284117070281237 11.002395503057468 -1.157049387303775 -0.7195648715570704 -0.9578053473643503
Ni 1.1176468975073752 0.9054647439687302 6.633354843932512 0.09153127254177784 -0.7217217699990732 2.0591677255184666
Ni 1.5022097054083066 1.0409445551129797 3.6270665107931026 -1.5527470489216806 -0.6867671083007592 0.600963739381694
Ni 3.9798272127453926 7.342771756872028 3.986374433966003 1.0739006823987376 -2.3165703760764944 1.1676518454099698
P 8.78647045556861 8.856017969534344 11.987029898811716 0.3116477850548375 -0.09911088466124866 0.6377320572499791
Ni 3.546867891413979 8.129056052707064 0.19912551367030706 -1.750312929827734 -1.953814973712564 -0.3482386968049938
P 0.8614164484338118 2.166861917956065 1.390430263434005 0.6928356830923422 -0.7985959547493086 1.4819057006290866
Ni 2.378537885823661 8.724197631848002 5.1343196326324385 -0.2654178075530203 -0.04430473545464628 -0.6956836940640987
P 5.446898965651591 2.1002371882840007 12.420840239039991 0.39997032085133055 0.45124480275559065 -0.10377358024424063
P 4.2542923321583475 3.32724416310114 8.289669042734939 -0.7379626573379678 -1.0659127790972547 -0.9120296837911325
P 5.665803523065672 5.953674725642643 12.658926375143496 1.0858406283694333 1.5257540652726045 -0.47074739156489254
Ni 6.156056792664759 7.119017405961198 3.0221036388142637 -0.19691256359277054 -0.06229114472973789 -0.5802853850967361
Ni 7.776662312315937 6.59410563112584 11.100298634741643 -1.1329843759347713 -0.1464747186571929 -0.15818583644653403
Ni 4.033340903724725 1.07067950573468 8.681701085829248 0.11464291885857676 0.06559372674040961 -0.49326871259586014
Ni 7.6343955563181565 8.973215165612617 10.051362984526701 -0.5583027101780579 0.3079711075341986 0.0642518680005345
Ni 7.53906853167389 2.227004889399585 11.20358632802677 -0.24891621035357134 -1.6317737612385448 -1.6464254497134483
Ni 7.918117696017681 9.13803438338425 7.14385554037354 -0.8340283274149894 -0.6826569427871275 -0.8289761097030626
Ni 1.0278058560010654 7.624170421360183 13.605396768537018 0.02675849904076682 -0.38990008109952207 -0.3000875910210638
Ni 6.097296842180388 3.943739585851335 7.137769326139312 -1.370900378523097 0.9141984093076772 1.5161291405883308
Ni 0.346375755190886 4.666238955050426 5.626090537230699 -1.3200514141920299 0.6412557541325214 -0.5544956777271418
Ni 4.44967631312717 5.559476871726308 1.0874573939971013 -0.28163401230156654 1.0441622747940404 1.1375149168152732
Ni 8.019889598331583 5.667186544024821 3.6592383443448235 -0.18242593994082132 -2.6283976241319893 1.0687502485460496
Ni 7.179953309421297 6.592224722621398 8.434804184201994 -0.4299568399110918 0.6129417376791767 0.037744308628309194
Ni 8.127995736638384 8.748446599331745 0.8256948610869425 -0.08675981929506348 -0.3815028581747623 -0.9646041154537389
Ni 5.210134997585033 7.861607459626859 11.499779628721926 0.12139386442916514 -0.6568695494103785 1.307269174825697
Ni 1.3458269154874816 3.1401951884461208 13.105462352223888 0.2036074591144429 1.3957513761285059 -2.197518272406628
Ni 6.497414025801881 2.1949003628678763 8.656965294967884 -1.0939992529208256 -1.078708388200026 0.5465977630363038
Ni 0.38399669132165326 3.0013767647064857 3.4837947595650087 -0.2218034132971793 2.259857239655166 -0.32483085940401474
Ni 7.649396723655058 2.342689982562523 6.642058655835423 0.7715129824895874 0.634107058902882 -0.4527409276851429
Ni 5.242820392919585 8.079709864884633 6.3299421738306 -0.11636504375600605 -0.6307839080669202 0.21574280892539618
Ni 8.57930313602784 3.535674641784601 0.8995841388504292 -0.9859206175433278 1.7865197187655943 1.1679418658465628
Ni 3.5676961870587607 2.917621015420431 0.05280558424824894 -1.4312598534477607 -1.5835522072279955 0.36486730650061033
Ni 9.274169746463135 7.942126939868505 8.837010651485773 -0.9136391943700976 0.8266430906945119 -0.0784142755438456
Ni 5.597565268941268 3.2983851257535672 5.013718360966713 -0.14789525315380334 0.48533248846791904 -1.1146035594347385
Ni 3.322302168207115 1.549988469477036 6.009040742693262 -0.4144695429087701 -0.2941419149605902 0.06775551027841879
Ni 5.389356073611271 6.209883968394833 9.922381527862507 2.534681428123751 -3.265496932893976 1.730442673266368
P 1.5351993653538707 0.3073146332346584 8.941701650037452 0.714703429699711 0.5062211589914701 -0.0425872385429073
Ni 7.048455676625424 3.6439559627462286 2.867522464196223 -0.6947696668902614 0.1728380391420701 0.26957913801956157
P 0.1692799213718747 8.451465898703846 4.935827542561421 -1.4509578460973207 1.0975864560514517 0.8187112374419447
Ni 2.7264414181674206 6.524502796321743 5.896252617432755 1.1934130135344736 -0.5470060542183159 1.297643478810475
P 5.078397641156242 4.95079090732544 3.292926803034793 1.2297133906274047 -0.49562358598128187 -1.3410822667203999
P 1.696773093941368 5.0127686865747645 11.394143565848164 -0.3354618567552997 0.0010968326086045626 -0.006861503006523667
P 6.033963702391098 8.763530747926195 8.364307917858286 0.30585791784593774 0.8171305232183863 -0.28662760886141603
Ni 3.4744068132943062 4.180558874756258 6.1524876765761825 1.2593954910728697 -0.2690800868959559 0.7092688889477011
