# total energy = -381164.53506031475 ev
CRYSTAL
PRIMVEC
9.26963637807718 0.00000000000000 0.00000000000000

0.00000000000000 9.26963637807718 0.00000000000000

0.00000000000000 0.00000000000000 13.56704982853104

PRIMCOORD
 96 1
Ni 0.3687943348326235 8.107594709037677 13.611685064191763 -0.9143261931347929 -0.6288375829738266 -0.4193129870440004
Ni 7.346919083159213 2.298369246463752 7.926507728750468 -1.1768422536599863 -0.15953875093000267 -0.28039319791593004
Ni 1.2976193095894863 0.7507645307274282 13.259620568985582 -0.060421952731483035 3.4218997092981582 0.19964821735637872
Ni 5.769301138952979 5.598712021795725 5.488075204487749 -2.007111885363492 2.094455345076167 -0.557457331458627
Ni 6.335963276699002 5.761616610445488 9.239282893719627 2.5058303082200135 0.34154508683490215 1.1517737407271327
Ni 3.262810017881029 9.160421462745584 0.7290253796348242 0.3044859771990756 0.3584511185616214 -0.22377699208378232
Ni 6.665508117434618 7.167338418773651 1.2568690613726197 -0.5364830431998051 -0.11033143596741643 0.9344011095077972
Ni 7.403130157790609 4.203956193231568 5.551623196264718 2.8556450912628755 -1.2071483608426954 2.3693569237499066
Ni 3.13254381870639 5.6785143208560305 5.572163783381424 -0.4601971268528719 0.12719890114671642 0.6400699613545363
Ni 6.824046707378677 4.610253622678918 1.2914624171471754 -0.7056958268844621 2.5677864382078357 0.6099150350377108
Ni 2.4174840731480267 4.0285283259164 7.482608019579789 -0.2974488678466361 1.660277525105192 -1.1758454369643556
Ni 4.47169109899981 7.3775459615533645 4.192734371505188 -0.8441330199491591 -0.5024205542984573 -0.7174149150936031
Ni 8.172602668534706 1.7681553187194845 10.206925397521086 -0.911234698693663 1.8096007689547737 -0.7868866367321803
Ni 1.9345267513521198 1.8272029020641405 7.764287239260962 0.23099305021624733 -1.5393418312593683 0.2410167530008365
Ni 6.558582862508306 3.5095399277530404 12.240314674130259 2.7583488912128624 1.5492053543170095 -3.3770496428630037
Ni 1.2226742999597304 7.620651443625099 10.422844890199853 0.3333882620557226 -0.8216914031161914 -0.1293740544211643
Ni 3.27298807855802 2.2311829224320303 0.5246688312989342 -0.2758037787730347 1.1589756577922106 -2.031211349514857
Ni 6.671996862857108 1.1984527402612082 11.854060052329347 0.7398207935926291 -1.4272034239902 -0.14257332672025766
Ni 5.053611058125003 8.963497308809337 2.1990562168816523 0.46512387473052796 -1.3160543772174949 -0.5919857042527998
Ni 1.8318284505867442 3.9644658693237917 3.9662456394968175 0.3694940066393443 0.2598868504324621 0.6619256237770471
Ni 0.8780449800440905 0.6553160125262368 4.1724106938783185 0.8811805596207598 0.20131532064615654 -1.1993129239586764
Ni 1.947235422743882 7.521039931753564 4.170592918196389 -1.0504164832338685 -0.5922397292451348 0.7184135315614466
Ni 5.768615185865459 8.523569638800856 10.523499236157145 1.4829151157302074 0.16972700431691415 -0.3540792147461708
Ni 7.915611271258845 7.434517146362824 10.113665440454538 0.0775159320992923 -1.365193815056623 -0.44445374797568615
P 5.576770792631391 5.786190416324088 2.9477397142557247 -0.08657367142618638 -0.43469332615481265 -0.06620102130710534
Ni 6.819727056854561 1.7541025500616356 4.832746214470667 1.0615563019007719 -1.1537828007373614 0.04678173624022911
P 4.18499978696158 0.4921759751140012 8.346720736238163 -4.095626182364875 -2.0776709265289766 -0.4634891673405824
Ni 4.402632308431884 5.803088963331515 8.139117034300133 -1.376856596106532 -0.03969397615551228 -0.9976980697942299
P 8.125392410767935 4.391666328667877 10.295315087666241 -0.4392837737389725 -0.19788983990437534 0.0640376951071994
P 2.826358461491737 3.6022733694767357 9.52309227582664 -0.7747091208293819 -1.4086811968162967 -0.7351472993763597
P 3.8644928416358613 5.994126898205929 12.261342844117284 -1.4594365729922931 1.009596621004029 0.6936054713788313
Ni 5.62760547819844 1.276067405150503 9.369987546692101 1.7938823297782525 2.0906575685966318 2.1718941440806208
Ni 0.04962129017304216 4.661079038609648 2.4585800787995495 0.163584381754286 -1.2777421119008576 1.5192316907730545
Ni 8.830246286740353 3.944675195785198 0.257879428435112 0.6074994836176828 0.4112188971819563 -2.761972346898063
Ni 8.043717645171427 2.680204105668316 1.8348484980990971 0.18565138885665447 -1.593768999859997 -0.2673343078494428
Ni 3.2269736038762504 2.35191066583561 5.797295440632864 -0.40292580393522864 -0.36588932000722146 -0.4860325998587371
Ni 2.078734483548794 9.143810274464009 5.941268651030695 0.2340729746931517 1.07275756993323 1.0656741807238874
Ni 8.790043874029871 6.171807287146331 1.0610016459766096 -0.13016801107736936 0.4804630761907596 -2.1190597738884085
Ni 4.846740584419714 4.955047015157384 10.661502800766286 -0.4590982373617383 -1.1300335208365635 -0.11783700031584222
Ni 5.352408515194334 3.1631614274642232 5.987410119730019 -0.0370897057634458 1.30089669564045 0.2423789234556858
Ni 8.34537941986297 5.893124940886717 11.914501788976207 -0.23444732731343493 -1.0592045138391435 0.6972826631201023
Ni 9.006452803506221 8.237925795666543 5.036577174427335 -1.6941469241591274 -2.202267871276472 0.9165946774539956
Ni 6.10788387509849 2.681613090388628 0.5505533637528773 -1.8103618154905146 -3.1530301957511115 1.385004679134963
Ni 6.7327778681932005 7.7121149451732505 3.7372884033370055 0.9349837214841445 -0.04272376412077158 -0.3680120227771791
Ni 4.018442961602588 7.054165428969115 0.6413642829042522 0.2242783572002331 -1.6365375011757752 0.5552407834232824
Ni 0.5955444705851572 5.7641472211602585 7.995550760936654 0.2069889739921661 0.7161820711277666 0.5676548408169192
Ni 3.981559078693893 7.206966114032428 10.534705299501784 -0.9438357725581358 0.5825785520062869 -0.4453073542252331
Ni 1.4436068119591865 2.3164635765561807 2.2011863793074924 0.6086024868738744 1.8895425368867391 -0.36066432416285626
Ni 1.2629694090333916 0.25665490947752506 1.8489179521023182 -0.3120149385862691 -2.2068431493519802 0.9622068188661559
Ni 8.299188822091162 5.821711662694059 4.003311207277342 -1.5821188172155785 1.0716365689549092 -0.33063486768030154
Ni 8.898674742038667 1.9306056951896728 12.437212873084812 -1.9039103755726372 0.860216812884899 0.41809274148365416
Ni 1.7971507411216956 7.219609897969965 1.6473793732070525 0.8236904358240912 -1.0939861402947029 0.007585782767057903
Ni 2.6024874747795255 8.111571383018033 8.404393632516882 2.547208356946168 0.34093136451030315 1.7590114860429964
Ni 2.44200226120872 8.756042848016026 12.123529307052657 0.507480485319868 -3.149603686568066 -0.8464148740048004
Ni 5.6803960570285525 7.934141274258211 8.276727566329399 -1.001390688154469 -0.28557448500655336 -0.8110475502491
Ni 4.103705076454102 4.629608623310573 1.5252621113194282 0.9467629735072598 -0.5054927654658778 0.8445040301353326
P 7.738338746316426 7.676046790260525 12.69276191494962 -1.6435080189563376 1.7261504736489177 0.17844715779873138
Ni 4.879156502623209 0.46915946813679854 4.438908103198129 -0.5554269312921596 0.131816859534702 0.8954905484855287
P 6.147511570357267 1.5040726496604726 2.494302476277619 1.236993983449218 0.35256560631512185 0.6952319512386607
Ni 5.280244396459931 8.368831599747113 12.682084220875097 -0.23103598763904082 1.1723554215332261 1.250386345595724
P 2.919953979392992 9.187442452612093 3.3882217085160145 1.072557795217598 0.8256485879917265 -0.5048479327930274
P 4.776977301491632 1.450855667559739 12.476720063071458 -1.983562894398958 0.10654754344495197 0.7769752911557393
P 1.0582958391354313 2.467447412901197 5.427823495385406 1.177717457176088 -0.024616770107415673 2.6598026208058325
Ni 0.5869719109184166 3.366398203732918 9.235891133790927 0.34102315289316104 0.6326934663848072 1.30913451016921
Ni 2.9776389261989253 5.782881156158617 3.1375021471728037 0.3444884857339422 -0.07558734761801175 -0.756046511422872
Ni 9.179136858471306 2.6857288089137503 3.7886125257016356 -2.977909531222452 0.7338841163932199 0.9576508240643572
Ni 1.744953419015925 4.373701773483898 1.069966311259595 1.5616086130773685 0.2450950368352682 -0.9973612552801018
Ni 3.463849890342395 3.0131694422052155 11.36525359001688 -0.8770305420081282 -1.4643589499945748 1.0322719511143579
Ni 9.06174618414215 7.681311943689059 2.660227112439734 -0.3522686438999933 0.2607101176647058 0.7951154523998758
Ni 8.924481409547539 9.09225255726417 11.27043355315804 -0.434779972331348 -0.05813495646951923 1.491160386458135
Ni 8.202015224571221 0.5193832846705004 2.6637134226588746 -0.38281952010365683 0.12393514279378011 1.4137532120225653
Ni 0.9072174524999723 4.8149735407584675 11.28998321615237 0.6025776208360332 -1.8972129089478034 -0.2275480290904404
Ni 0.43829157919838335 8.282197578720558 8.07527056023373 -2.7796558802207545 0.0007785300372373689 0.12663762932660771
Ni 7.525192728823957 6.700463915989202 7.299696774865229 0.38725415883624276 0.3410820311555545 -0.6800601285942288
Ni 4.565305156173701 3.2807931123376433 8.425721211756974 1.4638619557534982 -0.1957583953836693 -0.7477369631159122
Ni 4.070751519344173 7.885503492498492 6.478660058175868 0.7241242087929787 0.026147862039961417 -0.2259043228394303
Ni 8.923572985188391 3.727357841949701 7.310360564485275 0.5037261604837583 -0.14724476405399803 -1.7904612199118455
Ni 4.602439319262977 4.153464484208281 12.977818990105012 -0.7677239477608004 -0.08017496698869418 0.8712031366930737
Ni 0.2699948431025321 5.120352439613468 5.638682693598261 2.1411301234248867 0.5984869957064273 0.21078366514790794
Ni 7.320370844744912 0.07079777434115313 0.5922491148741642 -0.3023054246079891 0.624261276457054 -0.8936174998325319
Ni 4.0462055223745255 1.9433143665814345 2.6271094827669788 -0.6557338931440384 0.17646175193758643 0.5845354186223417
Ni 5.434287212789837 1.0566458438708553 6.852133705421739 0.869672044760528 -1.1202903254068706 -1.0052712541557978
Ni 4.182886309881112 3.875570057035683 3.9734768827883666 1.1212151512139852 0.5801576012696202 0.34117433375904466
Ni 8.757896775279594 0.9330723221176983 6.233435537241875 0.2907886822176411 0.946623362605602 0.7909980877973926
Ni 2.4305727996288202 5.561327578525867 9.738564045071254 -0.061801606687829046 1.7523564426203242 -0.6547314200214531
Ni 1.207713106942733 1.5443306801888619 10.589950478028861 1.9014300323529447 -0.4535562244975867 0.3018367125016866
Ni 3.601318596935998 0.5676261799230794 10.671298952426982 1.107638440970815 0.4557892275931634 -1.210267366087651
Ni 6.885856642346049 3.6511428921444007 3.6033134226715977 -1.8297875283152938 1.005437861640649 -2.71967101502669
P 1.6907445858291827 7.201636073149668 6.715770866440854 0.4782254451094925 -2.0550243927740546 -2.0202661633572627
Ni 7.412029008655737 -0.044528551980019544 8.81380658673066 1.8162398715378463 0.5113317407451581 -0.683759688933003
P 6.536215230073352 8.495315787304072 5.712094505381046 -0.1775398154931136 0.2900430623008682 1.0195136230074247
Ni 5.985598832793514 6.086591520476406 12.870354242345003 0.7322830904546872 -0.4705363039953509 -0.7422911095099926
P 1.4788777781485767 2.9419415567389144 12.675884688105725 0.7349164143124762 1.1015117592477868 0.631137691861913
P 6.378010347036736 4.709142102917661 7.431989316538948 -0.3590170183674204 -0.8190380246537442 -0.4374125248581886
P 9.349633279265381 1.0788188139431343 8.49700286111392 -0.9268644348111198 0.7652194361713918 0.20131814885963392
Ni 1.6849974113121202 6.154834583048362 12.973708833361682 0.8224233961862094 0.5125499294229754 -0.07262749365873944
