# total energy = -381178.47308161325 ev
CRYSTAL
PRIMVEC
9.13300339225040 0.00000000000000 0.00000000000000
0.00000000000000 9.13300339225040 0.00000000000000
0.00000000000000 0.00000000000000 13.36707364268879
PRIMCOORD
 96 1
Ni 0.0018348203613271854 0.09908669261397228 12.36231087356713 1.000478974973477 0.04870903516992902 -1.435322967773541
Ni 4.65984093955379 7.533750484401523 5.255785843751148 -1.9425322017098936 -1.9127709112870608 0.35226221614209013
Ni 0.5429004210784517 7.34969306906142 4.289761599865512 -1.2160641752750863 -1.991134278988313 0.39016567605608293
Ni 4.240983142584216 4.862885868737593 5.993287732470113 0.4277757730993729 -1.3897542780048064 -1.8964230660566563
Ni 0.8402006841348525 6.8900107473773975 11.393491930674196 0.15803645535286331 1.2928787104319799 0.3725297081418745
Ni 2.709780342690386 6.267980159177936 10.050876515753213 0.21371703674461903 -0.0625197158007762 -0.8150592425116544
Ni 6.041253352458437 -0.11153406280039747 4.676898649801928 1.8455285931996346 2.160773608687427 -0.4870718397565289
Ni 3.518772641276751 0.8835523108601475 12.075453286474598 -0.2648781329994664 0.07230199199852064 0.35534034084678157
Ni 1.7673822650203663 4.813686380004545 2.7790012012397685 0.6353134205061575 -1.7012444544358571 0.40494951923347683
Ni 7.837030124713079 7.143880839880195 12.991031386677852 0.4441814681509059 0.3800015910388875 -0.086930797655289
Ni 5.957576776298757 3.4877843611075967 7.245528426617193 -0.7656881482776943 0.16257470954284903 0.7735079014324292
Ni 1.2257221057889442 3.3718865493343664 8.796416501806219 0.959067759016542 -0.6470181105375954 -0.3882216649558346
Ni 7.242024093254121 2.562592861639371 3.631005378828973 -0.3929643218471426 -0.24639730058645948 -1.1499441437175615
Ni 2.4870811904225807 6.134839237189745 5.225590308267725 -1.1608757030284007 -0.5737920640629086 0.14781169230106156
Ni 1.6912495495797322 4.076589083331408 0.39298217204318164 -0.01608045050163037 -1.3935214583567226 0.57597827308095
Ni 8.754668630458967 3.9045872323365103 1.7970289070059522 0.11372837746410736 0.24142118752810682 -0.21305214946711049
Ni 8.420985222188934 4.252892578876754 7.876160477316894 -0.865842900822425 0.552272444823578 -1.1668069809111712
Ni 5.996830424447011 1.5572866572952764 12.556667576719422 -1.5283948453295613 0.3310912384914298 -0.3496116658931205
Ni 1.1565578718599707 2.3355555328079496 11.662210459928838 0.3490691631260891 0.8436496525548374 -0.35000838711090687
Ni 0.34933554931156086 3.223164723730325 3.8941628223792235 0.039699632582467115 -1.077624411107228 1.3730688469293255
Ni 8.17243967060527 8.021900377346155 10.297993665622036 0.017168027138854302 -0.39158081123605465 0.7487579481812588
Ni 2.4774276059431237 7.993688530177715 13.305264237837292 0.3559162679549096 0.19293892365700321 -0.46039227358281354
Ni 7.515493610821169 2.3254726971737774 8.819180512511087 -0.1719947173051683 -1.0133460607441322 -0.090619816471102
Ni 6.5037303731497556 5.64287174886913 6.2284278618220394 0.23969340620372268 0.4226896168257172 -0.06810646585993431
P 6.58442045723301 3.410226897153438 11.581593439871918 0.7907926566548059 1.2774541483467936 0.04988094399084312
Ni 6.823805606514975 6.780734362990739 3.8279558549161425 -0.16322057065696405 -0.6526326285108953 0.390245894474715
P 4.744951397230286 5.701715689078344 7.836673937584699 0.6346508472214941 0.5723381052252015 1.1837436087655098
Ni 0.5678289535634818 8.720931316298975 1.042542372065185 -0.22747398131939534 -0.17797844569242896 2.2682740029639517
P 3.6467442834017714 2.409779450560593 0.635528253764447 0.48902253572499654 -0.2427108528738078 -1.0112328710558713
P 4.309170145160966 6.583708082976248 1.2073967346839019 -0.43443544450773575 -0.010005705062460186 -0.5662348205409409
P 1.969404297835485 -0.39220495346304757 10.88046373676264 0.029650218766265068 0.4851915920146805 0.7627570906738282
Ni 1.1268847441648386 4.146383494487517 6.086522909875014 0.1853953069817904 -0.8966354607232493 -0.07070148028062016
Ni 8.636752424958244 0.8932871790689013 5.142781367420768 -0.9176663132516196 -0.6950329478539773 0.17342245089063035
Ni 7.257541065846928 4.670133834263675 13.550336508269075 0.48601614479850497 0.10906953853585732 -1.3367723264911364
Ni 2.5205536474871106 5.187244480646678 7.604607977140801 -0.6046028787961781 0.6417563479180237 0.6440669983290715
Ni 4.726575794607139 2.931840184727764 2.900882043469472 -0.741116115365285 0.28996850030919097 0.057713552661384476
Ni 1.2715241172974354 0.14993742834218285 3.6403621407014457 0.12751591816650296 2.413691998221856 -2.6516622510868846
Ni 2.816983535329801 1.7550527105764058 9.984508807432196 0.15704323820165855 0.3203322002027128 -0.7744499536307243
Ni 2.2996080318513354 0.5416957779442603 7.7089516264495455 -0.08414963536572603 2.113453997665857 0.3011790243130297
Ni 5.065227556667925 2.411012406004989 10.296175284666633 1.569367431087181 -0.8630316566258749 0.4787628056702013
Ni 6.448247378151933 1.068762311215679 6.973241632976437 0.6632818806946255 0.22721455701042156 -0.6524804192037472
Ni 3.8513235571386 4.373347759292604 1.2232233160883017 0.11710783545930152 1.3274608192822235 -0.025177013486259864
Ni 4.121706119593012 0.7764157891447626 6.168877940458367 0.00890038781342338 -0.9180653484622512 0.8646627644713947
Ni 8.193454711179754 8.56112202469866 3.0628111051338185 -1.3746906988034646 1.0580290054738035 -0.7787915184288717
Ni 6.493282217383911 4.5634146907987265 9.437608130911926 -0.2699612039493286 -1.8507031954220385 -0.4140077727810031
Ni 3.0712280809675625 2.844245550155892 6.928113637110883 0.9044423583621779 0.26432380315789317 0.9114578704480626
Ni 3.6586719857008916 3.9445897867546935 9.2381177666093 0.5276327918980268 0.682431971260515 -0.05826479717916417
Ni 1.0328787412821074 8.118006970986006 8.904837123784434 2.0059939697089644 -1.7826198694905557 1.319090078720025
Ni 5.9825464072986 5.154931915000208 2.0689156751025273 0.4790155451109557 -1.024272734958965 0.6219130879398514
Ni 6.4035321940351695 7.401340202676677 1.4740676446005168 0.3377776493726699 -0.354591378495899 0.6684382280845843
Ni 4.237832256448538 7.470358308552981 11.658213857688336 0.4246791364519202 1.1303122284192468 -0.38274958609766985
Ni 7.932807930234425 3.082872660164636 5.818166047550729 -0.9301623888361013 0.8157171878106275 -0.06421253012216682
Ni 3.638752905521426 8.643136394259228 9.495340584620525 0.9537818280272541 0.0772361960753444 0.4662173649050229
Ni 7.774569515200305 7.743124584866559 6.067889756559038 -0.14227199342975497 -0.18276352578589813 -0.24992254013089862
Ni 2.928625367569042 5.7452344497638785 12.480622538110389 -0.9630321429809287 -0.16316657749057706 0.3462023831012554
Ni 3.173298525756973 7.497218471234231 7.610436659841641 0.47850312425091135 -0.871355603110538 -1.2135892313720325
P -0.12884475723971828 1.8691239216912716 7.15739951135275 0.8901369974830992 -0.2578304821240656 0.6345287198213331
Ni 6.222972718955833 8.956517136211541 9.653473056816459 -1.239671273171065 0.6812662330871879 -0.4981394104246002
P 8.761189594809329 1.5221885256448018 2.1919189634367955 0.09707817050193604 0.19695678656714466 -0.279927314023105
Ni 3.5791417930356992 0.9138117773666146 3.8771462106459 0.718968118513336 -0.18924064886980957 0.5544198301838839
P 2.5119138263730463 8.168686006252331 4.828026108473035 2.345623584688709 0.901161887838693 0.44183405096465195
P 9.157753730743565 6.057592295347507 2.557508518706813 -1.4182726971594735 0.4777171380145063 0.7091488184300689
P 9.568830208908505 6.114207782753517 7.1363196264548945 -0.21018871187638638 -0.37685018989409935 -1.2104697119064445
Ni 7.353839452555906 5.687742194041855 11.228475000596886 -0.12325791422109739 0.2026386674432704 0.07338159821594459
Ni 4.3822707035087145 8.098608471994174 2.7457442830529257 0.698209802920062 -0.9067504376700642 1.0180699485823628
Ni 3.3710463130315187 0.5534517797814945 1.5223894517172218 -0.8094658075842769 -0.05655475646659292 0.07804840756399462
Ni 5.020192717435949 8.713506184622723 0.17084287287716507 -0.16840494307138093 -0.41684395667821755 -0.028551843495763733
Ni 5.38257202204889 2.4622485544721147 5.089901278361115 -0.0368567638170333 0.3064904092236141 0.49497592509495403
Ni 0.8732932082624429 6.329700995424074 0.6047253735621164 -0.8044434146690211 -0.11120741081446653 -0.30711133063706464
Ni 0.0028220980171732215 6.016448115517846 9.190879133683005 0.9617049395290727 -0.6432167345136341 1.739851625285094
Ni 7.709670393808612 1.314969813956636 11.012222835352778 -0.365922487238002 0.6100361339966074 -0.1847576733977915
Ni 5.243458115907846 5.558126611324306 12.756465723232981 0.4859798922439308 0.3483564533297807 0.039287227635396854
Ni 2.1977111141244694 6.898951957600093 2.454381385436539 0.6262541385173666 3.0547407785498937 -0.23261438786975422
Ni 2.065035975304161 2.434557288491308 2.631482192169261 0.7628293386726605 -0.4938937477743687 -0.3478265489682397
Ni 8.41425419876286 -0.08244453401561291 8.022088517213968 -1.7792221566629165 0.7992235610309784 -0.6473775507595432
Ni 7.253486012385358 0.3414820797809225 0.6848455582399605 2.098069030569355 -0.04770990448145332 0.0004288600073024872
Ni 5.55503965621167 8.146109222114944 7.3810704151708055 -0.20693472371546298 -0.8358448117984378 0.4142132039235898
Ni 0.2922442324340478 4.857588726828336 12.246832266644994 -0.7680628191574579 -0.11475887561115075 0.037992934304005535
Ni 5.784880817053681 0.7956097088628573 2.336123605612701 -0.4111546196029242 -0.6458747409617716 1.378142147687175
Ni 1.7444036287381404 1.6927473621195912 5.35017086627049 0.24413730090768918 0.5545892658822127 0.5332115715373849
Ni 8.398591098117384 2.5300702369171906 13.182527633199145 0.0012464708125914017 -0.5958333601336642 -0.16800025143379455
Ni 8.715561110363383 5.243202391815675 4.771296458525878 -1.435958801585327 0.7929870932029635 -0.10031930314705303
Ni 0.5714419696657268 1.1079246293310148 9.74176271293884 -0.5563903236466934 -0.014460141289387999 -0.317709160757569
Ni 8.661566794902127 3.6880528572906854 10.43936342357616 -1.0015626949559588 -0.4096983467723718 -0.2798015870785181
Ni 7.089302012208261 6.659813399407007 8.457347361494996 0.5162278924951949 0.6746584979626832 -0.8035928937432676
Ni 3.6917973886403326 3.5009176198412377 11.96230085549089 -0.32905595322895587 -0.34978727223903633 0.24099464151364944
Ni 5.267770170670678 6.470869827305778 9.828181016686724 -0.9816896101811157 0.5498782335597885 -0.0934104918423617
Ni 1.0400846808793556 8.103458096742132 6.5148845100700585 -0.043868162137859934 0.01715620006431239 -0.6272751235827132
P 6.259312939053997 4.576273959433613 4.32543785062436 -0.07090896830573595 -0.209488086264936 -0.1793169619981944
Ni 1.6017278513132858 1.6601151413579083 0.42769123775342477 -1.1644983873826524 -0.6106004911405096 -0.11528852286237565
P 1.871261044461558 4.360890342802557 10.773874281944433 0.3654774292807835 -0.2817265720153729 -0.02094497768278328
Ni 6.372726573931851 2.672298497180746 1.2508826165575866 0.5337592165107388 1.1491720414382274 -0.3815139139183559
P 2.9452474335601595 3.6609004385040964 4.301805291306439 -0.12608895591198932 -0.1318150597624891 1.0467922562177199
P 4.807256745687101 1.7935391864481467 8.262735847550863 -0.7497899889901991 -0.30024494253453454 -0.7853223775688539
P 6.4954467391640724 8.44732480368255 11.823109318821865 -0.1766620408738506 0.23211636518741316 -0.10568853787876635
Ni 4.0845895942150445 5.7720215484187944 3.4327717157793023 0.6407821569302126 -0.9699296414317102 0.4850581517606098
