# total energy = -340859.2972644386 ev
CRYSTAL
PRIMVEC
9.36603680687153 0.00000000000000 0.00000000000000
0.00000000000000 9.36603680687153 0.00000000000000
0.00000000000000 0.00000000000000 13.70814160036616
PRIMCOORD
 96 1
Ni 7.05678402722506 1.4845823522429837 7.274005829444491 -1.4412966688584725 0.28917891452836003 0.6032512498642901
Ni 3.2653749757802104 9.388234036464 0.5497994567555772 0.8755860962521179 0.8942358501428211 0.9539031840964667
Ni 7.25858465029803 6.118850397048999 5.5596249611297415 -2.470115885537539 -0.5172473348986446 0.6525344123701343
Ni 9.071596439498071 8.78780553264246 0.6375217548945098 -0.5094687193944903 1.031888856743326 0.29177624294189103
Ni 2.722191687229346 3.4789299746981905 6.645925975975762 2.1295907553267193 -0.16829027187038761 2.008561987546457
Ni 5.307339527953369 4.761234036005179 12.8801556404328 1.3357986497239576 -0.5656846044644258 4.929159315311001
Ni 5.949175279273545 5.796040582009874 10.733091045943155 2.200731637137604 -0.5216968860295661 -0.3973948468146704
Ni 3.8289387598201112 6.994977552164327 10.35134638264336 0.08562287747714287 0.9290269896800775 -1.3998746542682603
Ni 5.745670037552134 2.3845086061807583 0.3267201352903538 -0.2970524037391658 -1.853423679676995 -1.3055974435502289
Ni 1.451810590424905 6.997515748063927 10.963072199727252 -0.9925532923684971 -0.9091865579153826 0.019954588745055957
Ni 1.8774969507083221 8.376074566788576 12.743431175773145 -0.6908826731310295 0.22080891059439392 0.18144532119510687
Ni 6.822501989466438 4.973093782311249 2.9466197179548734 0.9057834457711047 0.6334874230410122 1.4628083176780033
Ni -0.3776798034458224 5.428236327481165 4.3365151872953 1.6397205268894468 -0.6514735752057876 -0.09037504745014759
Ni 3.277607019488244 2.906599580466314 9.814165786904502 -0.1428864870853023 1.5350339479126338 -0.8755151338048663
Ni 9.061172040840306 5.4458913063400045 9.681799339042204 0.5397709699224574 -0.3964533088370076 -1.7540076050705016
Ni 4.583775741873389 3.1247158391743497 2.2979505063824908 -0.5757283618536729 0.5839985722822653 0.32415234527975145
Ni 9.086347947032646 5.15227542716454 6.944242668885577 -0.3554647822397878 -0.765825702296823 0.07176283166559899
Ni 6.9570076400721605 -0.2904192509078133 3.166210190812713 2.078499335967543 1.1613845243440193 0.6425323068520998
Ni 6.06101512147694 0.5403603651407559 11.958352198368512 -0.05260039980453521 0.009328219379461353 0.3545731236634539
Ni 3.874682482232085 6.842564039713458 5.797556943324063 0.7360641547636743 -0.9604106461976816 -0.4228215144178912
Ni 2.093889858694858 1.8891014699688533 11.94608269051436 -1.194396974714298 -1.2050086887918732 0.028465454429544526
Ni 8.368019775372874 5.033589012257797 11.651481504295951 0.6860657113583604 0.636162141659698 2.224182926182008
Ni 2.7930832177240696 4.153574951982565 0.7503291086714418 -0.0876144539858749 0.4828246344444007 -0.2259153785830238
Ni 7.710926750545509 6.638384443361895 8.022236945933237 0.80986407146396 0.623121506425656 -0.4919921598762817
P 6.658708742631752 1.0636633045532795 9.971452448161871 0.05081913953439635 0.29413188765826115 -0.3496453473445333
P 9.058240471406451 6.754345341638441 0.2756621237513215 -0.6317254460445829 -1.0794933459951668 0.7777818462174347
P 4.327624008817477 2.334493971111155 8.034040025168203 0.1067491179327968 -0.1365183787754294 0.1345975076036327
P 3.373833678796315 2.275609699447749 0.24382228256796667 0.6594378243581869 -1.925851398620103 -0.5497303951280145
P 2.921397918183538 7.876124902859677 8.340828298119302 1.5380922751229833 0.29310293217311456 0.06936476374706764
P 1.8685804839318685 1.3140830232528995 6.715687025861327 -0.2530520868988158 1.2474241776436064 -2.253728243939293
P 7.157834195346024 0.6525495605067153 1.0881095964999408 -1.3364905335846595 -0.47948888520294836 -0.6953275962762606
P 7.599002614013345 3.8431938674186013 7.4122251135343165 -2.105069630256904 -1.1900770071827054 1.289628064705166
Ni 5.327954174355653 3.336987691087735 6.331762885861029 0.4529293895468651 -1.0497989042545275 -0.05000024317752679
Ni 2.2562313698674097 4.289607266542661 11.803504453023525 0.17255213247053508 -0.07603497667839162 -0.6494336619576234
Ni 4.381965752763888 2.493744690228844 11.78576611643957 0.9158516286403839 0.9720983669482548 1.8339719987102867
Ni 7.731251049815366 3.435115655811374 9.887914895144494 0.6012015664241129 -0.6962812184387814 -1.3633894148580326
Ni 1.6283041827941176 5.908077110980395 6.372996861683862 2.834468971405893 -0.08341455697191441 -1.8425330009064205
Ni 3.9713961754397102 0.5394443667681329 6.705542671695805 0.8505525503222577 0.4636521752810079 0.7980403393561546
Ni 8.177242977295581 0.35573330664898845 5.550741275481144 -0.48143932406109985 -1.025972491258891 0.11082560199501558
Ni 5.710837747697481 5.44457069518929 7.390867740435212 0.20792922641824832 0.8280615683085933 -3.9514024645253887
Ni 1.7196324049970568 7.743604851998289 1.8475556051295756 0.4425932977281797 -0.3917703015390414 0.1860393683236925
Ni 5.117302646761938 0.7862487953672159 2.127599160769579 -0.7927952889071315 -0.38707598138716565 0.121411605040978
Ni 3.704698285251145 3.886052850579369 4.575503658410191 0.4223016373586791 2.069685851440971 -0.940743249675741
Ni 4.256086221802191 6.652883067910162 12.552106464558856 -1.3765362366526357 0.9255827398852189 -0.29700329566878525
Ni 4.029503066071137 8.842184740734991 4.526250482110468 0.5658085316367997 -1.4564001001588143 0.022616451847935242
Ni 1.2946203993437917 6.594879203680565 8.586711108723843 -0.2538118478829758 0.18017031113742518 -0.5047769703457758
Ni 5.392158354768036 8.25278006190913 0.10527893361420794 0.047682136567311434 1.3617611352259902 1.1879941565117478
Ni 8.230676215698592 3.38602825835823 2.2321381774979256 0.6995676024995372 1.441655594859788 0.9131062046847629
Ni 1.3373482579931415 3.0386606955377373 5.08720114195853 -1.001818776830823 -0.3234550621024107 -2.865545123985407
Ni 1.4493941530001937 5.729644749049497 13.409851836380623 -0.6957873095214985 1.0736104048518285 -0.36104844697515237
Ni 5.342499629086569 7.768171965816185 2.7314565705647116 -1.8991924012716774 -1.6849647434392272 -0.1265234723462466
Ni 9.293337354343175 8.45120891183134 9.414970324342221 1.6788275201932379 -2.416475217393948 -1.8946135236517436
Ni 1.380628712797755 1.356904542267548 0.8929878940764334 0.21626294309492433 -0.058888289695775996 -0.42562967329064766
Ni 5.672043624390684 3.9769876992480535 8.898365974255873 -0.9006103862105973 -1.9459723377396936 1.5366534857939278
Ni 8.816943272286943 1.3816870749256323 2.225228852349827 0.8803786325447547 -2.633891043146393 -1.168008714528756
Ni 6.833263565439278 3.4513938273003193 11.97794032716712 -0.024909875867802262 -2.102918645352172 0.4021321043893397
P 1.5942024437887947 7.007659165625796 4.376118536158279 0.382399916067735 -0.33424752473222435 -0.5661733711753862
P 5.1625593352743575 5.635712768691247 3.990261246218211 -2.067004962174698 0.8718376849532792 1.8658598485578186
P 5.735105148346421 6.727436718688073 8.899407477517997 -1.169188336659154 2.412343197503445 0.854797955862173
P 4.337870452781174 4.677688990158577 11.213342061842393 -3.747306238699985 -1.4905885731150652 -3.506995767737554
P 6.458846889120469 4.185101030942168 0.9853726051999443 0.6210854498322336 0.9253369424229999 0.7388445457222889
P 7.9436071960575205 7.317665608728565 3.9703846434944823 -0.2680210495038223 0.1893481209819513 -0.5107763824623204
P 2.797073149285802 0.2638459320652146 2.9989440176327467 -0.32000978386628753 -0.008057065976521607 -2.010082280845725
P 0.6628709327626521 0.49123082052322753 10.551937850400323 2.7722207640989485 3.2693253055011304 1.2590244808866962
Ni 8.43195234072589 2.1311104878646336 13.546480767467674 -0.1704505127465 -1.4284475808099464 0.4030535877623445
Ni 3.56023653781415 1.6651033403200481 4.482644089234615 0.16804550284943315 0.7910307408075409 -0.15246024681666645
Ni 6.976245479104551 6.829938622471168 1.1808230555056505 1.039486723695242 -0.33296865801980075 0.8638014449123639
Ni 0.1486717808571798 8.843627110360595 3.5750695298665334 0.9554895547469804 -0.4321664459679009 0.20983698496392247
Ni -0.03535397808936886 2.486626502466129 6.81512623569915 0.16808638338969759 -0.33047674483588246 1.3282686598954996
Ni 6.625862052521436 2.2099725154462924 3.667161084046659 -0.3187846532099349 -0.08463068876720263 -1.6879600786221254
Ni 1.74617575252276 3.043680891117757 2.627576922808069 -0.17508209798124041 -0.2596109710632561 0.5704043785375982
Ni 9.289038343575955 7.445736792238256 5.835227142247272 -0.9319019972350274 0.6994403328930534 0.30773996535999903
Ni 5.35165024677627 8.996246675615122 8.837556045481922 -1.142703402994748 0.032206152418899375 -1.7944479724737352
Ni 2.7419633903439404 5.254355859303791 2.7536231692199977 -0.8521008686459842 1.2553267203201348 1.6681186184161658
Ni 7.858638512658376 3.424119928925285 5.2123557416928135 -0.10116493897679997 0.5386990770145175 -0.11944779644638784
Ni 4.015154298107348 0.748721896802913 10.308412471190353 -0.41569210246196153 -1.035664007515042 0.5409354225442039
Ni 6.781881489036312 6.89846054572383 12.580838654821592 1.6953085485673964 0.24876117283294574 -0.5070289996047462
Ni 8.547782114491017 4.510514604136603 0.37594053046222214 0.05664037420186374 1.3798575877163848 -1.3061404605378923
Ni 8.64640647915074 -0.16940350271608726 11.974211708024573 -0.5657416829546064 -0.25765847532257563 0.35514750810968515
Ni 0.8976456240427467 2.839726079642913 9.879868533161666 0.5958716695707673 0.6889546028703812 -0.030434405230457266
Ni 8.69908106859483 1.4086144299490606 8.947920736931858 -0.36713553370949675 -1.0813100874889312 0.2673800734857137
Ni 6.114897929633386 8.350795634194409 5.91543319607097 -0.1315119266997735 0.3951181349653518 0.28229658558622994
Ni 2.0225206603371104 8.47985025153974 6.364072902078184 0.5122421683745694 -0.3046261023213657 -0.7023994155213774
Ni 1.805565790158781 0.3482966736442572 8.51640214570128 0.16628635406648137 0.24608825398647294 1.9885161246391752
Ni 7.229690427603325 8.14881705642737 9.793726285385327 -3.0578011626427726 0.48249707590165286 1.059175203263105
Ni 0.4312104486287452 5.435214024695932 2.2637073402255665 -0.02682380506106348 0.22259222774706183 -1.6677959449694244
Ni 3.5427782457224377 5.733587850428579 8.310245379038257 -0.22498643901085125 -0.6559233834470252 -0.5614672239489684
Ni 4.792554062161125 5.595111000334183 1.8194537491252993 1.5188514246155003 -0.3418356214921274 -1.256477031874494
P 5.996164684543993 1.2996967911429913 5.370397305494493 -1.6156706850290947 -1.4628088318986356 0.7421697534407798
P 1.6040180500721175 4.430715972901956 8.137755767285572 -1.032185047827506 0.09020741152403174 1.639998463141182
P 3.246567974428195 6.409234993621651 0.6555551216291564 -0.9890859026451869 0.8458952540559044 1.450599177206321
P 8.498329441613208 7.1482995701585965 11.104800937704827 0.7323070017140872 -1.0665447562542987 0.7012704441232568
P 3.961177829585602 8.801414383720388 12.133788365213501 0.12427889928644403 0.5421996339686082 -0.36901680989260965
P -0.39253433738222504 1.6712755583932444 4.2197497464808364 1.4331169612611576 2.45979599166877 0.39820911518584967
P 9.112694607791221 2.879428708493109 11.697540862138982 0.010925902883884408 1.1534300453836328 0.17112517021602142
P 8.157874013751773 8.696645899097058 7.4843435948144545 -0.06609406341559584 0.645299842294908 0.2018809633416394
