# total energy = -340868.0243356594 ev
CRYSTAL
PRIMVEC
9.28742092259972 0.00000000000000 0.00000000000000

0.00000000000000 9.28742092259972 0.00000000000000

0.00000000000000 0.00000000000000 13.59307930711687

PRIMCOORD
 96 1
Ni 1.646213930334728 0.9324942085918806 2.1601445110434847 0.7208614788813069 -0.8133306898563218 -0.020501462387461464
Ni 5.771704871382202 3.400849212319805 12.428695990893827 0.41083605992124084 -0.9743750787975736 0.05814498377184825
Ni 4.316198841920205 8.814031774488505 4.40444327165344 -0.9292997837254898 -0.23161371451938176 -0.15224735947491197
Ni 5.0024742348874165 5.676025861214145 12.606982895047596 -1.147056023536489 -0.012659854855855615 -0.09410417547527665
Ni 7.412894307007076 3.9092147704220097 3.546448109854713 0.3502369581819452 0.11603054323472277 0.08108565172842164
Ni 3.3580992138919687 3.8720372245374506 8.66988357209903 -0.7194342595164771 -0.7502039365991661 0.6866303256125789
Ni 1.6684387285614957 7.983197675127799 7.582736159331509 -2.5506927159503427 -0.361409686969313 -1.4250357269149199
Ni 3.8166098965736603 4.188561816416458 6.2720776750531675 -0.3136033661193115 -0.8528261768477828 -0.5676574119200805
Ni 6.787302922236145 6.732804336362902 7.057649528631112 0.7523618634824333 0.12224412824460236 0.18556859933486106
Ni 9.012021013351118 5.208218470206088 1.8417940122144638 1.4379676044852396 -1.4343762875895554 -0.7280307429362365
Ni 4.260381442278386 5.03722776391565 3.8442455462199496 -0.05801360040030654 -0.15178738911935796 0.485016499889397
Ni 0.6713932297083005 7.5825847743707495 2.2262477293381018 0.44265757530721184 1.659540904049484 0.3146914569771677
Ni 5.264286630212354 4.236187710819661 10.21257526531104 1.5591480673520182 -0.15419985521559249 -0.06342654388576174
Ni 3.757634773823985 2.3221988609386885 4.393772953775157 -0.47314597370405614 0.3422284860551719 -0.5946557948857952
Ni 3.2108100057522675 2.2368474628175044 13.587819058194489 0.43553921909487575 -0.1158009437224199 0.05940790964467188
Ni 7.2176912944161025 2.3650974581010114 1.4586730399907593 -0.3660309877914083 0.7284945699465325 -0.5345205201567955
Ni 8.379399050954754 5.387233508158844 6.019899121433463 1.8840210928478778 0.40977033766088783 0.44737477827722305
Ni 1.8347764369782977 5.743879758349442 5.35618937504025 -0.24227865043239563 -1.7935159475777696 0.1199090523535225
Ni 7.713778882081288 3.121715777006182 5.9669951857296875 0.5509735235064963 -0.820865050560154 1.5807882713296129
Ni 2.5738601052139582 8.657900941646805 0.16104109227441768 0.8046804703804916 0.13992277647128806 1.0467007249451779
Ni 7.721821788585416 0.908289332228069 13.068536136817917 0.686025087928412 0.41550106949707805 -1.9361671787238137
Ni 5.098766214835233 3.0931476703009846 2.4408818839474806 0.31262531847675834 0.4951661867288892 -0.10515606241406407
Ni 8.83002471328771 6.362617026492142 3.8145035095123023 0.027088628686675928 -0.5202231296975169 1.5167233225289039
Ni 8.088461303670291 6.439489009326641 9.107594146920853 -1.186666953059892 -0.49666205454812534 -0.4280835341477789
P 3.343239340443232 8.147937947148861 6.380020724526885 0.6123318720093197 -0.13899846488480577 -0.80390553988768
P 8.86842819873179 8.050680075426875 6.133183366669911 -0.5100775566230827 -0.3610880419638362 0.6175501829854655
P 3.5081189237778765 7.933194200972798 2.2692419869357514 -2.431109679477671 -0.3948098596963136 0.6443238515348838
P 5.173604252491435 5.42122546867283 8.173695680288066 0.6795371662112233 -0.9582959138475238 -3.2459616910745264
P 8.071103113997985 6.128731905829924 13.430573734844135 -1.1983179070352588 -0.969255241072505 -0.37163779245522444
P 0.412380063044268 9.047368937317302 0.6690202936669554 -0.4106529973761573 0.004557794574011505 -1.0431065798360164
P 0.190668893704928 9.10781147257004 3.8472899627927597 1.1685938976082648 -1.278974698756378 1.0878741138596941
P 7.856201481666528 4.272761574345365 8.053300985606397 0.698339643629707 0.6726869760586093 -1.2461052017218668
Ni 4.35864235545816 6.26410535294792 9.736111069277001 -2.0818574538064984 2.3553464684034275 2.9276462641915257
Ni 0.7445121657549024 5.672738114213612 7.9923095637781465 -0.8350624251064587 0.47133488863724626 0.5908281936095888
Ni 0.8757870740273185 0.18552552000748385 12.165724525439888 -0.883690213416491 -0.3582377169992346 -0.12109201691803015
Ni 7.232597604969366 8.130579757476555 4.305199749341868 0.2378761504893258 0.0510065729548541 -0.11407187684645516
Ni 8.119899223435276 0.28883879015982916 2.245359384077359 2.268745543283732 -0.5050078554096594 0.10415590328432385
Ni 8.183583068584019 4.030109128348392 10.13743352899123 -1.5018759731034264 -0.9329101267845675 0.010199309130505015
Ni 6.650294889038788 5.060056244501273 1.648405761668417 -0.5997128976937285 -1.1785602647923574 -0.7740462904344024
Ni 0.7193302527118361 6.845312153211654 13.497533253346235 -0.6692530106763958 0.9138217426945487 0.6089999794226092
Ni 2.0948242223311984 0.9865934353661896 8.080814041296735 -1.6601119460616054 0.21349797875527748 0.9475587299356778
Ni 7.684532793649991 7.082940104498772 1.7010245735503953 -0.4748182192001564 1.8581187711598193 -0.04492591397841295
Ni 9.272235972280317 7.069334032872272 10.90968350602238 -1.5350172357420855 1.4071459911186925 0.0824989871361805
Ni 7.953366479179459 1.222865423201111 4.465489489265034 -0.002380327306718481 0.7361549147052677 0.6790761674144047
Ni 4.191803126312464 1.4041280170129882 8.841509537979402 0.8389687021394001 -0.5513926133217859 0.4755576684693423
Ni 1.848289634395743 3.7018452364448824 1.46496712513839 -0.19240361997882346 0.15393683136219297 0.8684507707589172
Ni 9.13320328132557 1.3385216757368135 6.713540367920794 1.014451377993169 -0.5438723936853407 -0.4603056274062782
Ni 4.5162406008029246 6.001132030009798 1.6019983768880106 -1.000419068269819 -0.30673286425172336 0.004295284941244215
Ni 5.558214927028375 8.029402594132465 2.1535783044633243 1.2342333899849451 -0.22540398616424406 0.8442916570142105
Ni 5.0041924077549265 7.907207997279318 8.031022320338378 -0.9829252823604298 0.5123627531128337 0.1913723505008317
Ni 1.4556546281964846 2.4188344754600077 10.724327945817466 0.4376542085553495 -0.7938335003636586 1.3963005637637564
Ni 2.814840815447948 8.45148801202294 9.420153010073228 0.6970895732726897 -1.159828492710809 0.5969823861364428
Ni 1.0993984496839158 3.802205106749291 6.748950517607045 0.4848851165178552 -1.035431322678946 -2.464960052368213
Ni 0.4533710239526096 1.9430584773150645 0.21731914799314764 0.48164706919653183 1.2189798062599844 -0.12595705831981532
Ni 5.902954703618173 0.7993692460750969 3.2708076735436338 -0.3308061031508432 1.6541115055037963 -0.0864515440260253
Ni 4.766109372843441 6.588840024907355 5.89906977545342 -0.8283554453999282 0.18898945209095194 -0.9184692687688892
P 5.951490765270112 2.7112396352475336 4.785796847678835 -0.9761031172322737 -1.4028285946902617 -0.8156130581325954
P 1.6464461158573644 3.734889880026511 12.919868675415843 -0.7453741193106905 -0.3187504575378897 -0.41266411426891514
P 8.52856431811736 2.121191210281802 11.115753729814836 -0.33399067152641193 0.2463332801177435 0.5975143473805129
P 6.555563195803089 0.22642917915931407 0.9949196082079351 -3.3763970968806687 -0.07291005789616475 -0.9596904802022054
P 6.312594977495331 6.288809892556445 3.617811723350183 -0.3295105242678712 -1.158414900192734 -0.20272299962696053
P 9.322434482274334 3.5541195195226236 4.581710416991789 0.5689766449521362 0.1611004389901677 0.41273173428205695
P 4.072106845682886 7.611895874748384 12.497001256685131 -0.6990502965434864 1.2107946993460308 -0.6318282901710345
P 3.7828686964241216 1.3967538048140524 2.135160420065705 0.1730470698290826 0.046108364322288334 0.2903084001471129
Ni 2.940295297038912 4.451971648137135 11.230507245038526 0.6877032469617834 -0.6038197207732504 0.19509813609185112
Ni 6.295552560133809 7.804294086225909 12.688623039774958 0.7870642999606251 0.07767662604687267 1.5820509400921206
Ni 2.161981562898585 7.7074634358655745 4.417587758460939 -0.6023955867322142 1.8983241397341115 -0.5365686609350759
Ni 8.205835729073502 3.9745424890710206 13.298626417298163 -0.01162164339932837 -0.7721912395035347 -0.18717322481781956
Ni 6.1254534462502965 1.8942995175613955 10.524088364869462 2.141294159806577 -0.8497133422504141 -0.1723824396618902
Ni 6.123967458905423 4.727919498080186 5.478459200002732 -0.6187876549369924 1.3004565227792377 -0.06572742410479648
Ni 9.271158631455284 2.495567146980924 2.6216160235098376 -0.11188772471094278 0.9577480117638538 0.3621367949433247
Ni 2.0303602338263955 6.905392479049079 11.647066647490252 3.061807455588688 0.8235719079683558 -0.632153534720937
Ni 0.4533152994271768 4.907677529705378 11.477847052366485 1.3966291507477688 -0.08144560617100167 1.06125291172774
Ni 8.164385969572432 9.296336829529988 10.655410638988494 -1.3317154807935194 0.052676761568425406 2.008121300464613
Ni 3.0460140092057717 0.24770666045372464 11.394276052832877 0.9872755889093255 0.8689133122176326 0.5242589903297874
Ni 5.091159817113661 0.634181320366391 12.852419709832027 -0.07033921184519498 0.09686991114587189 0.1077608470267628
Ni 2.956046762894573 5.955670104677568 7.5385178196585185 0.8524698219496286 1.12467225652465 0.24612836319578904
Ni 7.657952195018564 2.0394526188928417 8.524709109699502 -0.4121385807827483 1.1233337402188848 0.5407107081279074
Ni 5.9379868552735715 9.1194764732273 6.05249518258536 1.377216550549112 -0.7623529132568742 0.35444842516013153
Ni 8.378070949765274 9.206481032269656 8.49281982127851 0.6160052070958488 -2.219308371698526 -2.5804920586999627
Ni 5.737898659286325 3.3243022892169973 7.641349072665871 0.7896068638768208 1.6661689508889628 1.222467764808585
Ni 2.18979738851044 5.964595316167716 2.7647370371471687 0.5410524077380424 -0.810257707357953 -0.8323691945450117
Ni 0.6338571893767905 3.106670155139336 8.760563163593678 -0.5697703444980251 -0.13896015544770263 -0.10583843319306933
Ni 5.253206737072139 8.880752606273335 10.53168640391222 -0.5367314117651852 -0.020503519269990497 -0.5820710162422492
Ni 7.026463297972666 5.509883188636358 11.576776659851452 1.1153039279358727 0.7290769248125637 -0.28181784617759853
Ni 4.7475438184534235 1.701037575939663 6.5009448022001655 -0.4935507626126532 -0.45485797402814565 -0.7081185773933417
Ni 1.3922679805167149 1.4947268079457579 4.562802156770361 -0.29862540465324056 0.7376047597779167 0.6354478892014928
Ni 2.6642545728868074 5.631511252814272 13.602458819767769 0.7642017935401548 -0.7335174770824205 0.39855672833325556
P 6.086808487862674 0.5081092252852141 8.167931906874136 0.5451173218360353 0.4600307764783368 0.03475283010015305
P 1.977115449775389 5.741762226382996 9.79117618782548 -0.1555867082607901 0.3289945038634011 -0.808474390205285
P 4.693463166520925 4.08680883297623 0.493775019859726 -0.5223113796851134 -0.08211512143420051 0.875374237351628
P 2.1567063078242836 3.9922350258959236 3.7338153254277495 0.845102325840964 0.1720602804357811 0.1683362946169746
P 0.9027688892418629 0.2783570069259262 9.924103328276978 1.1146238711497125 -0.1725711586339286 -0.40065294874065194
P 4.16300283408463 2.444885691099825 10.667997880541668 -2.4244656917985927 0.31842109922292905 1.4326803879443712
P 2.601165122676013 2.077094535822674 6.453273399434526 -0.15132844720506844 1.8609271871428918 -1.5250457263516701
P 6.8228180197786275 7.5119632258056255 10.674033775388125 1.2928763964391345 -1.271814433562513 -1.3981551004739918
