# total energy = -381167.5003977418 ev
CRYSTAL
PRIMVEC
9.27082307177318 0.00000000000000 0.00000000000000
0.00000000000000 9.27082307177318 0.00000000000000
0.00000000000000 0.00000000000000 13.56878667469970
PRIMCOORD
 96 1
Ni 6.703760113453914 2.2090703085923105 1.8540524755026737 1.4474963699112813 1.3705429951836783 2.5629432511829213
Ni 5.802293071895632 4.3906989803281515 2.6150582008958603 -1.0290948389379566 0.38942211302183904 -0.7740010390187638
Ni 3.9410918645753825 7.617010371378605 6.173702647595378 -0.5461665890361562 0.10551473130506343 0.65691660059823
Ni 2.9567158505821665 3.1747748845352124 12.418370666016841 0.26375147559419093 -0.34342584879738275 -0.6516471246691744
Ni 3.1935019475251005 6.3586629883372865 7.963005839269351 -0.8453488946341312 -1.2466780435062013 0.9090268924090668
Ni 2.1584238011102523 1.6738193275422226 3.0926112862905684 -0.09906409058371327 0.01446708326792347 -0.3467389723310157
Ni 5.92236877478921 1.0608603059073622 11.883638851069444 -0.3161829539210297 -0.6286753463643495 -0.29827830572646696
Ni 7.596067581629022 6.120866371658759 11.408310763257694 -0.27770973754649597 0.12879992708524912 0.5712351019690097
Ni 7.538097123769731 -0.06768906188518242 9.310982614528461 1.185171856571604 0.36919267334884154 -0.6507428676873503
Ni 4.5322829931903135 2.036846224848178 3.1436165746328784 0.3347650877985912 -0.03499271402510103 -0.4713508294768463
Ni 0.6519419063705929 9.063620362407871 8.171653133446489 -1.557432370212492 0.4244793617362883 0.30629423405240797
Ni 8.595731183181806 3.649978743315249 6.210053545606938 -0.8037193920188029 -1.5891312439776695 2.177460839535121
Ni 3.5702125799662414 -0.2064603069695566 2.3891106234289055 -0.3164061256754293 0.7024474951504934 0.28647848487806143
Ni 1.4553245648958475 7.952558548535042 1.7884614009217545 -0.8218050458759201 -0.5491719515213832 1.382191120945568
Ni 6.506903452301795 6.133845524226008 7.415138194841571 -1.152812466404292 0.7204112787177658 0.8898711454162223
Ni 5.462498857685052 0.6248108420934111 1.0716506171023774 -1.1020270083213086 -0.9303351669685397 -1.6167675176376994
Ni 1.3151311755230333 1.8715196336112123 7.182217104116699 -0.5368419692011206 -0.06480079852546905 -1.3557393545119425
Ni 2.5865133360711745 3.252278967008214 9.030910116691425 -0.11205021843073606 0.43045743369659417 -1.482714569683627
Ni 0.5699600162618905 2.3096587409884903 13.23689443309412 -1.7233729109037803 -0.0793820387737536 -3.5164944512566083
Ni 3.1686654120053435 7.639315972147749 0.36369625074549505 2.6507060578212025 0.49876264583089586 -0.3644842121295787
Ni 3.532406162702497 0.48560015998640293 12.037115476012511 0.9348942470941318 1.2777243712890447 0.9711367743659339
Ni 2.2116475974592356 3.3935292302329327 4.909268969082345 1.0739158519073893 -1.5675514609243648 -0.23845362025935066
Ni 8.977642747473109 2.11199551821255 8.937610405544081 -0.7389517607241144 -0.39496489721693917 0.41086691315917623
Ni 0.09188127518820839 7.149408587673672 13.539003677825692 -0.9145673626113217 -0.6384859046968681 -0.17356026202007527
P 2.716824027846355 1.303218167630951 10.182736667531005 0.12215233986174447 -0.7859607824838012 -0.7341047170444583
Ni 5.321712135623449 0.5548355951917404 9.094967797104756 -1.5866341885874287 -0.3477414454536011 0.17411202075848725
P 2.478239391190531 1.0949862063359648 0.7687422274055931 0.8645241820110013 -0.31633130657343583 -0.421097589748249
Ni 6.187755361496404 4.003957317117179 6.5814862983648394 1.7219999418156537 1.0276848459643075 0.2756690529673833
P 6.397832216620592 2.2067989568930417 10.062842672773368 3.6412832002999354 0.2718746189219576 -0.6664085992490651
P -0.14140879430250447 6.272740998342098 2.091926967096604 2.7409407230387446 -0.6427277106923577 -2.1222206881148935
P 5.4553046988334915 8.240343444244003 13.079510156145984 -1.0837323237771788 0.43573308027323665 0.25550774752815997
Ni 6.007882848560857 7.9287047202810905 11.030379163392903 0.0041957832489024505 0.30497525813066834 -0.5351918351922074
Ni 9.171903578111777 5.770039877766019 7.825648394732481 -0.7665738933167573 0.5927426370234825 -0.21365095939337397
Ni 4.8356521428032355 7.373799593914883 4.059170632138257 0.799524637211165 -0.7774445174826738 0.6249834993350593
Ni 4.7967795808643245 3.6052933751908633 8.331221616355228 0.6261916607105473 0.5445581068984557 0.7432030798013007
Ni 0.20922672063103315 0.16024896133619268 3.3294279769502686 0.24651762821440765 0.9679509204387846 0.0872861241121787
Ni 3.1765919658946276 6.5194376053524525 2.5985181251135536 0.8788583392454864 0.5043205995346476 -0.6809918963798787
Ni 1.3432866657707012 7.141407867198289 9.542358259015504 -0.5989317965533298 0.6614103747035255 -0.1497384770101292
Ni 1.1284075241966312 4.750907547362361 12.463636387677449 -0.40175569488652746 -0.0557757122087233 -1.2112682965483397
Ni 5.9417726078772475 4.131625824262598 11.237466178014994 -0.2539110924650014 0.048938377571915714 0.7630985331736471
Ni 7.89047184514728 1.0463885507948796 6.867230685873763 0.3549325638854016 0.008129056865037614 0.9117322071553717
Ni 0.1857956419178437 9.156328595031079 5.638333000007532 0.9881695614785045 0.9440671718426515 -0.49803630918783265
Ni 1.8578729817690762 3.23452534046087 1.0553432389839552 2.005853844586674 0.2327851091196636 1.659526762982097
Ni 4.41573947395968 3.1194280696591576 0.5745388758711507 1.2285142281129808 -0.687594746408377 0.9415670311286172
Ni 1.3214538769879358 2.892904774067613 10.799859215892972 -1.7183978262866921 -0.8069253005506103 1.5411855693363263
Ni 8.708334602525953 4.391264500547153 0.6833347681014633 -0.22963165109234646 0.7032692197208404 0.17406419823968733
Ni 2.6183400723307217 5.417090365346205 10.386893174919875 -1.3837924039944167 -0.7380225640416258 -2.0219996011086017
Ni 7.509246321777389 9.081197843313232 13.185522947232947 0.7149749381935429 0.8517918220459976 0.3546168324171957
Ni 5.831625956697614 8.907750010898473 6.968657200692856 0.8036785114785384 -0.41782534675488037 1.1615588451383543
Ni 7.43586775565612 5.81442857954601 5.463852397881351 0.5827171344666803 0.27319899416033594 -1.6198965501849845
Ni 1.5645441337492478 8.74587216591509 12.63495563907118 -1.453138398688407 1.1901320287903567 -0.3157489517074046
Ni 0.20818097176704337 7.221962050524594 4.0275691768839845 -0.6202552406214544 -0.8820411078488422 0.5169586000136323
Ni 7.60536621736113 8.760158504562327 2.0986436785501557 0.7067723477780925 -0.3921996757669762 -0.701301040250876
Ni 7.309358101418491 1.2808662127454957 4.485243763039625 -0.13210379464750152 1.0913484455615399 -0.31619683787810055
Ni 4.013135432146877 5.442733462489784 11.869581501756786 2.1060091113520376 -0.17456633468708646 0.3143029632894974
Ni 8.534784791055309 8.239073341457065 11.307060394080583 0.6262073444398312 -0.30540283258639017 -0.005893482666299528
P 0.5971040596916394 3.816148979469086 8.021785639999443 0.9038072958813401 -0.4326431284940033 -0.3629166105321427
Ni 7.3381718201177835 3.6602786279596873 4.271643995075755 -0.2291354281822183 0.16884871547701888 -0.8818382478094167
P 4.8404915125461665 5.712421711190695 5.713083647971624 0.5238337298669107 -0.4414231886794785 0.02727734765871431
Ni 0.4589372722839685 5.092787696806964 5.168785270499837 0.7120729340553995 1.8299266249963193 1.0474550866126993
P 5.949541557771072 0.05571486655956895 3.170469514212191 -1.1407118264860159 0.5783107778688685 -0.18595992123600874
P 6.4712571368581715 4.375670975819929 0.326348739233236 -1.1679086986157823 1.4740934036735194 0.5324129868954895
P 4.675507941769907 7.468992407172392 8.922522140684654 -0.21476064751778498 3.3683084063352635 -0.9696375641125883
Ni 1.1554505156528208 4.48025513304217 3.2392497519953483 0.21880782100396512 -0.058513937075492774 -2.9563827128942695
Ni 0.8546021028849241 0.40955252384791213 10.576719770792176 1.7902280208551167 -0.6817884241392451 -1.4838368562135285
Ni 1.28336006420306 7.400694252198876 6.641432368661332 1.1079472304604854 -0.906356030445123 -0.47742068982001007
Ni 3.6141840946994286 1.905358138518683 7.171714188442816 1.520000707728595 -0.4289245419918355 -0.880065215069394
Ni 4.282972014019984 5.525614622454932 0.4144011644141059 2.091642301107404 0.2926648161944314 1.7155469871014584
Ni 5.665659678655548 5.8534494746571175 9.48714679815908 0.11616552615069026 -1.5687117997810531 2.3055719680834614
Ni 7.164714716879763 8.307241704904909 4.793282626329777 0.3500947761771261 -1.3505382699269772 0.15871008438112022
Ni 7.038501728986529 2.5149147680162716 13.251711989914286 1.349547623878934 -0.43041038250874264 -1.2379103246159002
Ni 8.174539140728049 7.670595729834819 7.007504731408959 -0.21706795549472294 1.2798650717811313 0.15987736521634402
Ni 7.274657409947625 4.173465049645452 9.136475127014819 0.44339419636292027 -0.8464007329374131 -0.4672105820562276
Ni 0.42434319528061865 4.836514329366632 9.938390214217648 -0.2444103520634178 0.7510212902941389 -0.4049487479025284
Ni 9.241935377035349 2.316899253956363 1.945193938994549 -1.7460580112061217 1.633584332084722 2.1785250191335774
Ni 4.875368349659017 0.29792903052259173 4.985647573611302 -0.9627007277834388 1.7623467210638166 0.2572905504601956
Ni 2.844622326517446 5.721127014234013 4.64146177042136 0.11241968595501284 -0.3979088103366115 1.5227597585309711
Ni 8.401757748064268 1.489246507212679 11.235023316085373 -2.4333095153424673 1.124338270223999 1.0943993165727215
Ni 2.353926922066072 8.014691606039115 4.249675852273359 -0.2205793110820911 1.6517571463390068 0.6675972202405277
Ni 8.25483374100301 4.072413076086156 11.46861005192048 0.7516730649455248 -2.7602288818443945 1.3643633487355278
Ni 3.6346077183463215 7.708689542619695 10.81346878444206 -1.0296481403382656 -0.11972393292590992 0.1718949585025104
Ni 1.9065911580125716 5.487604247079417 0.9041741219508794 -1.4391346282101471 2.06331234381446 -0.04458884235396837
Ni 4.768457215797935 3.6377876107252973 4.947708583574906 -1.1285998737138305 -0.26799431003094487 -1.2134462780362651
Ni 0.28197301660581153 2.3539361928893343 4.3875348483487215 -1.0823788950730777 -0.17735289629328813 0.37702322513685393
Ni 2.780004688379071 4.391310854663464 6.765098661404406 0.19559384478134703 -0.14910521430150447 1.2791297362770035
Ni 4.448131730438228 2.4458007805956705 10.440408075119294 -2.2636570730172303 0.8814605527550238 1.136414741772559
Ni 7.414869340966964 6.440134983166561 3.023030976459873 -2.855556388203811 -0.2735419793220515 0.9999336439929682
Ni 6.9232097708963085 6.916330820035666 0.3637778339902035 1.1613873525574967 -2.397559611436368 -0.7433316349593649
P 2.0688491067497092 6.743207466435088 12.358776887004318 -0.12559736098755145 -1.4447031234368601 -0.9742750628845995
Ni 5.366963023966837 7.473794693622274 1.8693586047087654 -0.6403964914560196 0.2154623015704999 -0.5186850957864357
P 2.7688055338781874 0.27217839182916964 5.933684741663199 -1.014623384794659 -0.05800074488450011 0.20049925250276437
Ni 0.3769869029743581 0.5083312915432872 0.9642954108070293 -0.7016031448723272 -2.72746454292918 -0.8416431636477699
P 7.678040200914462 7.050906090511513 9.486942840047309 0.7167094043861463 -0.3676602958647152 -0.996778129083122
P 6.007104099406822 1.9627074512193992 6.626520249443889 -1.1851093787647848 -1.6199101770317392 -0.40409899830772344
P 3.396134331569645 4.479986279167563 2.0905975310407876 0.705611751811088 -1.713645142093055 1.0355223397308553
Ni 2.942253366292946 8.780294732688086 8.147703815712937 0.7397020086265778 0.8562328885364866 0.34369375774678873
