# total energy = -340862.1454752258 ev
CRYSTAL
PRIMVEC
9.35074389476743 0.00000000000000 0.00000000000000
0.00000000000000 9.35074389476743 0.00000000000000
0.00000000000000 0.00000000000000 13.68575887767235
PRIMCOORD
 96 1
Ni 3.4654324199870996 1.3573072217677242 5.558156008031326 1.4880989739239918 0.2199247082172277 1.4204280529395794
Ni 1.8535324957491206 5.1123695813851056 2.4781210408375305 -0.45173305524591884 1.2285653930658904 0.8565887292140086
Ni 7.25556006899602 4.908196089687966 1.6754653457725786 -0.7679679454508064 -0.11274827293902516 1.145376578951537
Ni 8.476963579825973 5.722767437625355 7.037518489113123 0.7588839808716673 1.1723212258611808 0.7997064142046678
Ni 7.03692097658189 0.4136787775305602 0.8775093345604764 0.9713404057363079 -0.1934839975271958 -1.4697351267048235
Ni 5.15541105527024 3.5642604316082154 5.159777852642466 0.0933608695513489 -0.5443393060194303 1.6854838491674908
Ni 1.4109056854456725 1.7254553574035414 11.793415273618216 1.3962655967607631 -0.06516383829184261 1.984184587143357
Ni 1.6736615872862777 1.5806403875884008 4.154928218350825 -1.3562126946039355 0.5085894021133306 0.039667493792951036
Ni 2.8825257506298168 3.692749002682655 9.254077718098129 -0.5328048230172695 -1.1774708883829206 -1.2022408962387487
Ni 6.188845913473864 8.585843641072664 8.993623969390375 0.9158246320571904 -1.044870870825291 -0.2626307317261864
Ni 0.8768734839795098 7.68665741214753 12.247508901089889 0.6008470112981718 0.039155330043222886 1.198232289299988
Ni 0.6222695606166497 1.5154189493201369 0.7486579546251322 -1.0125472189919207 -0.12471521549291424 -1.2151624893964232
Ni 8.647399587756532 2.9443902718603305 12.404210536471572 0.6726247553621062 0.386904745916624 1.242244176104564
Ni 8.489091494583526 3.4820580425306082 6.3045772647304705 0.23481268107265366 -1.489776361626415 0.3956015023596735
Ni 4.5179801985950725 5.969748634611686 9.95045005348013 0.5479211098334177 0.4854281335055188 0.5407122507898043
Ni 5.305593352048246 4.899144569653029 3.398105194206575 -0.16168896450378606 1.6652171284986546 -0.43506459345130233
Ni 9.231063667364673 8.550002239942591 1.078054737648571 -1.8575271603224073 0.36201389621221525 -2.3024704463400023
Ni 3.840397247880632 7.94230674867145 6.464057941180728 1.0374157000988262 0.7166494976824884 -0.8840959334953418
Ni 2.7625183042162105 5.814498234673623 8.634522678417575 -1.4079389193336334 1.2366072895337605 -1.6406471524687745
Ni 3.2457647457508183 8.962959140048877 3.894406209213057 0.3113863038633347 -0.5621153990559288 0.05326168753761795
Ni 0.5793898545999073 6.8201894359106605 8.734100619694479 0.025286028260298386 0.26825913365655735 1.1060644116154759
Ni 0.3091692539536311 1.3718756806669292 6.547102832278117 1.298879408100105 -0.28116015798894156 -2.158769433773205
Ni 9.05248316155144 7.158592855398616 4.976497662976382 1.2957956269684585 -1.6317205394031058 0.3530572012395597
Ni 3.61600744800629 6.892227566436641 12.173564153895395 -0.42885049422079047 0.21201985154785422 -0.8868285019351565
P 8.5848618129697 1.9158365019400085 4.4948277568528185 0.37985478104837805 1.6149767442858638 4.027001896328258
P 1.7451012702066415 3.0397398067738055 2.273245308278177 0.5783814832058038 -1.4609470960995483 -0.7977019821801294
P 5.702261256389182 0.5908669575863543 2.433190716697171 -1.5221375515659399 -1.9782895618151608 1.326466059469122
P 5.414267696930506 0.0663790603553768 5.761977911760166 0.5501263450148526 -0.20820639133903496 0.1580246282783214
P 3.5909848574964873 6.479317420049543 2.908237490960461 0.46004106089098185 0.7792103511338452 -0.2328730408477796
P 2.3944075715557442 7.628299419856169 10.041077462755545 -0.5835553140972595 -1.1528857428443886 0.381822189187394
P 1.311582084401156 8.794832765846241 5.504644506271069 -0.08622245873435473 0.01942288461130203 0.34628208729925525
P 0.714381868013498 9.347068995415723 2.7806447211456775 0.5424554587331561 -0.40792737091487813 1.1704036971234941
Ni 3.662976234303278 4.049648193481667 11.26764912970462 -0.3081950506195466 -0.02001398122808166 1.3458832876534694
Ni 6.37683326758787 1.6515003243908244 4.477829974704568 -0.19894322086955415 -0.753285146627651 -0.9286577792661167
Ni 0.9634538913219487 9.18776037265208 10.462776373275739 -0.46522286220223746 -1.4989436299479797 -0.23023534611461638
Ni 8.67547052075744 0.7367264054881709 12.314172224057934 0.06525665511596503 -2.7288907338527455 0.4889145493922225
Ni 2.1232640524926825 6.845109168238249 4.536979974998984 0.4982083159893226 -0.31052832673841363 -0.8990695240860387
Ni 6.13493887524927 7.373351389120081 1.5180652098262182 0.1415106897836982 -1.0617455350934422 -1.52218203165063
Ni 0.7848472034259689 4.685910207177116 5.094701350903687 0.956146985825321 0.5624576128866957 -0.6721874107143714
Ni 0.1665208514856957 3.6921505550770393 10.399726177726599 0.40219175398268153 -0.19047632104912357 -0.19829633131417462
Ni 1.8114167455039216 7.680448518239268 1.6504474306346946 2.1031431026581524 -1.069688186979287 1.0115056651012837
Ni 7.257542426689621 5.3834476452413025 13.071924712139657 -0.5942112511492089 0.42568957999430557 0.5867311407220798
Ni 6.725017565130103 7.145529866257287 5.474563163345047 -0.0636502298607936 -1.1232887459135623 1.3654804930591065
Ni 3.6151191273417043 1.4436145873901007 10.230720833603213 -0.5825101606621967 1.0221685441317687 -2.2773512826748714
Ni 5.971459820733993 2.554941141762132 1.916088036949244 0.9284965710979042 1.9551174945740715 -0.813079235967148
Ni 7.354060804582814 4.37176261720427 4.263222923033273 -0.7916524335519398 -0.13794534102994307 1.14543417166235
Ni 8.048073012220172 9.054989160899954 5.5291425200515745 -0.5093705032537292 2.1099642393450435 0.48071684407277854
Ni 8.336646317796788 1.2960879018620146 2.6248052243458364 -0.9787089302862371 -0.6943734598931073 -1.7381017324735228
Ni 8.100932767134937 5.395893485289339 9.636101422514773 2.2611679880467896 1.575712142358286 -0.9646555375169643
Ni 9.246595252879166 6.1515083933297525 1.082639407352217 -0.08858761653242163 0.317417340548763 0.030458573600173348
Ni 4.775312669009787 2.708237236238107 7.655375433712741 -0.044297022145162415 0.8706007272223845 0.26974394573219995
Ni 6.880155756142113 3.156867224085387 11.0774035709538 -2.1852741649319527 0.502073969592316 0.36611994796078884
Ni 1.3322659297702457 1.8183736989192032 9.609086188493148 0.4029358312375576 0.8261972614063449 -3.4831973797663753
Ni 7.8671361189598255 7.928720117875208 3.069428418458643 0.5301267619644741 0.09049768907094091 -0.32403381742401616
Ni 0.5973058797930247 3.897072106281198 0.5090965728740509 -0.4181922431759959 -0.5282398293544064 1.0320210114458161
Ni 4.801148774233472 1.1539098418091176 0.1480896003071186 0.4751516912801753 1.0951102265968173 -0.14381311266462973
P 8.135287399994809 7.871792789391022 8.126590273151324 -0.1874493612973417 -0.054200140191487306 -0.29777951171317746
P 4.797324320003836 6.102164518097978 0.0445254369321854 0.5536708678330013 0.31666863530819656 1.4054878866899796
P 8.106758280545852 7.60107005380066 13.094958399435171 -0.5149053170290294 -0.45520044496922896 -0.463798213940569
P 5.237968772613682 3.9324366194755456 9.564046460649887 0.5005007115679251 -0.7341833928011937 0.013471295013557445
P 8.304040274034575 1.5544583048427176 10.329394557951009 -0.5714431042147577 0.8411150590584417 1.0627400377962277
P 2.062325254902105 0.07909420182594104 13.241847364233525 -0.3670388602306324 -0.23854720841442142 1.2560232321665272
P 4.89938768899281 6.697199102212815 7.935044025932673 -0.12130850380421043 0.9773670715463617 -0.2060716043842193
P 5.461030766863064 7.797370219186417 10.923548301996329 0.24224728297382797 -0.06902383546788113 0.028288819642364182
Ni 9.40871844953797 5.273669912586189 12.351561173293154 0.19170633680148275 1.5674072220370168 -1.1481196889143128
Ni 8.473840431384167 7.563096683075581 10.582198463125101 -1.2503081840596209 0.5305185980862541 0.6806661376093438
Ni 2.9817090905167665 2.5986091154843964 0.36380190990003397 -0.7557806593559953 1.4718917680365102 -1.0100542773667378
Ni 4.14943933171807 4.4613240416821816 1.5598069303179072 -0.45615766667617574 0.8518082771062297 -1.0808827701435255
Ni 7.496697051083761 3.486106914612351 8.87484521071705 -0.383423729346559 -1.5090328958631818 -2.6053615682481324
Ni 4.027973169265776 8.527934484485515 0.8971440264709711 -1.0986115548818565 -0.9247756706028912 0.9363029545162004
Ni 6.676851883621884 1.5885324153874567 6.935915176720964 0.7251950732596543 -0.6788424541370438 -0.27252819334555645
Ni 9.05036054270027 3.6774698872517813 2.9646505285335705 1.9465881169468218 -1.9311481282426675 -0.8804665642728708
Ni 5.08287733532086 4.114074818523722 13.028938407643164 1.2044785273200158 -1.1337901596655184 0.615098121900547
Ni 4.04875987281708 5.351299787927138 6.399542484072215 0.24177214310962236 0.2923611689110836 -0.08633764415598034
Ni 2.4735055136792203 0.9596761908115001 1.9762918660741744 1.469711986776372 -1.3143085981709814 -0.2147940718588817
Ni 2.574568353077557 3.424859542475128 6.85932977946669 -1.3845997303870605 0.1478039789915777 -0.7076164409459427
Ni 8.845093013974115 0.7712512218858892 8.50613696552535 -1.7267490264648646 -1.6183196926161678 -0.1744344370949125
Ni 3.835974346045379 8.760945670178257 8.899397458811812 1.0003447633884577 -0.0602201211333221 0.3815532517967235
Ni 6.496747206563097 0.3961124701569744 11.496612378390003 -0.3718010575059661 1.2757428220826417 -1.3052462308583972
Ni 3.9709242811117 2.6293824134544117 3.0838940191756326 -0.6064620434921039 -0.4921235432478234 0.6229736679938819
Ni 6.542612605087232 5.727040727559205 10.938890067410917 -1.2933736477905273 0.5647227547717887 1.5739136556969668
Ni 1.808957499874595 6.979526110905819 6.784796870484801 -1.1866970349668788 -1.50117971836735 -0.9913911537395957
Ni 6.097535899898294 1.5526349097943577 9.38128617234118 0.0884778304274347 0.0996266479554026 -0.15840669420808848
Ni 1.7486171498896332 8.89024775596658 7.98406623557643 -0.8663224115620047 1.9219176107833351 -0.0529446705178314
Ni 3.7774947940841286 9.318867152001088 11.880429555474727 -0.10184113910821815 -0.8246648839222185 0.511113454086765
Ni 2.329625618247854 5.418204360086197 13.800445839910207 0.6710993198565152 0.38793241585018995 -1.0106898540682077
Ni 5.757954286686785 8.361042408469462 13.053353199803514 0.7767359214514236 -2.327833607695139 0.07775298781076287
Ni 5.579822616577762 7.507300794595762 3.6571086425450936 -2.2617236034399437 0.6801020375757578 0.006363480324182589
P 7.6235866449619465 3.091954360363768 0.5418877613642513 0.07610696756690763 -0.17470234604431847 0.5554894090989787
P 4.6831049840257934 2.071208461547962 11.850854087790326 1.9214517268905105 0.7612223991968567 1.4007107770163103
P 3.009321837069624 1.4660563726006863 7.925697022392464 -0.6436386525424012 -0.11584593802774241 0.269670155071471
P 6.731909063338521 4.74259441632152 6.389990699241959 -1.910486486128258 -0.18655821694164 -0.49597916954848775
P 1.6174916690529497 3.8009651611168658 12.19000089141338 0.6490132865907533 0.961097644962377 0.3373292489813416
P 3.0071337630115926 3.8062670328728667 4.622693568387664 -0.8550941469463532 0.297118738200727 1.7163543134941022
P 0.6094272490298922 4.5206358098449915 8.442251748551499 0.6326019351122654 0.3917988407841317 -0.9522245108424634
P 8.747742419879364 5.714314365196034 3.271361471932259 0.4975765959425946 2.2912442386068794 -0.0067152072366465
