# total energy = -340865.03083662695 ev
CRYSTAL
PRIMVEC
9.33013052605839 0.00000000000000 0.00000000000000

0.00000000000000 9.33013052605839 0.00000000000000

0.00000000000000 0.00000000000000 13.65558912893157

PRIMCOORD
 96 1
Ni 7.887542847133649 1.3702322614017948 11.843409851580907 0.38097886735049225 0.8233111981078014 0.17514791822216935
Ni 3.218615038817502 2.3181455063179954 12.63236193505597 -1.086847986588025 0.0639765028519608 0.7309360895084894
Ni 7.978614248687111 5.455775014402576 2.1548794227708474 -0.4472652492825523 -0.9484501314016954 -0.054593004754531785
Ni 7.039079460752265 3.929981491029583 6.8085944536837655 -0.5157118720907247 0.14883807668304688 -1.398976567934023
Ni 2.2706364829894197 3.428906844945303 7.331658350785482 -0.549675373520363 -0.3211495538976856 0.1588203847067394
Ni 6.115751109094273 8.975781251292148 1.1490689874848228 -0.19321094637146724 0.5305677061566346 0.8303040844858668
Ni 7.7126495552455605 6.210591883276318 4.7554218479597505 0.09339532233371012 0.8634458613451581 -0.022650390409664215
Ni 7.662919960913017 6.645823800053889 10.869849011568885 -1.8233250605194018 -0.3727857900167386 -0.8318282344398771
Ni 4.872707183516348 6.848903415483932 4.5080782285086105 -0.5078561234917317 -0.5811161085281477 -0.7626755867036155
Ni 4.406919090108555 7.105761901783163 7.115667701089516 -0.2214905100424508 0.12220247637338953 0.6128754032176155
Ni 0.42774448723688374 2.1971057263412455 13.284402753954078 -1.2718337168362224 -3.1511484053473664 -0.27017743372519276
Ni 0.0025247332507290954 5.789327171511094 11.877768056295652 1.8956039125894708 0.13904345919012828 0.1540216777665154
Ni 9.174102500285116 1.9078157072277704 9.170546787639688 -1.5814086785224313 -0.6505960576968407 2.6096673947123374
Ni 6.21368948652555 4.747244921792201 3.576466587198005 -1.2951700775693178 -0.8526060904171768 1.090325403613664
Ni 1.4216599394432536 7.677064438400473 1.3397796492175573 0.2105160133088181 0.6004963128269722 1.5679268419859127
Ni 4.297402021013736 4.056171502914694 8.268130989966117 0.4941804257768521 0.1871382578148261 0.2744979154774176
Ni 0.8729829687277108 5.239399963339536 2.85984913767066 1.6279482168448671 0.2576667028526917 -0.04360282429161523
Ni 5.628335773723472 1.4474950701574771 10.408467538687033 1.7931068850648086 -2.1527083151807895 0.5026231572275667
Ni 7.103923866120215 8.641202779854064 12.625369935432554 -0.15837404119794016 -0.9243447537130596 -0.31982029356330083
Ni 1.2413458418690093 2.7723362478017073 3.898916822299714 1.3158098653068564 0.04209358673594041 -0.8111514228168158
Ni 3.5499466249220535 8.552529221779677 9.202651765894526 0.8678532463842343 -1.4687527081868963 -0.5773417290873798
Ni 0.2023770566208041 5.247657128627398 6.177542695838281 -0.29480345980398903 0.059598428388923166 -1.1648956228210712
Ni 1.8102785253980516 0.954546967537296 1.492460699974786 0.08406941694709393 -0.06469486907522407 0.5666827067116369
Ni 3.296624257994686 0.45903494511925685 11.221971859964365 -1.2164840364213243 0.715295297647439 -0.9366374550374837
P 0.6102707586978533 2.9712639552621467 5.934049621149063 -0.3439495825113367 -0.15351028534773564 0.15854887621290756
P 7.114075047852637 6.443499925175617 13.24921230161936 1.8261902978823386 -0.6475783539164396 0.051826497752988164
P 6.85725388207448 8.486331947522755 10.066367116226267 -0.5217796755513594 0.7316310586929851 -0.6697790583831948
P 6.117775747362596 6.519979002988723 2.3770009010664217 -0.5861716686741841 1.191581873863006 -0.03255633666946651
P 3.1441885896635253 4.441879088225635 1.5315427496446088 -0.36482771151192656 -1.4531630812787555 -2.2121205957008354
P 1.0125150668971625 0.8847398658793875 11.570503541219392 -0.03755841786974822 0.20862085316863424 -0.29182046591626515
P 5.1383266621379535 5.400046146307215 9.80853643035303 0.9811969868154133 -0.5750801867467129 0.4296508786348988
P 2.56474084932158 0.649959266835146 7.36690291787576 -1.1125757303714323 0.9652870004533762 0.5122493674634211
Ni 2.5634159708234145 8.29136954542654 6.1142349629255985 -0.8839241838041682 -1.8972805289609451 -1.1719466161305818
Ni 5.125264479761676 7.2310095705111275 13.267742873346162 -0.3258420742773485 -0.1265730946372594 0.19279931275534537
Ni 1.5752245535369351 0.37183834666641535 9.305218820952138 -0.552294556310765 -0.42204864080760857 0.6807329862915373
Ni 3.4486680608545575 2.392441333648209 5.492632761016323 0.3430556099421576 -0.41605591355928345 -0.3681506052375724
Ni 1.868330595930337 2.5754145183490524 9.890183467322009 1.911627798821553 0.821690631785243 0.284260137070504
Ni 8.175433346706809 7.7487571593857 1.3852089865092239 0.09675498283456241 -0.7171470061441971 -0.5044198441166732
Ni 1.3964685877175753 3.985103900657475 -0.1920346072178728 2.304817092195308 3.036819675295099 0.42043553068421785
Ni 3.965790531001121 4.949456835107248 5.9889182512336445 0.038005789819811966 -0.9944998745719067 -0.14504081442414374
Ni 1.9563510448859107 6.195747646018705 7.41038319095428 0.8278821053079354 -2.209593715513924 -1.0217039457905244
Ni 4.4018621595028815 3.256299434973063 10.737211879668054 -2.1957920337441412 2.1664521471294433 -1.9004152179351852
Ni 5.209599527261086 1.4268288316121522 3.4996133711611215 -0.29169602452325893 0.06111075126839152 -0.03958676115368666
Ni 8.702249822202624 1.407674074170368 3.9946560880266415 -0.7459796141051733 0.7244065159200879 -1.0758043271793536
Ni 8.014983096474776 9.02572543862087 8.005944066270391 -0.20209899288971644 -1.4075501685356469 2.1922598522211665
Ni 0.26378237597168536 1.0333492477873254 7.182607653715832 2.8264697552505003 1.1101609502823524 -1.422286446304557
Ni 4.4102032959631625 0.19058657100015977 6.327262363248202 1.0171880601980416 1.889760052214184 0.8817981386001007
Ni 7.634192489815476 0.9896002669570639 6.11501402880304 -0.6947254439158873 0.08469136680180897 -1.0252068167374602
Ni 1.4489785608702115 7.2991755022547595 9.79433410605791 0.49064670159198076 0.2442566000943729 1.4240605074858443
Ni 2.98443809920165 8.177290042630293 3.249374612287582 -0.2905493125133254 1.0942131687038446 1.1138923923003268
Ni 4.195638290172265 1.4752335474465297 8.705410870337683 -1.2462550970361697 1.249586475402248 -1.0169337780953904
Ni 0.7231569378327254 7.957089638157059 7.8015059838732155 -1.066950990553782 0.8877677259199742 -0.9017447569253566
Ni 6.7807374837403 2.7476300628500043 2.315715007382981 1.2268180713574808 0.39516955702857753 -0.492758605728661
Ni 5.67036801058428 4.545844729810537 0.6378795471761699 0.6540338797337962 0.6044298435534236 1.7625094718939258
Ni 1.2714075215949856 0.4957732660655646 4.896211647689432 0.9072289199683794 -0.28929718527377923 0.0992522953351194
Ni 3.956889586724715 4.691683996041677 12.859795989526583 -1.5441991593516695 -1.4271404319627485 0.6636827156774698
P 7.296320482392516 2.844961981813811 10.285826708356163 0.0715597145158574 -0.2936022404070363 0.05264976498523191
P 6.827565407559255 2.278613744369218 4.634802856858122 0.1511862652002493 1.776488302671521 -0.5696029656822256
P 2.300427588937602 6.0233268386518395 5.208296108062538 0.7919751069986811 -0.39249972350589823 -0.5211304720031348
P 5.227186822817717 2.5669800805860845 6.929391650273527 -0.28485611878329004 -0.2593584887328178 0.23025205828516476
P 6.701739270754626 1.7016758090695714 0.321187868476345 -0.35370794744968115 -0.5158393988075245 -0.2309629683092603
P 9.185970425986993 3.3651260744279936 2.1257386269023986 -0.4490025436886332 -0.08127822735520196 -0.4660433012210038
P 3.0784391616595053 1.6236385995015814 3.312586244858497 -0.8345268643179629 0.2980057687913706 -0.548317831051204
P 4.774218328399214 8.245642576979302 11.193144556472946 0.502618015021244 1.002274633421319 0.7851051193517253
Ni 7.509672571248474 8.77871956988546 3.402207744168192 -0.7748988682426847 -0.5728286717083747 0.8382297670908466
Ni 0.11867179291453625 9.027983330145915 13.366513498397413 1.2519423772289342 -0.41299372969419196 -1.5988782960621044
Ni 1.293473279680626 5.070477954823461 9.686947105703451 0.06033864898905737 -0.36176681319841564 -1.4247127963578623
Ni 8.583048077888822 4.045423192845071 4.261513674934913 -1.0589486890745956 -0.9924355358437101 0.32187074833442636
Ni 5.811243647512435 9.118756167530774 8.07555990025779 -0.5924248486727474 -0.7290589270904347 1.6961626690375757
Ni -0.014288161493594001 3.6207343232712095 11.007619581143592 -1.1272500445541553 -0.8156228283246083 0.7540305094341079
Ni 6.427498751764677 6.658960623472317 8.337869981673064 0.37358797420305984 0.7052409987352306 -0.03328550152600719
Ni 9.2720688681072 3.7307458892702736 7.951690291770523 -0.018274629939471754 -0.05419525509548086 -0.3834831218295847
Ni 0.6954352547781568 7.210026107536665 4.638462133949534 -0.8386725110552202 1.127291182204736 -0.7133769975788037
Ni 0.17640850504373726 5.872262699470189 0.4825039547973203 0.4657052011552947 0.7525138156792653 0.007787100144586589
Ni 7.049016049488506 1.8042792516352324 8.222056940672879 -1.3904605600432116 1.80207515000169 0.6413868803937469
Ni 6.148863741418137 5.032485664369029 11.803043975986101 -0.1693210271277471 0.3612140260187392 -0.5707625332079654
Ni 4.328601976632502 2.137560834965957 1.3858648946671184 -0.48481184007775857 0.5464077585126849 -0.6517697662899677
Ni 3.6239998688652793 6.473477633729175 11.614269316284137 -1.4454973372033815 0.8069870070264812 -1.792774184315738
Ni 6.569605965888309 8.210691908992489 5.901577035761636 -1.6292494521547942 -1.1358138749637663 -0.16811363708320726
Ni 7.373014153201804 4.685339507458913 9.098759832338748 -0.1213162171136943 -0.23352481549916554 1.4890330557024871
Ni 5.641761831180233 2.8708064426583033 12.438356804325334 1.8400806827111857 -0.9386267175533706 2.2602439335706235
Ni 3.271199653012288 4.045460513366146 3.6424641966671745 0.3085948571611266 0.2550254085751027 0.09250726330180198
Ni 8.956813096455738 8.512437652014771 10.703659798208532 0.6445891893811286 1.7019592211146948 0.2936102108268363
Ni 3.7363812879526104 8.660553470031493 0.9539059875878315 -0.7800133066511148 -0.15920784995314516 0.25352208455669883
Ni 3.841447884909227 6.1571302368362675 2.4031784475615092 1.0508425150276934 0.8722763151525946 -0.6177489292598329
Ni 4.9066595275644005 0.5971861840089306 12.87913175149558 0.9342938945059717 -0.46428775198247785 0.2665534638193603
Ni 8.451390609666213 0.8634289153324906 1.4616666050227114 -0.16343602910187982 1.065399586906262 0.5285679021177864
Ni 8.064973934454844 4.107151334703252 13.529260826701618 -0.1967510983142418 -0.36902143787829994 -0.08211743542704568
P 1.7874103761092968 7.338212767299292 12.973177598578728 -0.39692587759805187 -0.6836874409341709 -0.7851735106958154
P 8.954405922846396 5.950682444379199 8.175560236478464 0.36483568193172655 0.12195693602148674 0.6440757400798197
P 0.48352000598358935 8.98872214197493 2.9978800178798664 -0.2145009660984951 -0.4685007616225609 -0.39476460828067494
P 5.972804183246452 5.86656198987597 6.034268282418027 1.038621033260837 -0.5171113235414126 1.1532837496137558
P 8.634569057232968 8.207491674310301 6.07918166350583 1.2923765739845807 0.17251408014374806 -0.8470635633323929
P 3.2530898701606064 6.3021018009524115 8.979765216916912 1.155557376139281 0.3304006401823084 1.0755824409765349
P 2.21360139665643 4.183359838738563 11.356711070214748 0.9525261012432822 -0.42321103654682596 1.6185035264921996
P 4.970804173162193 8.925613140836973 4.44602726414313 0.028866546522705126 -0.619996587643429 -1.2580392341552915
