# total energy = -340868.7567067904 ev
CRYSTAL
PRIMVEC
9.25824310698503 0.00000000000000 0.00000000000000

0.00000000000000 9.25824310698503 0.00000000000000

0.00000000000000 0.00000000000000 13.55037462462398

PRIMCOORD
 96 1
Ni 1.3598414930653049 3.57848687734876 4.996673818635372 -2.911862776105024 -2.41952608840513 -0.8230209205608923
Ni 1.0511161175674073 7.023312498592945 13.194000057434403 -0.5263145873072355 -0.6868498978225525 -0.04808528554300105
Ni 4.759061008638566 1.358813828077592 12.70873387276354 0.2901939860564357 -1.1561788117733636 -0.8823293285132222
Ni 4.512097373077887 0.6868107310718935 3.9524541663773998 0.8500984935039746 -1.3275065849184944 -1.5678939318654481
Ni 4.919173065372826 7.845101933767175 2.2992948660353814 -0.022180135641465027 1.7040037623485496 -1.0827979848883675
Ni 7.409862665863029 8.827938508232052 2.7561873129779273 1.3263033086390124 2.0020802364768553 -0.35591189707953547
Ni -0.09860214101024727 3.521011703981911 7.23687609622865 -0.39290570069506525 0.48247804973825936 0.2559281228950302
Ni 3.67544845767592 2.2453831904502497 7.94301248401542 1.1370454333780224 0.1384922146723486 0.3316717935852481
Ni 3.205175997758218 -0.01650559585670399 8.854451339090724 0.11776989452333267 0.055345566649840174 -1.7183335487076599
Ni 6.599794166494604 6.972281062446349 3.598247671490867 -3.392644154867151 -1.5957734318845356 1.3717169608871214
Ni 9.337771441055125 -0.16571421965376396 11.58498776364562 -0.17002190984951365 2.386581258047993 1.566468255162515
Ni 2.2016009586764373 2.707369522764323 12.032055362975907 0.09397176366247043 1.2654915766682786 1.7173421313286683
Ni 2.8105156095040233 7.7697953841270415 3.2369271425812864 -0.5821658899489006 -1.6964786576160977 0.7642082212980581
Ni 7.019794366202578 4.9335881499302 1.2211826373177814 -0.047287729342370174 -0.027226182705804725 -0.37335606069791183
Ni 2.9314375230582144 0.4031261257745949 1.9288688550049409 0.8074274369980093 0.7995063823787198 -0.17181345453229763
Ni 1.6031851555611583 1.836557690203259 7.326186664431073 -0.9691642240205952 -0.6016000874141123 -0.5754954199072605
Ni 8.690305465823615 3.165948821605618 13.355438820409555 -0.608919503893661 0.1779229098641452 0.8332117450509651
Ni 7.918380928161281 4.8584112156939225 9.448852767983732 1.1839300137447029 0.342486624812565 -0.7869701975849221
Ni 3.658903977198059 1.8526022255519623 10.402703634849232 0.632021380018447 -0.598496251677808 -0.2222037340593915
Ni 2.684307239121149 6.370365643426967 5.559989770386541 0.2776032938756187 0.9863096254516305 1.0116748436892966
Ni 1.966839687564454 8.014805530386752 10.463030347100904 0.8614257455913358 -0.21607808077762786 0.27682476383838134
Ni 2.9884960754840986 4.925496445432356 0.07080796930202926 0.033738015682393506 -0.372838497631545 1.589285767277663
Ni 4.45070596286597 8.168621981790881 10.557137611070301 1.218728609481127 1.445290106288582 0.8620358683715089
Ni 7.857248748757076 5.886872412315989 5.114467371835076 1.398198809227734 -1.1084817628077166 1.1354744893464768
P 6.618282878030299 4.3228866581780325 7.136263990634327 0.6048756728415905 0.15879030279975234 -0.10433099540960743
P 6.415388479780542 4.23587768921836 3.4735974634272004 1.9130665881506084 0.06315812071572349 0.3713081770299477
P 4.176319411146689 8.483578154916982 13.154690482917921 0.053085309860753736 -0.05972261267161327 0.18441391690512754
P 2.456628524005564 5.655147844951482 2.1834529504880194 0.4085562627481287 0.027817279322584355 -0.14522619096207245
P 1.2219029286334935 8.08300174930109 1.7371445270946007 -0.18172634277063543 -0.4331342091978089 0.05538233342504655
P 9.231190546113249 5.063518334052358 12.341830623245034 -0.31231730031803634 0.6577174992329705 -0.019185057568883092
P 0.7540542767678924 5.3409971389779125 6.092858137947704 -1.1591139831422876 0.68984394745387 1.037567138075026
P 9.439612115513137 2.223691126790693 3.5622849518668036 -0.9429202027224018 -0.8021782727839282 1.1451685767057889
Ni 3.173003602872619 4.4657043167406965 9.317088525897017 -1.1230838289916076 -2.9811578629564206 -0.02294889548668951
Ni 8.62397941202205 4.07478425871205 2.7884772875513097 -0.6188807288714309 -0.5343983927566345 1.1260364838620283
Ni 0.7545412603566642 7.846342538346936 5.779356434817726 -1.262291324563426 -1.0310496486714824 1.0101563501622408
Ni 2.5364345798081156 4.0659981859792635 6.802897801039157 1.3502947864576036 0.7423679854945151 1.3253854248104335
Ni 0.8128376398893702 8.015148085382657 8.34152893053432 -0.3150367561317284 0.14828117573831237 -0.19275123312622933
Ni 7.857359847674666 3.159079205201269 5.206473940437697 -1.423276321021652 2.5511843108747807 -0.06678877548977528
Ni 5.227648468306144 3.1420347795942503 5.404024480751349 0.4057532460816947 0.1687481853434126 -0.0106119711878914
Ni 4.68338412927313 3.173429482056716 2.9346316169389426 0.06751305525030954 -1.8966557508927526 -0.4685922928951026
Ni 8.601648529586349 6.587434411912653 2.808396397650984 1.0354552339383458 0.5730104487018777 -1.737894501558723
Ni 2.237124837576018 2.608028573952098 2.888722766717584 -0.5950766844732978 0.22082356588241323 -1.1761346860700002
Ni 6.561483556412125 0.43522445471513377 4.967255751081707 -1.3447036655230713 0.5307425411716021 0.5120102548694214
Ni 1.0761596652409458 5.7976229485182404 3.901451430784514 0.46212288312067507 -0.5857551499620558 0.07900305816778007
Ni 5.7130303810161625 6.020857706930203 11.358059892048084 -0.28444268539495526 1.9370133287741929 0.037142413378252165
Ni 7.966931155148355 2.4546102270026693 9.256166508611921 -1.0179851021780404 -0.4899694730192981 -0.7768948156267911
Ni 5.828202925585042 7.05546637699228 7.942105176188432 -0.7251377376591576 -0.22040627583933656 1.9526196678528822
Ni 7.107766192448035 8.433241087005326 6.816556487132603 3.0697516501364293 0.5483036899838171 0.18582468120972512
Ni 7.523720539907086 0.012360680406262899 9.211938029519118 0.7180654041934085 -1.18793887779378 -0.7415470322551165
Ni 6.463031398940626 -0.0021562448255700913 0.5808205120418741 -1.9412579629831601 -0.9404647992033739 -0.562843792581521
Ni 6.182719571616515 0.9428872553479383 10.881113164656128 -0.9923656018377232 2.7807097754065655 -0.966252192580123
Ni 5.984065448721462 2.017047140072254 7.512355120637572 1.4654406130945279 -0.015261554144760813 -1.0434505934389966
Ni 5.488351336675523 4.924626170577896 9.353674325283901 0.6878302594579508 -1.0635535348364586 -1.7068772272416022
Ni 8.196748524427557 6.2715246397439 7.577152638497953 0.2059008831343099 -0.1680987246848718 -0.5382411635414924
Ni 0.38063970485426585 5.176376317838102 1.0288380071175607 1.0321721923116998 -0.4782434428316215 -0.25403836207148506
Ni 4.689059432313381 5.4429026211378515 6.702638434508183 1.4340847244910655 -1.5291337803781149 -1.6037189119838573
P 1.3751638854496693 2.88634062075958 0.6256739225461224 1.2799110945277183 0.6906564160528363 -0.01929818610797967
P 7.371228017270912 7.019164805669564 9.83190794847128 -1.0969909885592979 -0.06778713484730262 -0.4313832879449732
P 5.012116568180461 1.2658055175680294 1.8201002372108444 0.36635571812067874 -0.6912462271180353 0.17595318773228405
P 5.599987232367769 4.084449864542429 13.225274402736144 -0.17973090960716143 0.7067525502837506 0.4342994331505037
P 0.9883730038581395 3.645535074114662 9.672623578673068 0.08283657298125735 -0.05362035642861734 -0.8764577002237937
P 4.672135363867087 6.271691288120286 4.541963539599169 0.20000714335769423 -0.9561061052850567 -0.826357698243609
P 2.6403213259984204 8.114470517708616 6.977467530249202 -0.3011533132814168 0.8800495313401101 0.13256196523084268
P 5.225232066848549 -0.07083759568005342 7.277404981365685 -0.45285765576866527 1.742224753502961 2.1767908100512896
Ni 3.244393915667685 4.480147176027468 4.345497139556338 1.7898554680070466 0.7233634193675542 -1.1171767194785533
Ni 3.299045324879107 6.372661687723839 8.14271834333033 -0.6523114977260507 2.41899412716106 0.5047862263171564
Ni 8.750706244020348 8.924335335728125 0.4478277010914694 -1.1118226542554916 -1.9907074758635395 -0.6771581244560854
Ni 3.1646989587827243 6.756851002995123 12.190161158423344 1.7704264127481575 2.4304121391900146 1.6653981341612092
Ni 4.3659374887443745 3.9623243793810077 11.476110824406872 -0.028778871904905273 -0.25859487109391593 0.37438321641084554
Ni 2.431584976332026 0.07282163718335814 5.088829444952428 0.7513223664743254 1.0964420580343632 0.8653664754066387
Ni 0.5456049326386068 1.1512995665046937 1.6828347470547695 -0.08049429800132588 1.3305420293107084 1.1834708147200972
Ni -0.09736246225479928 2.637247589278415 11.17974983261249 -0.15462048769277886 -0.12916168130004207 0.5498260401656144
Ni 7.095711959889459 8.452914853661989 11.69654774174418 -0.3282139169436348 -0.9416572768495782 -0.3818075338993747
Ni 7.4852340232050905 6.562196441133332 12.71774492080445 2.2787196237773077 -1.7088006695165603 1.5110252437028622
Ni 0.828677568064844 0.9013927354521779 9.700225178924128 0.18089459089795942 0.8570224743173176 -1.8917292601254128
Ni 7.047735743976603 1.8932459129038417 3.2756404862400297 -0.021558185786749968 1.3275693198356298 -1.15656756257135
Ni 6.602006886603283 2.332577324272573 0.6327240746915566 -0.8373414509486226 1.0610863042428886 0.38044253523104804
Ni -0.057372406868077715 7.070038851682908 10.987171894685329 -0.7813803622019704 -3.389502009693743 -0.8672009575122162
Ni 4.828257117811218 5.422701134622635 2.344851903017703 -1.0599907571858647 0.4078970318975749 0.5516283834816758
Ni 5.347764914707803 6.568797568486838 0.19613217746574566 -1.0541852062476813 0.019231337425786234 -0.2157510364555123
Ni 4.5847282904527145 8.064411197090937 5.701239082562552 -0.6599551303142377 -0.27140744947755197 -0.9827167658940495
Ni 1.1140166214099287 5.426293332958063 8.434714999312028 -0.7043511399311095 0.1791207868269883 -0.028303217820067384
Ni 8.730819537771637 1.192452457228863 5.469893177342165 2.0010453674544375 -1.8320138465426512 0.7070130030339888
Ni 3.6119832010023134 2.577031975944332 0.5939403683850059 -0.5484034487864748 0.8327787712786044 1.3729832291940547
Ni 1.7383832800257355 9.237625025090368 -0.053517274427685335 2.100130283973757 0.8684353441399496 -1.4769267593572564
Ni 2.061884811563177 5.043640886046782 11.449944251841353 -2.407315148161235 -1.1320443806190053 -1.5112972664173263
Ni 0.5684477959195389 8.859249886506325 3.7021788572482084 -0.5492071756346928 0.39179986922539617 -1.2534945522074026
Ni 7.036190714790318 4.196039469019013 11.445283652248431 0.6914362316416544 -1.1785898324787123 1.0363882872755765
P 2.0656066253024608 0.7593629533800945 11.453278145193384 0.41679176328404344 -1.4402317179290678 -0.636412309997291
P 3.8080542740633843 6.220104357385737 10.302972914001126 -0.3122231979423332 -0.7977996841002583 -0.9403688970554579
P 9.051191783130278 0.6893474896902113 7.630608808520964 -1.0025199166629057 -0.4126571722903797 0.5767251785493035
P 3.38303610657757 2.188046890730389 4.641694260447273 -1.2308989262950736 1.543885998986625 1.9843691923503373
P 7.149909715187388 7.225364396717642 1.308380474437358 -0.5037521286256873 -0.17460850077893153 -0.6540387648298025
P 5.475010208321523 2.6225547574270633 9.47167155983252 0.27386285299658 0.5729196887602843 1.0570748690906504
P 7.692202048433168 1.1631686342006182 12.642323568949472 0.14736714856447525 0.5514977714410824 -0.6518389289650064
P 8.008009979927463 8.165002008726056 4.852159124106515 0.4497517631498319 -0.5664888455332759 -0.6355201372003249
