# total energy = -340869.66878026776 ev
CRYSTAL
PRIMVEC
9.29681614552295 0.00000000000000 0.00000000000000

0.00000000000000 9.29681614552295 0.00000000000000

0.00000000000000 0.00000000000000 13.60683016555357

PRIMCOORD
 96 1
Ni 6.715675836698187 1.1619067565679622 11.893321775886163 0.09428132448308925 0.7088477422498825 0.5872965263072466
Ni 7.343619971037768 8.77914131687714 0.6919164543503007 0.007507107010322555 0.1671996099093701 0.7410698355083818
Ni 3.6302950540387613 2.5328803094913144 6.1205020487866175 0.34095887531412894 -0.6072752834220186 0.4604303259096006
Ni 7.75811850872476 1.8684554694910014 0.7038238161775857 -0.8698157694272438 0.9593788624990572 0.1628531600152163
Ni 8.05543068177018 6.020673769144829 7.73453062737858 1.0205677753035522 -1.0032760781026397 0.7278363675372433
Ni 7.099755192702734 7.624235062695146 4.38218805691839 1.5139074503466636 -0.24279724194002703 1.5504757363890007
Ni 6.337834644174363 5.271759466085205 3.609878316602081 -0.7882380085537521 0.4699004701835649 -1.2515628824023284
Ni 2.5231000591459805 5.705762723567359 11.905812977753074 0.8474566850057534 -1.0115748277763223 0.269348252955678
Ni 1.6127930317565105 8.944726905185833 6.061855874615101 1.233560789397953 1.2575340123840988 -0.647931109270168
Ni 7.0217549071539205 9.082747434298787 7.990610492147772 0.7584594917397389 -0.002147385360305979 -1.4111368574456407
Ni 6.112563497674564 6.1778364422321586 9.085878601899841 0.023539734993153007 -1.3425624508103522 0.5266166919286867
Ni 5.010425970640967 1.2486925331589247 7.6917503992520695 -0.037174552167768236 -0.2207855135556262 -3.1047430786099497
Ni 2.7808821709096883 2.598673875740296 12.067189897495862 -0.03980479070176371 -0.22310079195236412 0.5720303441767955
Ni 7.273094325486719 5.849472904021896 12.061202748044915 -2.1321865410783536 1.2843570461142138 -0.4294104804893185
Ni 9.121273439461396 3.4777714920943232 6.906268930143679 -2.1116637385346535 -0.13956693579376608 -0.1974226704599697
Ni 5.288252017523059 7.006759143078803 11.031016068442538 -0.3413638240620314 0.41222496984896745 0.9970794623736248
Ni 2.3762289612794536 1.9663509411035176 4.181651089167414 0.18700198934727794 -0.685162997038433 -1.0532881483547085
Ni 7.380863015603745 3.600712585788901 12.306832991722704 -0.3517335973321297 -1.1219692557711902 -0.6125447593510741
Ni 3.384357085754099 6.734901652015822 9.838255039207187 -0.8627907442596624 -0.47109166227818866 -0.549827325717195
Ni 2.3632320126266237 8.573737465993291 1.258179004121262 -0.3319376456521251 0.7253454827945894 -0.30367685103421893
Ni 1.8104526349809835 8.01171705332554 8.726236856216344 -0.4553238579209707 0.42453618311615277 -0.5070410837896042
Ni 8.573635201018199 7.791921731401218 12.705118812130962 1.2064791026898125 -0.4574241920934251 -0.8208488526102379
Ni 8.482266094179849 1.1032345513118758 10.051161420536554 0.26823522239715736 0.6897521590710122 0.09380361351572232
Ni 0.17893302692161558 0.6854802686905339 7.861685967728614 0.3632387697582518 1.6633988443429935 0.4249884401622229
P 1.3260699320412583 6.926295201311819 13.562852345506304 -0.32457040665377646 1.378320582246568 -2.9943345095476945
P 3.4184206192762505 9.182809064020107 10.091437086454857 -1.7728807878259207 -1.1816229628780812 -2.0463487193769274
P 7.77454598245119 4.833405298753606 10.191270944186195 -0.4616330879684501 0.4002845096576397 -0.5027643107911212
P 8.962428042692977 8.094421527728668 9.044908463832492 0.3760266655515395 -0.3647220391719977 -0.2683182690292669
P 7.080854765942216 2.3151395838847866 8.040847696321803 0.33258402098687234 0.4558691889014794 1.3086138617790495
P 6.262790746087352 7.005848055118876 7.099390757518763 -1.0732288531426937 0.38918685708258133 -0.6990850064361637
P 1.629397144985376 4.150833074082103 10.72574675065323 -0.44927816594752296 -0.4668303158986734 -1.0249520204141767
P 2.859347297254383 1.2811477175273287 0.3972148272145487 -0.7791764125721162 0.18985822784915043 -1.8955316645906384
Ni 3.806190811200091 4.814328232490653 5.4144163172962765 0.03667010172752395 -0.7264063199589361 -0.6852930948583938
Ni 4.297852921003312 0.4903893757040984 11.77614005965255 0.8468128807741674 1.1144963444329128 1.395243583254152
Ni 5.904147478433407 3.6396941349314726 9.820661744764687 1.6501972580510547 1.6058670686751118 -0.3679456883156179
Ni 8.124338681351562 3.5910346004186615 4.018913115574288 0.2186245013485654 -0.4627741435514288 0.02051277524137112
Ni 0.4591158166388237 0.7615960896528465 0.3813665451197856 1.4144273552714544 -0.7751577783310263 0.09486059402532696
Ni 8.897843062513285 5.748992917584283 3.265666496297055 0.12134372791752004 -2.290277503818236 -0.225041974839135
Ni 3.0298416043675767 8.77489267200279 3.9241962253240064 0.7180412358236924 -0.64315657069966 0.767499233344504
Ni 5.452582535682873 1.100966128227977 4.270816850633286 -0.036790686465788244 -0.2448260994445977 0.15856918792788174
Ni 0.9909662022907225 5.6841476265588975 8.79092410137113 0.3294107654652133 -0.5117968533070347 0.71104217879804
Ni 3.581003336043551 7.7516200343983455 7.012089007644373 0.8824933648949124 0.4718210842450455 0.004939603393462461
Ni 1.706411968046922 2.0228012073552932 9.98614785714306 -0.5424253768261691 0.7844510307074941 -0.9211977234436458
Ni 1.925008000717871 6.437059560463097 6.515725498031613 -1.6846197013949826 -1.303263910321046 -0.41316187984094005
Ni 2.190738890091142 6.127782385331705 3.99224426943301 -2.6487021400172965 -2.797306760533299 1.5674964393167132
Ni 5.597231694545089 8.265538721508342 2.921114412529444 -1.539081892729762 -0.7494999685536059 -1.2784535361455853
Ni 3.6670267737292694 6.755484802457427 0.837513888436114 1.0343455458139346 -1.6599234841998831 -0.16262973115050056
Ni 7.083829747035854 2.4740221679168757 5.918018327782493 -0.410124635676513 -0.6081394311945268 -0.25496858719523835
Ni 9.107272434689463 3.393040311821154 9.173384881724418 -0.9999282446763296 0.13822661971578776 1.5322674409110901
Ni 3.7534127872357748 0.9995936474622719 2.2351804592221307 1.2852011392820641 0.5964727934898759 1.4266071851670978
Ni 8.578887902011651 5.580776330370905 0.7539513179237893 -0.1532400624054845 1.0311452937090824 -1.0508695116108868
Ni 7.287095330258651 8.411061781066815 10.29547151635404 -0.8042266706725246 -0.9104222300946965 1.1031225553783324
Ni 5.3112151528395755 4.008368666960527 7.192066996675129 0.13577841528561133 -0.254448195915394 1.3148058495223744
Ni 1.0982049739004445 0.515399669885674 11.454637571589487 0.31003596048302734 -1.439603854537082 0.9288917496537938
Ni 2.69384538028895 0.8286530931850324 8.128693309927375 0.1570866898450843 0.022556288033961154 -0.6249243639623495
Ni 0.3757819477980725 7.468820191000328 4.2955677636507605 0.21788453785874734 3.325358385136299 1.0552938659308277
P 1.2147312646118666 0.05789871017174049 3.0274383774528726 -1.4161888180472513 0.21817867206039845 0.016821699543029096
P 7.434756657478176 6.8157002791558385 2.1981019682978955 -1.260172221337894 1.156653694527253 0.5419206692756087
P 1.8031081504060655 3.889397313662771 2.9265298078014568 1.2884091046964004 0.5143913535070883 0.4180302636768349
P 4.81227363617286 5.571051860921076 12.569676290071964 -0.2019213296612716 -0.3459709838167397 1.0676619005778774
P 7.762302075887687 0.33671951635701763 5.6063676755473315 -0.7273673983206247 -1.5542254332394199 -0.2597780927687397
P 8.841866933873309 1.7300723645572598 12.282463248157853 -0.7779574525633506 0.6443989277471933 -0.25905098479472805
P 5.538085351677204 3.2684164944454865 4.542830528203685 -0.8265906401900216 1.737434788313485 0.5807972917361481
P 1.5364661730728677 1.965802428964378 6.430002347500035 -0.24491454539334595 -0.683285577510062 -0.1709667902612862
Ni 5.980037386768921 1.2993508830940244 9.619143962934402 0.5941428598051187 -0.7398781291931258 2.0221469253197433
Ni 6.148997719255709 6.774431713297532 0.456609395067434 -0.7606860670774126 0.6200418390590677 -0.8964297724703464
Ni 4.905622964801661 8.246015408081345 8.720263651989274 0.9094513815409949 0.6462141265790613 0.9685142491414224
Ni 0.12359558953517882 5.310871170650624 12.022178433549122 1.154239942879438 -0.19691410625466732 -0.5140077449154244
Ni 4.575827716940085 6.92847995305246 4.982072541455416 1.901223058548461 1.2433554068908717 1.1120136872203752
Ni 0.13586552718325087 7.734458112214423 1.5824603104620987 -0.8843800403946641 0.9655009162363951 1.298607899606273
Ni 3.931437515242239 2.5323968750635983 9.343048053494579 -0.6245602957547114 0.414903288012079 0.5081839391447958
Ni 9.320615766366958 1.5223907937735945 4.824655135611944 0.8431678278224123 -0.32524377857171727 1.268729623989602
Ni 6.4128413549977035 4.58958700449816 1.0336376576709967 -0.60289926584151 -0.3430430115366673 -1.194087928114311
Ni 6.350125034817453 2.9291570879797755 2.495030182845917 -1.15482358329705 -1.2536950982539827 0.6424646868389581
Ni 0.7871037634860146 7.272703859218178 10.873898020071612 -0.12024612397796709 0.5094072700289356 -0.9000329164405726
Ni 0.25374636397387 3.5372525203352416 -0.09335955512631026 0.7493541870043611 -1.404987292904477 0.28323709512262835
Ni 2.700594868645141 4.262413458725352 0.2332357286964215 1.285818718261405 -0.6819102944290901 0.2535038297242537
Ni 1.5469622782438583 5.73183099540036 1.5096364920162144 0.36935568128926716 -1.6952445280986803 3.2963038909725033
Ni 4.7326835951021335 2.4617689645374554 0.41361812921959373 0.5497221675978984 0.11880939153144054 -0.5953373943338521
Ni 1.0905815848479978 3.754184422956937 5.104533919448645 1.0737471875400089 1.9829206328292686 -1.4007917667658907
Ni 8.978911297314914 7.9906876557198885 6.77082640808468 -0.7241951712402303 -0.9796005888625711 -0.8368184885656169
Ni 6.928693779818565 5.083350194698762 5.761240542874153 0.5548651452514186 0.49628795903815814 0.7624791544220934
Ni 4.168218119848048 4.5646064601275205 2.519059662948184 -0.8555422902273653 0.03235399085067331 -0.04909881440917996
Ni 0.5397006170127353 2.1255310232449705 2.514692018830087 0.28040553921110417 0.2956184995061167 -0.7721848117456315
Ni 2.661371602288711 7.944696307375433 12.164927323237778 0.9399179255609683 1.559600067287772 0.18497955960061044
Ni 7.7783948642410845 1.0753534003749396 3.1805420607105703 -0.5376117574876097 -1.1621244878338375 -0.2008689771373573
Ni 1.8624683200400556 3.4591964538909226 7.997413902036285 0.7837992560561081 -0.7642362463225161 0.6423191624000292
Ni 4.728751041968982 8.938888504789569 0.3671284715419539 0.1793799540256459 0.09045140921403777 0.005270247260003827
P 6.052403801871659 0.6926360279023243 1.8010275230037025 -0.8931241051358811 2.936705803290633 0.5082250767953763
P 3.218167204410762 4.938357053647594 7.521419716099025 1.346636106659094 1.0769523247408679 -0.07488337957245168
P 3.745417525546623 6.800853264135402 3.127937887203913 3.215563538398643 0.6883563071647499 -4.123730911020892
P 4.902052987489295 2.707455918792342 11.465945288790087 0.6962477940976848 -0.6923829118256399 0.3807143008351959
P 4.142047583039954 0.11317943698107978 5.78776063996075 -0.49599382483650706 0.7072459449804013 0.4018171442520821
P 9.183338982527411 5.778789212600248 5.773309669298404 -0.3467500280746093 -0.4665582931842094 -0.27834094337259163
P 8.474010521645004 3.784501339664289 1.8413989461259583 -1.1770145175717923 -0.842293138526943 0.30831229292370127
P 6.292243058914364 8.40370799967598 12.312126598706197 -0.012726960648365178 -0.2716666166762095 0.8550146998586694
