# total energy = -340867.05575066846 ev
CRYSTAL
PRIMVEC
9.33370313554457 0.00000000000000 0.00000000000000
0.00000000000000 9.33370313554457 0.00000000000000
0.00000000000000 0.00000000000000 13.66081800404115
PRIMCOORD
 96 1
Ni 6.962541292626543 6.976961864183762 9.359094679665189 0.49578813658360416 -0.7420584246738962 -1.0271791099724825
Ni 1.4233804154720113 7.202809482287331 6.647107857135699 0.5433054654382772 -0.7830369239687869 -2.4386738649781745
Ni 0.13979647414588686 0.8122552602836397 3.4174589171448346 -0.6801318623724287 1.5187413814001973 1.4080847008828783
Ni 0.5631359198087997 6.300763063144405 8.628651195312507 -1.1481109471635647 0.6377356567944049 0.747242539977997
Ni 0.7593200955395564 3.1345749050789022 6.55997960382028 0.21039260035707635 -1.7376569316266202 -0.7424006385046633
Ni 3.353767592748623 2.151782618918826 11.473994236729318 0.6974726676437214 1.3773520476857117 -0.43244026845457784
Ni 4.315867058751835 0.20380141097208093 10.771965345251486 1.5524842821785971 -2.0601665990966262 0.7291725698501635
Ni 9.069466133613984 0.43962769124511475 6.460310586786881 1.6240362833849709 -0.7698703046798419 0.2741798700163665
Ni 6.894311921698863 8.412616099460138 7.10372102159753 -0.8486026256847385 0.5133852808400771 0.056791040847115094
Ni 6.514747544387635 5.082322770443815 10.956672799437417 -0.12608047127155705 1.2170121410106525 -0.9490317149367785
Ni 6.060522874593437 6.5423099701536325 4.240891287098228 1.1368839680994935 1.3300118678388513 -1.58190952941825
Ni 1.5015315129791893 8.859980497348474 8.133774514281862 -0.3597073595662257 -0.5314238835093428 0.6140565680099103
Ni 2.4372445998288383 1.5060676927700039 7.344233754284078 -1.5688079590392854 0.5114757225221901 0.916741230334189
Ni 0.7261546476986086 7.405472181460072 12.293288042651339 -0.28176411012152763 0.5664844746579019 1.7203518646892695
Ni 8.397644839409795 3.330470669378514 1.7833925511663704 -0.053736570291507454 -0.3540643023478354 0.5570878639343502
Ni 7.838201332615905 1.7960845208773772 10.538460356982515 0.7234976309525734 -0.6074169512062055 0.17286940660063776
Ni 6.843685915144588 5.453178802601072 2.17070390219442 -0.4305098842010843 -0.08685006501602462 -1.037023092646098
Ni 8.979731910344665 5.659490979753664 1.2233479538816814 1.2360107936003422 0.9227167311913335 0.2260326208871785
Ni 1.052785727006407 3.1760538824253612 3.5409522117832823 -0.4319245051604238 0.44503790261393034 -0.17336151574570788
Ni 4.437018527239018 5.87021799855452 1.4932226503253152 0.543086921669568 0.5002883384468029 -0.5623941066386121
Ni 3.3030109143485227 3.7535021028334086 13.496956816551634 1.4048129721101419 0.9493196784908426 -1.1345936294034202
Ni 7.410801726029115 3.0885597479416287 8.737022023907585 -0.5638483225866353 0.7590027658377186 -1.3082107128033598
Ni 3.552416799513853 3.4436138204572213 2.0862254872382855 -0.22315015713306086 -0.11104980219067971 1.7233991361560257
Ni 4.78157218357217 8.28410967279361 0.39471017761277943 1.096047393699106 -1.976148089992126 -1.5052734288207494
P 3.070265689525999 6.9585744687353985 8.481332689698682 -0.9722333498642223 -0.6256296175594902 -0.561100327527853
P 8.429706110153514 6.272052591875794 11.66196755369057 -1.4851370630821907 0.04214063792379194 -0.32731763038161044
P 7.413256489989988 5.287682909862534 7.911649177043677 0.777052681360894 -0.8505198973121094 2.5735163987130774
P 8.029700922673802 1.0450294195863108 1.7659478597486091 0.24409822013963764 1.490432250042859 0.8999388140648694
P 3.968494624030153 7.768329229912127 11.973461233029763 0.09245841234173753 -0.5276250785885429 0.3888017058290207
P 3.1615959760550494 4.458178032559545 11.191393035872567 1.1159307628865942 -1.095358080941565 1.360916527837508
P 7.743062895151357 9.010887811870875 4.163202207903077 -0.2448536102484235 0.062461865979647264 -0.585899903070036
P 0.6698201482223964 3.845765759689787 8.670247777320208 1.6430768449561894 -0.15384118632459312 -1.967055383662238
Ni 4.443178771399382 1.422101698123572 8.928491746115009 0.30354186811825146 1.3326930142154403 -1.6187680930074961
Ni 1.5171094637422946 5.583439965482975 10.796554053154617 -0.8081874550924856 0.37739192133018234 -0.6785022971888056
Ni 8.507222515838109 8.818100170761264 10.635575672800346 0.46430652103555514 -1.1809313361276952 -0.9728671267934793
Ni 1.255560430618427 2.808520648633392 10.524171390641452 0.46178015506927567 -0.8792311492038729 0.5488199674986032
Ni 0.8614728110139754 1.4986660660742925 1.2078092046723237 -0.6644843856431588 -0.6960037964076787 1.4263346482320016
Ni 2.4146290367976797 4.9329928517746 5.369098003404377 -0.2665758324168635 0.38699190631379154 -1.8529883919117895
Ni 7.591800899904571 4.679302796806834 13.05893638901018 0.9355907589405242 -0.05148762635633068 0.5531137097779506
Ni 8.834144806688034 6.079003607074532 3.73191698064362 -0.06484553572047541 -0.7873890302898955 -0.5846264356742512
Ni 4.112317657768133 6.597742833893646 6.4246558402829494 0.00968251739508655 0.07316433999881593 0.10223657477442392
Ni 2.6068006534912533 0.8160102091104805 2.928360731810678 -0.6011578576703712 1.16713248257139 1.463831616736195
Ni 2.4534572424145265 9.310173007328615 12.225025070391874 -0.7496462643234831 0.9955985069527241 1.1251034305247978
Ni 6.970801620023397 8.059307429456648 2.424494761157537 -0.7713234921866006 0.03729256580287126 -0.7207534925485329
Ni 3.1086085425726355 8.367338304881452 4.663953521773924 -1.3547481942432669 -0.9979266408652685 -2.198469580576304
Ni 4.740783900267933 8.32621400825938 8.417660032709017 -0.899601999550741 -1.5981558160737832 -0.29956462863805833
Ni 8.059410100192654 7.434584001969434 5.374712225923257 1.8760465592828337 -0.35642894592527 0.9371375346023537
Ni 7.328403793532595 0.07341237635533356 0.14613125855746237 -1.386648128275657 -1.0621921357125579 -0.953427530011629
Ni 6.285894473830069 2.9791967466886007 11.939144939575218 -0.8722385199361237 -0.6658105606537501 0.6678587014320305
Ni 4.49498082456609 5.772008772713062 12.701938106102762 0.5486788139350485 0.18888763640576503 -0.7133420305758101
Ni 9.290245550840162 0.6626947991435741 12.523445964926509 0.12558142014795146 0.6586811486978205 0.3313043829435004
Ni 5.324280360397068 0.3689790244289996 4.578901084066482 0.5820849001993201 -2.2646749727587836 0.5643491734824538
Ni 5.049122787900756 1.3330301677866556 13.215899410216283 -0.3562705659705348 -0.2055267876243428 0.1924360158786557
Ni 3.1253998747612672 2.8112274225826437 4.606386973465639 0.7919545381733909 -0.5178281471027791 0.00046845499598628995
Ni 3.8420136109739285 9.226533692296748 6.479913230401425 0.3226276811051089 0.4271250268892514 1.461514024346612
Ni 2.6369018465475826 8.790593747214906 0.9501971275891257 -1.1398476787135081 -0.104694035175981 0.21387104582398003
P 6.540284556543331 0.5413333223327437 11.756582370401487 -0.024986237631692453 2.1019981904204315 -0.24883084972861658
P 3.165226786628355 1.6718622640132863 0.7727298270322784 -0.22231480571595905 -0.8561243879830803 -0.6972196710926508
P 1.8751969898217034 1.0679156600123947 5.335724413980436 -0.4995743430989138 -0.42881449877653244 -0.9947538995642417
P 5.723912199745848 4.391274047496669 0.3703622792540998 -0.6995963988549435 -0.34578946393355287 0.6283238765622017
P 4.9924018731090305 4.560018068974308 5.569597150158373 -0.8269482806397565 -0.597216613634436 -0.09769677792254142
P 4.599984986390496 7.650472558680413 3.010216376147021 0.20337991648466913 0.4066809001022867 -0.5847218236015349
P 1.2171242405390577 3.7513646847838276 1.298107183619349 -0.23656540209770222 1.1089939265574449 0.01398037343949205
P 0.7124798390329252 7.738153367229611 0.9493533608132211 -0.09611374970613769 -1.2937498001830234 -2.0281957026169843
Ni 6.886900961299878 7.0139046617394065 13.659315651620023 0.5441266757879919 -1.1148074479154284 0.593531708583681
Ni 2.2531373027633794 4.990973816508219 7.503805545555065 0.387056698113456 -0.12430178210457946 2.1608358293839305
Ni 1.5329674256035983 2.4785275694065585 13.00494838253687 -0.8410425539492935 -0.18891514720959077 -1.4863663075036013
Ni 4.129239661802591 2.8214198265570665 6.914505388730605 1.8564598954001574 1.5164932087959688 -0.792582658675693
Ni 0.7146863264867288 4.8405611882593025 12.914254654571058 0.016070680309617485 -0.49104753657482525 -0.5193679807860733
Ni 4.372018617643891 6.251359771718931 10.190150818452196 -0.755272352261009 0.7318336616220945 0.8851369731653466
Ni 6.37790612069807 0.06399000290095683 9.33971044470724 2.2125828800492346 1.1803034727357093 0.9001277901472241
Ni 8.806834390910414 4.284636487599439 10.263973877751555 -1.7473538471994101 2.149348654679937 1.1078251030603243
Ni 1.016197610175147 8.189055238658522 2.9265845280777727 0.6591830280349035 -1.0421125913538634 0.34801835326407166
Ni 4.168721226648568 5.526140361088306 3.7222043290174445 -1.0820917028499624 -0.956299195132469 0.9754855382529329
Ni 2.0779156912140837 5.568730049124285 2.563562273077781 -0.7798374431948828 -0.5316323999757232 0.06348593636878744
Ni 5.926052211535284 2.5303296225732654 1.7352110414993687 1.5011645488586987 1.0191719233972898 -1.536016109320245
Ni 1.9976645104704174 7.90055047048142 10.454228351792796 0.9553581713754384 -0.3984148034387525 -1.7348048068898057
Ni 7.013391308059376 3.4157527161864785 6.366460200374045 -0.3999350967380209 0.5749210354610292 0.09774100089691554
Ni 6.699032181815286 3.8263143220682703 3.8279663875476415 -1.7539307290859796 -0.38442234581440243 0.14941323246022653
Ni 4.926561930219309 4.891019188154656 8.352551852155923 1.2539257262075503 0.13000243203378253 -0.9741971584588125
Ni 2.406387376807373 6.130506981736495 0.3242425846401659 -0.6283542155795049 1.0525039618905163 -0.47006887744062914
Ni 0.16331460628357186 1.632259361024757 8.649484021018468 -0.13059404287119444 -0.38730892333357814 -0.19812226763015559
Ni 6.575593956026151 5.909540890444851 6.2152215393854435 -0.8407484197476424 0.17478564978674413 1.0056610333950486
Ni 6.398860284546584 7.887324612943181 11.526561653564436 -1.0397700592636157 -1.9915135167046025 -0.21082403146754014
Ni 9.145321140115934 5.163665994470455 6.524256721282453 -0.8962924755615338 1.3243176456675514 -0.775513104787916
Ni 3.1988934543350784 3.5004560733915 9.140015863175401 -0.2622558648852709 -0.26181826312722006 0.8942445918935695
Ni 4.692874001366184 0.5364079271154335 1.9657367116835065 0.8319742730994382 -1.3900250151676898 0.30841076617477853
Ni 7.462155761438705 1.3957433200798277 5.217626933204272 -1.0944296555900248 1.661202350912307 0.2886708645436899
P 8.570934374381523 4.022779442267553 4.618449851576027 1.5882421565044968 -0.4604398389912973 0.8674120450817578
P 8.680605387842569 8.418981685092515 8.345448903964956 -0.2243565187363362 0.21460406733526266 0.3517919613738909
P 4.916014845520502 1.9910655822562082 3.4762136458798083 -0.7260970162486334 2.6335807109948255 0.8229856964475826
P 2.389484040179462 0.6508979315764748 9.70398994953814 0.20830692147264127 2.1084981963224783 0.9593228124501415
P 8.76693280941714 3.022458461360256 12.01177981844789 0.79904281247874 -0.6656233843436085 1.5062275652039026
P 1.5260791525879174 6.70376436937484 4.365478491760304 0.36516606868795176 -0.4933599867580859 1.4596134648897896
P 5.547299866408832 3.3271105362001334 9.85962758487944 -0.44048653579782204 -0.3712063613447607 -0.13626075423866854
P 5.657614905395736 1.007871946855381 6.833168698296256 0.6627707453861619 0.5781428848324367 0.06690858889709123
