# total energy = -340869.93574965827 ev
CRYSTAL
PRIMVEC
9.27451614834902 0.00000000000000 0.00000000000000

0.00000000000000 9.27451614834902 0.00000000000000

0.00000000000000 0.00000000000000 13.57419186556858

PRIMCOORD
 96 1
Ni 6.019568872409407 5.877696603285516 13.073833340160999 -1.529142007908231 0.7197654176036506 -1.700940292931877
Ni 3.739438422527766 2.5936832821062943 5.368389347140015 -0.3552122999093495 0.7139179576839382 1.30371256782269
Ni 5.931414599151737 2.6167953756316087 4.541774934749377 -0.48495659318573897 -3.181866403256514 -2.4247523698010753
Ni 4.494671523595136 2.228870200718555 1.8640218761705438 -0.3805880596699768 -1.0060127603075126 0.9225005014154692
Ni 0.6246284412628635 6.539887761236534 3.566930572612214 -0.5114860069348353 -0.2415093763665389 0.13099436363340664
Ni 0.8274713776561837 5.964135091108925 1.2604827565237369 -0.2930036875910889 -0.32165580411014283 0.8219716533607715
Ni 4.207439767383663 6.171828599297484 5.399012871061057 0.5577355248206781 -1.1191011901947758 -1.2809037974582906
Ni 0.24367770227719157 1.6907813395019824 12.326560556057023 2.1323986570891598 -2.0428810725433006 0.31880522203522516
Ni 1.6590253971943272 4.2731960848373065 7.265979406017431 0.2874889284204468 -1.2996983044569745 0.2499384809704986
Ni 8.240425891424161 1.1379645470983315 5.209055019553258 1.7225211044264466 2.0416649407480127 0.21675428090904603
Ni 5.376399746489057 1.5417491441334914 10.710878681286934 -0.48334322595203205 -0.6839959733135252 0.6261260975799345
Ni 8.037304719555014 0.4922764626701664 10.609058408908256 0.24151143324906796 -0.506570829021405 0.5504865565677487
Ni 2.519700469084049 0.17029495043114576 12.262598857422459 -0.6963807201311232 -0.025977912121000424 1.5607462650770731
Ni 0.5189685193177809 4.083541509998159 2.6237827958811963 -1.7786310600461368 1.1543746686850893 1.782806531580065
Ni 0.0941279889236636 5.774369222079446 12.681729068401031 0.5670115508059654 -0.6091609304805057 -1.1345573768488462
Ni 5.587200217491014 8.382873180531428 9.807081747902048 0.2964260830090766 0.9317657287674792 0.27782672274033443
Ni 6.273579312807207 0.1246550578797522 4.8060374249797935 -2.2745788621360568 -0.2691150538989494 -0.08207475511456833
Ni 0.190844495224099 1.373277563520595 2.77309879143503 -1.6305617432083146 0.6745584820497093 0.1457149576730329
Ni 3.39562284504906 4.233204372445189 1.4482444026756789 -0.13844953435987126 0.5171210937334255 -0.2140713347602442
Ni 3.2164484731327065 2.520498077448085 12.053475218888149 0.7823720366912784 0.3054987347343061 -0.15702292648668442
Ni 0.26486162395502905 3.8118538423695214 9.213469142581141 0.4256121897891509 -0.31362727737871143 0.6677283465017533
Ni 6.882915004867064 1.90812961870172 1.9172186442453831 0.5405471859668497 -0.06961210387118334 0.8657647392863218
Ni 4.09935455954096 1.0356573626369574 8.53004861782457 0.5871191201891178 -0.13900849218713482 -0.14829428836443495
Ni 7.91834977912336 7.171185506854955 0.046398547948813616 -0.04901345378422527 1.2035279904812886 0.26718775496924957
P 1.54668318657148 6.166783262669165 8.948894101166214 1.3860146084567162 -0.2111618744229331 1.7997475303097779
P 8.264706573947947 0.6261921246370079 0.6630833663768327 -0.048187101228187985 -0.5861899235066291 0.49247064217459696
P 0.3541826313079982 2.182636739152065 7.265111311332852 -2.349497465821818 1.674331689205413 3.971785399057114
P 1.8796661295246773 7.913239520884014 1.6648340264779966 0.041935978112153584 -1.0523473817079942 0.8270804353422465
P 3.4015770842317448 0.006895602542564748 10.441186889471558 1.2683411303019316 0.7788072021581555 -1.8923602088411926
P 7.704080639189434 4.810366768983652 13.547423508274663 1.2889456939261608 -1.567979806711035 0.9823642676506373
P 3.721306744019744 3.3628559805125686 7.630840714887646 -0.5408734589580169 -0.7563632713323426 -1.148027900531455
P 0.9319311772488683 0.1718864573528729 4.373537071936174 -2.146055842861278 -1.0462422972515206 1.043099380747165
Ni 9.203918246147607 0.3356150505545152 8.547410511516139 -0.1363178327288491 0.8500375583590521 -1.3293035289179171
Ni 2.3028344647090777 6.520392728896962 6.977732090319191 -0.9330065431531158 0.5125021069041754 -0.08269567652801887
Ni 6.680804755226752 7.132492226683361 5.88529428667875 -0.43200960867506244 0.8068916190991976 0.6673131133412057
Ni 9.0368007448504 8.129771642687995 2.123533031925431 -0.27446911912201116 1.2137147012063032 -1.4182932659847638
Ni 2.0591280114327173 6.090954820990606 11.141479613482245 0.8182378973499521 -0.5343477420243571 -0.951466035409884
Ni 4.615379347524498 5.636698308640534 7.889605272115733 0.8749273796221964 -1.4611232166660966 0.45954329531895693
Ni 4.115074863925153 7.608543851306503 11.83220196457609 0.20994291441416743 -0.07590565018937895 0.38695513953858524
Ni 5.369406761529953 3.379522285514571 8.957798563844245 -0.18524309767464225 0.40128158346358633 -0.5459817267188597
Ni 9.33053393668035 8.034763502209133 6.610794217347723 -0.222936498460358 0.17187001880184594 -0.5610926142183692
Ni 6.6094095321296935 8.72633632640742 12.25909680023339 -0.4031985979806411 -0.3957992201927764 0.09753248443053525
Ni 2.103135589192596 9.08579801214343 7.352705403832525 0.9607096654953391 -0.9539831454047828 1.2895331909985148
Ni 3.969362945234857 0.1626388375879888 5.701785006049022 0.011446551274044802 -0.4300727966636657 0.6320298646588793
Ni 3.5488471215866686 -0.16705814439569844 1.016633475703119 2.299115156714524 -0.15261836966108555 -0.6704223483941485
Ni 2.0678089582785018 4.758503676289608 4.842335097704521 0.10147295713552203 0.7395338584798296 0.6003515597189919
Ni 5.828652963413179 1.5792181882114493 6.834225651500613 -1.6495848212780366 1.031349182189772 -1.6054145545187255
Ni 2.671542842758387 9.32255785303999 3.3042707187225577 0.8965619271728366 1.621745173357949 -1.8349477323599948
Ni 7.021698860209281 5.121749364496859 9.668652179065717 0.13178343519360533 0.7954892907995267 0.3218486368472393
Ni 4.627324923953312 5.795116314060236 10.409341911811639 0.5843592980557936 0.3236080427405072 -0.5523282377621778
Ni 3.5067593686099925 7.605409064945526 9.019859914178914 -1.1520974426151385 -0.5544830793216514 0.17933341705842662
Ni 1.2354860813754913 8.479253949357698 10.086330000860475 2.321109401597428 -0.5053624105356006 -2.4871841538737356
Ni 8.832520258498642 2.8080358926829674 0.713796419104128 -0.10144544633169625 1.250648341007859 0.0028603522669305576
Ni 5.8511622134075365 3.4150900538410482 0.20425730006210457 0.4970081250336344 0.8596311155847582 1.8006466450852794
Ni 7.8316052322765435 5.655850183893252 2.1090490205054935 0.1849952433298943 0.7928168861736862 -0.5588966350083149
Ni 2.798279101997321 6.073453809561125 2.9536355897313467 0.4696382176611138 0.35357682118845557 -0.46453329233438057
P 4.243035359257723 7.502341370183559 7.014897857728498 0.04422837369075609 3.003133081675931 -0.7461662761946826
P 0.48320320380346693 8.854445213993763 11.85477613618147 -2.0671054923083045 -0.4514666889584096 2.107471040609545
P 4.632444456708518 0.9902400584662249 3.7011114857326763 -0.2001596097751585 -0.24704084770772936 -0.31830231425687766
P 4.083318921617498 4.373898778054749 3.903937727997447 -0.003960270199328663 -0.14156571139134974 -0.40752139372571106
P 0.45846714255091214 6.1550324510734296 5.611896398325366 0.027583051824591205 -1.0506188290526615 0.9071906105312764
P 7.772897546877169 3.0993948084525322 3.8053755930406967 2.367124691985278 0.015817683758546953 -0.8603014021789055
P 6.951221814182449 5.730027761748575 7.451104307310125 -1.8826602079446093 -1.49943573909305 -0.17345278990793353
P 4.7916322469446735 1.5816202878194172 13.356176499062203 0.2389770968629884 -0.6938445839728309 -0.6811726449321173
Ni 1.4053117413040765 0.663179821341786 0.9253842965026726 -1.3937369168016382 0.8086515392130977 -0.6924456467427752
Ni 4.546182184686467 7.750072963343542 3.427197934297428 0.28973298725961716 0.6128376080011446 0.13286201296976474
Ni 9.107129398623456 6.580565787802356 10.549305485571361 -1.4659604901537397 0.18510914319993924 -0.3673949580184705
Ni 6.1326252207535425 4.354385196683456 2.9817614865310533 -1.5325520620310444 0.26021492319584216 -0.7894222586698405
Ni 2.147282284690388 6.91668351711653 13.318738988338172 1.7238318528180698 1.0539957159446944 -0.7017021323440367
Ni 7.916819484006314 5.247289211189739 4.593886584468493 -0.618586851780096 0.5572398161311822 -0.09651612735087893
Ni 7.557079562794477 7.737042268559005 8.346363121393484 -1.229835518027566 1.4314074347692187 0.41456801615984734
Ni 4.728713931344459 6.2268821254476725 1.3745361153229163 -0.4625903096753969 -0.16602924375035277 1.31979970319254
Ni 6.9350656075527946 1.3522615105798392 8.709241538772645 0.5067232954388692 -0.15464028518712075 1.1699889781835784
Ni 8.88052515259456 5.948850688970192 8.236439704507156 1.5095982814483486 -0.8368999925358296 -1.1854680476557842
Ni -0.13461217810799364 3.5151528054640893 5.630303529954456 0.994836689086035 -0.0605448514625925 -1.2556450228915021
Ni 7.817712007516945 3.6715953390054237 7.588298510633787 -0.8706688614561585 -0.6685693543458098 0.26287781473998595
Ni 5.809742225572844 3.8898896188229712 6.117996526886175 -0.43023580460409133 3.3204015553516557 3.1929550569705074
Ni 7.092825122346375 1.6600270449073022 12.513979045122113 -0.6486579601338635 1.2916019006020854 1.015555409690625
Ni 5.346387413163248 4.002714104270584 11.709721780665712 -0.21485217879032675 -0.9027608568946969 -1.5490516023479644
Ni 8.090382773826834 8.344087155201224 4.269884155223386 2.4120274660352394 -1.6218588161176777 -0.6871242345298617
Ni 3.0372648267004934 4.275542537350109 9.53470220139019 -1.1699573536146948 -0.18572517951738338 0.10138605384867057
Ni 6.512017841074586 7.995829084625157 1.829176592629629 0.6088667962788546 0.7115126906765552 0.632125252586163
Ni 1.9633408116215423 1.8504328555311815 9.07687221807892 -0.766129606690487 0.06197541326153197 -0.502873839785792
Ni 1.8150227539743393 2.6535502819882786 4.030597936206322 0.43745057718497565 -0.8481405984466555 -1.3149963682666255
Ni 1.5687658088362366 1.4187319657547708 5.967702997360605 2.314970378579226 -0.14898462956324018 -1.9072610372124248
Ni 2.4525993468305782 7.7269886933658105 4.8333620036091185 -1.2194081520466549 -0.8059392824882572 1.293089026670573
Ni 1.612569347247176 4.109148448290051 13.209859881937778 0.6898344343721732 -0.5133616266909933 -0.42114798337021014
Ni 8.620810884942319 3.48398115765567 11.567939474345671 -0.6894045459236062 2.6326887953081752 -0.1512582560887653
P 6.973629044502338 3.000287331963162 10.276803515450139 0.9628969029546449 -1.1105437875430682 0.5823288978893262
P 7.310627852823296 0.09939127667471336 6.854301268533074 0.4001839795240334 -1.5834462777777503 0.5264102323448353
P 1.4690925868793525 3.0307448420502943 10.90668596994819 -0.4555280035119767 0.2500806629753177 0.0786328193125549
P 5.226263883733122 7.901906062502019 0.16600826920024675 -0.6555487737164258 0.9472527686594848 -0.50066243395677
P 6.521375827578216 6.943208632478648 11.080001630195225 0.739054861960882 -1.2649015084927635 -0.7637335956544846
P 6.538199799349853 6.907186412874988 3.725260470131237 -0.1549570450965912 -0.9307223751046294 -0.38478230025698246
P 3.6676165717011058 5.2330806528908695 12.505197006053445 -0.20918469609190424 -0.23124733231889852 0.6518245307873033
P 1.738897527788231 2.8238860402892128 1.6005876002065045 0.7667392152500279 -1.3518880990866524 -0.9486571052061791
