# total energy = -381162.2255618655 ev
CRYSTAL
PRIMVEC
9.33727094252302 0.00000000000000 0.00000000000000

0.00000000000000 9.33727094252302 0.00000000000000

0.00000000000000 0.00000000000000 13.66603985020298

PRIMCOORD
 96 1
Ni 7.693528464369456 1.0997904630882804 10.219328428165866 -0.9239711724237248 -0.4894123149642474 0.3894059150719229
Ni 4.568969462504867 0.24547311931405233 0.8414823310768459 0.36619450995246616 -1.5004618663647193 0.7942199371687999
Ni 3.7719119993253045 8.093032940777277 5.318603860073538 0.48653602185771694 -0.057949837041906656 -0.2940069320446227
Ni 6.207399076963642 9.116099048173437 2.80622528959243 -0.40595790589333314 -1.5279870683681813 0.08055626158751289
Ni 4.5865795555845 2.385205873378624 5.2138406133375 -2.1535539510105366 -0.10386742550962756 -1.6451872064309734
Ni 5.398912794097192 1.7991147108571799 12.619904383314578 0.3154851565230567 0.6761253123161969 -0.6868817795017526
Ni 9.482932413401176 9.175838907941989 5.823577480903939 -1.2364645933083092 -1.7231834206007937 -0.04523136103397372
Ni 7.021188929750152 5.35310414263978 6.954087565536223 -1.5082965319177895 -0.697116055635251 1.2220664156051082
Ni 1.9800990343791915 5.25369955572262 11.949352936089097 0.20027608074836478 0.4798457543217349 1.4313413574179736
Ni 8.36631618799609 6.882791899195374 3.730705688736903 -0.03286178372502727 1.2434932180203166 0.4340243251122461
Ni 8.829743621574197 3.530917035176147 10.413768692905832 3.4333786564720357 -0.5583340776366256 -0.5737954064970183
Ni 3.5457446215019455 0.755721364524456 3.8117998872504804 0.47891630052893 -0.39975871906115673 0.20761683738415213
Ni 8.96442441827654 6.085837145996657 9.274485308455084 0.5576815316542911 0.5795317947601631 0.23552487664832986
Ni 6.563326509679711 7.692986902652267 7.754808040123602 0.9677123220654174 0.6703218182605424 -0.7115880239991809
Ni 9.153905658395828 1.5775412703589424 0.08122865521577607 -0.19765098442069184 2.2943534736598226 0.28864901016681904
Ni 3.7062896588355607 5.660020239950234 2.0338891850754517 0.5533170840380084 1.2774842302537803 0.4312555041178573
Ni 0.22301418141138019 7.186701395248329 12.734440017864582 0.27196512175323484 -0.5437914039357602 0.8295404668469649
Ni 1.6827816516423657 3.8450788547717516 0.42338081204617056 0.30851541007344285 -0.40214495990514615 0.971439136097701
Ni 3.87222230152811 3.51294278852806 11.547803597335339 0.062481149253356905 0.18300829480685257 -1.3282532332765318
Ni 1.032328680214291 8.41557029244734 3.49544474270026 0.44133011474503997 0.42371780097991546 1.8530680961097894
Ni 6.559881056685869 5.015683181018002 13.732866934582837 -0.7808473725166358 0.13595967805848197 0.464724068188948
Ni 5.982380183471564 1.939668651009728 3.1409748579851087 -0.8963276996748434 -0.2975979918299907 0.23386368689582307
Ni 4.180202847730969 7.604030721968462 10.472204135917636 1.1150594160252343 0.2681570608610543 -0.08999915216796757
Ni 5.688302833766886 0.5628385565849601 6.183035335779822 0.012595834387139598 -1.2249987587605549 0.4133521414748752
P 6.278931909987536 0.10655693649245197 11.753463526892103 0.8023723910726052 -0.2707819000784111 -0.2798524949211116
Ni 6.540534231202837 7.518006444374266 12.60155104346446 0.7261070435509624 0.0701360946954534 0.7575066409081664
P 1.6065334967705323 4.968847429752129 9.989902342768389 0.24267845697397558 -0.022832424513483256 -1.1020367785133214
Ni 7.943935397672521 2.7243729046747878 4.101561550305419 0.8735078735668504 -0.7974181323911235 -0.6688367490745836
P 4.743492394504555 7.626626917754628 3.4294377066458925 -2.267592146405579 0.9948575150216415 0.6290134464300586
P 0.6515743776734957 7.761410424437816 1.4734727165842647 -0.5049682604209755 0.5279148419148199 -1.2819389235910246
P 8.462406043713214 3.3144510819072623 12.605158964973457 -1.0404136063848857 0.4766832974333532 1.126135728444054
Ni 3.8119782291263133 8.923741928590454 12.477067480405948 0.7608269635306509 -0.297208726811372 -0.529378828054856
Ni 4.805445187496792 2.1760976896467223 9.386519488107936 0.3931903218150196 -0.2845483577348841 -0.3507799751696088
Ni 2.5213246098128126 9.711602179848787 8.920316083865682 -1.050927618542332 -1.2374434122818108 1.268993676284266
Ni 3.6653830746458107 4.581528091981064 4.60658932730754 -1.1223538928041188 -0.03506187670013962 -1.8571821182781625
Ni 6.6401442380816915 3.1061925898350884 10.770261030516554 -1.951280123105852 0.9233523078928032 1.0782371049905624
Ni 5.856289676076359 4.030236938424514 2.3591819654134896 -0.21015348776307674 0.85003704413842 -0.16906725924572819
Ni 3.6692953911889528 3.3453574488709856 2.476135953148874 -0.9958041952056269 -0.7854195652683506 -0.10825347039246518
Ni 4.306498775087866 8.793785791007037 7.878990943056362 1.0417107279297544 -0.958482061716401 0.21509849047317794
Ni 0.4997522188950195 1.3621864523373939 4.193889419542276 -0.2602141518648938 0.30941169663546714 -0.4365193236199579
Ni 5.617890473261315 2.736231238827033 7.07631617765161 1.1261375282162671 1.2606741006749773 1.825082666640457
Ni 2.297715644239623 6.506145062161329 3.809080873939352 0.3570205567626819 -0.11862761453793763 1.0237055496015852
Ni 6.673702390005444 7.10920204606437 10.339711995534417 0.7369046483870987 1.957777815015054 -1.8432500815781028
Ni 8.380079325429481 3.5791347025479507 6.353602066062732 0.7456546266655868 2.263334399570489 -0.00878031729579133
Ni 3.942746709285513 4.735051501533193 13.594005841660053 0.29768618066842284 -0.13750259706556966 -0.4920741780671267
Ni 5.990849088255883 6.292256195684585 2.559649438574929 0.6396069056751887 -0.2127901540549755 0.1047588269756454
Ni 7.639194884501809 3.2019649783386877 8.582505758043789 -0.8335228485334806 0.0907609700346566 -1.1519616883682224
Ni 8.133248566914062 4.927698076516743 2.6264352030295304 -0.8774653155527017 -0.8378788115093312 -0.47807863511898313
Ni 1.9344397792575574 1.533217244988309 2.355792536045565 -0.25073423739891654 0.10471100445684547 -1.1655983053150507
Ni 8.875365527611889 5.2684057575256 0.4266255137138123 0.20365116786818477 -1.0213648172835506 -1.305873837140067
Ni 8.623950169042333 9.223935190790973 12.440838868980194 -0.672294625716197 -0.1252356067727585 -0.798653033239489
Ni 7.855492766892946 5.150998912147394 11.65919537274435 0.20357506321461072 1.9078601042490047 1.495796856788882
Ni 3.791800386525525 4.623508462334207 9.162519290880432 -0.5103963734150823 -0.6893168713058064 0.992856939651845
Ni 5.452023191465669 5.637274647828291 11.50012282304523 -1.5919183198045035 -1.449915006655103 0.5853512296554176
Ni 7.32068189662672 2.762562343007607 1.0762101189401874 -1.4901612557696593 0.5459909826902404 -1.3617660203219968
Ni 1.1055982456415843 7.953552786788121 8.55879469210189 -2.548621949464243 0.9704400054092254 -1.610360585670091
P 4.788301957966461 2.222447902821322 0.9600199199714592 0.7321797321076036 2.678458802454439 1.2346450236010673
Ni 1.1389229657906872 2.917430319581723 12.120725472858101 0.9062151339918844 -0.6630075439873162 -1.5452294003883968
P 4.834782892934864 4.876819286913923 6.237167230594171 2.1694631660416253 0.31735589118320834 2.0560181241458917
Ni 2.683316924149261 7.235423275253378 -0.2121764109779076 -0.18192534615531897 -0.7901007727941037 0.6978832728185786
P 8.35730572149458 5.003031178831946 4.804760765533517 0.356151009673535 0.8093277393445159 0.15669691060583335
P 6.249612879091435 0.39525508438208334 8.57889783653479 -1.2219291186962957 0.8706446930864425 -0.48319872995436786
P 1.5603980408286113 7.334407684976169 5.945588534605352 -1.4087359613136317 0.3722864817828169 -1.1307894251659816
Ni 1.3997876425980935 5.75969560772599 1.6898060806051483 0.20198997811567793 1.4669601350628478 -0.12108044695380436
Ni 0.7538445730562662 0.7942450771585745 10.589281375630037 2.52774536312555 3.5708270032609017 1.517077620544529
Ni 3.089413513873212 2.011556300331091 13.124413941776973 -0.04766131063170502 -0.3360866348234922 1.4357011770485661
Ni 0.9550814373469536 2.290329862889682 6.426796933322137 2.2177520829549997 -0.20845398857346678 0.2724724004069565
Ni 7.450675383294081 7.178755377639227 1.1436140107340633 1.6046403953568622 0.8205182087436966 -0.3420757625273915
Ni 8.28365332795686 9.146566563400818 8.296775928600612 1.3535238349178624 -1.2808312923491425 0.06176098325788074
Ni 2.8296506350421553 8.490352495774369 2.040312293786734 0.7642298185646129 -0.8204780995343804 0.05796474944024211
Ni 1.5594923255429674 0.38847435819203613 0.28221901555243256 1.37974368784634 -2.486739353026833 -0.24966414426318936
Ni 8.500922286530542 9.196530300447007 2.501855466079864 -0.06756473442385139 0.7292124219491635 -0.7556356491376987
Ni 7.220698398908426 0.5271972595042259 0.4086073818920909 -2.3541390783588874 -1.1567917627670141 0.9059245993346592
Ni 3.3418839840641867 1.5973362848493033 7.346029786172467 2.5475935081997285 2.9034043609250255 -0.4031448619245702
Ni 2.2880235569561354 9.33969867647564 6.552497142790125 -1.1304407835773111 -1.4916771781935536 -0.6666610815795035
Ni 1.3342306630052523 4.743884559885967 5.5886993629777235 -1.1042828942350207 0.38490802720156936 -0.5803584044265166
Ni 4.95474815056324 6.303619654474571 8.093821006448497 0.5273574267494531 -1.124775357761418 0.26225560777495477
Ni 1.03465366068981 4.597532174451101 7.992091439055817 -0.4062335281522229 -0.2650467973668468 -0.08043413418735179
Ni 1.910041490171089 7.62394712098164 10.915039152063178 0.3657988171759442 -0.06936039287169345 0.8681072713765695
Ni 3.309894493666085 1.0932076870431369 10.902247090812331 0.06729194037843894 0.3510478841190148 0.7753958624837614
Ni 8.191951989603165 1.5190619421735039 6.8201742925089315 -2.190147948084486 -1.3924480227868856 -0.24421751932632135
Ni 8.85976294779425 6.626465136087173 6.76053527526703 1.2596104352971533 0.8302783734542539 -0.5796207549295437
Ni 5.894908628874535 6.709165345210345 5.1885991686809945 0.0014747847733135892 -0.24934815568466734 -0.0838506160680685
Ni 3.068292606902836 3.8580296496293602 7.022403708705434 0.49690322402465387 -1.2185231783385402 0.17966354670433574
Ni 9.165521223502436 8.372469449575876 10.452689239556856 -2.9928250148817037 -4.5211692094789875 -0.6840646217679315
Ni 9.235849548569133 2.894936833776402 2.0605657682825087 0.24031664161001842 -1.8309008159841305 -0.671000846605438
Ni 2.208628741762013 2.6271719137103275 9.532951240346183 -0.6617906408610796 1.705431238823695 -0.5957914511521353
Ni 1.0760271084288613 4.176766732008114 3.217190332408491 1.820852430609193 0.7756480877038835 1.6710494189097158
P 5.0028817824961695 6.7355244612038785 0.17684137638551486 -1.044949032361394 -1.043067756178281 0.46646804746324827
Ni 3.103176651306604 6.160852781098336 6.690687819656112 0.12430461031805688 0.044703256444645595 -0.7450303628180266
P 7.111060162990587 5.188954918705562 9.649645651948155 -1.4566446120694525 -1.6991957994369447 -1.1388727163947483
Ni 2.8248699522973135 6.83992448809856 8.793727899926923 0.9844242355034594 -1.3380373092464892 1.3207965198881706
P 2.223941866179085 2.6849509465718144 4.339678767536686 1.1882605227992566 -0.09954128733044793 0.7922928953494162
P 0.3585521395902388 1.5417328361275588 8.660702601370403 -0.19693493219027375 0.9150844114570562 -1.0121633532899408
P 7.350663873762828 0.5949849131356273 4.828184243529045 1.127934729326006 0.4300157181734852 -1.2088702286298083
Ni 6.330006782281061 3.943334957357632 4.956289734003032 -0.9068748790630705 1.431958165066366 -0.4184192715851375
