# total energy = -381168.95053429354 ev
CRYSTAL
PRIMVEC
9.22331134403545 0.00000000000000 0.00000000000000
0.00000000000000 9.22331134403545 0.00000000000000
0.00000000000000 0.00000000000000 13.49924845859157
PRIMCOORD
 96 1
Ni 3.165163665612103 2.566423203109917 5.433434114534367 0.6939772528959532 1.3991292914618032 -0.06464498967389512
Ni 6.943622178621156 4.020681108767146 10.304043339938035 -0.3947509814339201 -1.4137773803922813 2.6523867879577354
Ni 3.4963266501789434 6.801343381798204 7.331131292947563 0.012091126836579176 -0.1578693336473797 -1.0534059048794955
Ni 4.57291763677035 2.389953592088684 10.194092248473858 0.508404282685718 -0.10267031987773287 -0.47591710869129006
Ni 3.6540913863164115 0.4572714723926442 5.282687395802745 -0.020995885525376744 -2.70755006339344 1.547513054216251
Ni 2.4666362004632476 6.650726711752904 12.75156515050527 1.2213537058087998 2.660596320351721 -0.15153490678891968
Ni 5.059788559102331 3.2849560300057563 12.495714190285517 -0.11802649061882899 -0.6083348350347846 0.16492469783226435
Ni 1.4857739596403767 2.062498378578685 8.080407260357488 1.3345241538869081 2.0293861233806596 -0.6856720754643675
Ni 8.873968955950051 1.2848441276172988 2.2963701884789085 -0.9871861145193128 0.24330889146912288 1.0069219023853433
Ni 2.1630970326009806 5.93877010566186 8.94240131255759 -0.3228361975714891 -0.33895958549591304 0.38564773358107135
Ni 2.5247153903760005 3.679815200937131 9.782931797527905 0.3040404050212248 0.09568900346389327 -1.0287947911990345
Ni 4.481855886411669 3.697551628156795 3.4935651908395946 -0.549935312049969 -0.3684354834678429 1.0536313906267403
Ni 8.08525595499575 1.375656848576639 4.887740603416047 -1.042187667566173 0.5493537285148862 -0.8905676572626146
Ni 1.4398234238065932 1.3856825877278478 4.00816968727808 0.6405684982575096 0.597646502083003 -0.3806837047075767
Ni 9.130377004159442 6.256384046242383 9.343761073142849 0.5394830063683934 -0.637999709089069 -0.2595783180531078
Ni 0.535319130808035 3.3830828366568246 10.977088641216643 -0.435483940376908 -0.29735527969156533 0.3421066157653269
Ni 7.23025501726156 8.376777148512087 5.800721119303254 -0.01813681881002683 0.025352619832175693 -0.2878622525994656
Ni 3.5098756941652596 5.397546211096139 10.993760698336905 1.0969956165449881 -0.5685945790223691 -0.09187785724791918
Ni 5.930791941571891 8.493645723291266 10.026782307692796 -0.2873225780459116 1.09461194680416 1.470508000315106
Ni 0.36208782430933173 8.890736935505615 5.255796832329562 0.9741817318398448 0.9149553420783598 1.4702046101420745
Ni 6.305959343333228 1.983814311698314 2.9711983557905683 1.3764300500920748 -0.715698960843761 -2.4935502053010796
Ni 8.287679963414867 3.3982367367722213 1.4335395819632457 -1.0504645628629845 0.6618528615575827 -1.0610215124432243
Ni 8.70862265809934 8.593884668181182 0.8979345285115241 -0.43755444975269164 1.9329748970387615 0.5331730049899656
Ni 3.7901905647112955 8.542224902784751 0.22114917458727312 -0.5939942500423964 0.506669045162166 0.6986353204932548
P 7.898530022046141 2.7789467371689374 12.090426221508446 -0.31864658497017384 0.5454446232684671 0.41752092814058417
Ni 4.0900680780721554 0.22183077727657793 11.393190019911723 -1.3001996695734253 0.11655581961057344 -0.005828176646002865
P 1.782275741143516 0.7174463208498301 6.5333932820949565 0.0008368940789985586 -0.5360505836480768 -0.8422702557088075
Ni 8.965464201929805 4.801794101386034 12.970536701344981 1.5820092882209078 -2.2912712351900733 0.13873595525203847
P 5.117360466905317 1.3179281444851794 0.1892632658295507 -0.4079728794408328 -0.07932110362883113 -1.6780451335012583
P 7.276223999717517 7.911193628168138 12.42781309639657 0.4976249326820269 0.3049361773626168 -1.1914389205272384
P 1.7330048133185316 3.6480316709324705 3.3104879997558725 -0.505039222868227 0.7016800208568496 0.4222389024415438
Ni 1.6679435769131705 7.625953509501821 1.2767469828143123 0.054361605470016054 -0.8137713769381663 -1.9360599637219882
Ni 7.220146268310571 8.127277360306612 2.887394428925988 1.1108299513249191 1.0048930448807727 -0.2685010744640344
Ni 6.021503206109278 8.256708084785835 0.5702284409399674 1.7145398859931826 -0.043351884623073725 0.2550881434922381
Ni 0.4464405381835692 0.506903954012226 9.116892523350732 -0.6102713899358652 -2.3813192383181057 0.7430313301101268
Ni 6.239791309597466 0.9116929416595079 11.561242437235261 0.5698981283251411 1.099066640141404 1.7119723823763229
Ni 3.2863210800465836 0.07555736442199011 8.076168226582054 -0.2802438168222593 0.24457207445226264 -0.07117353482103227
Ni 0.2418167700702804 7.523703882795012 12.505663375954704 0.5658836078491093 0.1091081050832766 -1.4928462588009903
Ni 2.0281230981586704 6.7266899018627075 3.2340415081451277 -1.4298879128008988 -1.5979033337433446 1.6920620166056408
Ni 2.4829061212201315 4.407645125408332 6.949332330514912 0.6141308728912713 0.564197478395938 1.7692215938067788
Ni 8.39213396147139 1.377270928016806 7.187660844332214 -0.10000382878916325 -0.12124371200454603 -0.31211418316829476
Ni 7.747858012134322 3.8652129770902586 6.239447280093933 1.1095312871181537 -0.17012372553470057 0.48199236835109244
Ni 8.776616907430263 7.161034067556111 4.329262660800495 -0.16908911362259912 -1.9589368683201616 -1.6576704264996482
Ni 0.4391532000939922 1.4057432893413522 13.372800346416735 -0.3101930548861819 1.1406241518682163 -0.20892012957660794
Ni 8.599658460921436 0.8374794136628454 11.38783035383926 1.1041965051688014 -0.7779651658728344 0.3436035120258276
Ni 5.708067425451015 1.768680580601766 6.281267617223107 0.1300836788936792 -0.9588705554040713 -0.18814175937867597
Ni 2.987965413015024 4.879850983112511 4.81344037629517 -0.10769091302077584 0.8233657054948207 -1.549964343970221
Ni 6.729456895188708 5.3655136516921385 4.471477816776949 0.33628255288438214 2.229135127980961 -0.3391981838692803
Ni 8.25229011877532 6.312969059759096 6.474833557674589 -1.400326654204014 0.26285776013532797 0.5854152501241338
Ni 8.643035692962039 3.451907183985547 3.7398718687468655 0.4539465179574699 0.5655244247374777 0.3237749073356746
Ni 3.984728642151312 2.704191800811487 1.4460390131478993 -0.5696549019660834 -0.5600618589610097 -0.7960798731956741
Ni 8.757404750436732 3.3550624175755255 8.628827182233026 0.8283778139974314 1.240105532495006 -0.26158249296733016
Ni 4.452710223377796 6.872067731210779 4.997840190188721 1.46526912051367 0.01926296199467005 -0.02178984218158183
Ni 7.609969511388624 1.4653904421388388 9.465794702130562 -1.8015763559884006 0.14181125174325254 0.03455382671546952
Ni 5.019989971763355 7.287393429443472 12.00816166526423 0.44541122679294903 -1.3629361293706979 -0.1964464225896294
Ni 0.6603457242433727 5.275872291240806 1.6391465550383735 0.5936985731788486 0.4969237928499442 1.3266015566057217
P 0.43801412117478866 4.8856801157192855 7.27213899523723 -0.4922623828185329 -0.06268812305784043 1.8787351618585904
Ni 6.427421127033568 5.221436309207286 13.10287000182318 -0.854222028754045 0.157959836478657 -0.23721306298403022
P 1.8623894212423202 9.035801172276742 12.906671728387563 -0.26735873332947496 -0.3014579890060292 -1.0403351877384663
Ni 4.9214388928023 0.3920626630098964 2.1322201540761396 0.7327530881125703 -0.5822515076841714 -1.2618223553468075
P 3.7744463726863517 1.5348327513103677 3.449772909800092 -0.526287590724042 0.8094416392145608 0.12428969791972144
P 7.59209473450266 5.403034081192708 2.4474406454296727 -0.20618370448205137 -0.8323139158270441 0.9803768049069631
P 0.691456874869815 8.556465695102567 2.903944738339906 -0.9648128890304353 0.28874568364568337 1.2675821406487202
Ni 7.128540342597777 5.287779585853695 8.530458724831487 0.23825358843340258 2.980919007472737 -0.9773573013543491
Ni 1.83074424090396 0.7303091504912982 1.6190591058227177 1.9961088493847685 0.7370897678147112 -0.004910035707107673
Ni 1.5523939356193848 3.2408317097671335 1.0900653217579201 -0.6995364921512855 -2.082683806362536 1.9912427795417191
Ni 2.013882305840854 8.253461479283327 10.562041486978767 -0.8354411486021159 -0.023419407365204828 0.31368281320699526
Ni 2.368177354613059 1.399960273290011 10.08858218129791 0.4094062694532497 -0.22294164066668057 1.3048592798326237
Ni 6.4228094714902335 3.260551148870431 8.077490849391882 -0.8269583079420856 -2.677687985726685 -0.12792163824535388
Ni 6.327929270341673 3.2312579128591707 4.59864052905996 0.9178982267567675 -1.0516981781597692 1.3200051343351267
Ni 7.325282791387507 1.4109267901720601 0.3506647535284926 -0.7988497226313275 0.32404564449855805 0.06290846659876263
Ni 0.8157815743314571 7.571923353156115 7.35120490719659 0.7916205518727399 0.6063293745689815 0.7846415494517454
Ni 5.604858574391192 4.476617045714441 1.6808322318256814 1.1984924849399101 0.05281585824945097 -0.18874596862157816
Ni 3.405264899820263 8.441469452473982 3.2752687863714285 -0.12073746179208883 -0.07165818776693465 0.27224434355655047
Ni 0.7274702153388216 5.195315892209841 5.217459217466715 -0.28781314452908496 0.9651990687252603 -1.6949213404313068
Ni 7.670299189206524 8.34730866959018 8.01357238123016 0.8367459834564687 0.2638201240485972 0.18069918705770172
Ni 2.675405846909994 1.9201642418892133 12.804603800909161 1.1821554383427832 0.08484229055737647 -0.4482006166126281
Ni 5.077958481943067 4.346024184038299 6.107897038726994 -0.8672994307632934 0.1460558859522194 -0.2287227661248319
Ni 5.483442907246285 6.814929319028868 2.4741965485609905 -1.3359341468605572 -0.6110632897095412 0.26427803752162227
Ni 3.9967742864305014 7.344172132493005 9.620076716001705 -1.8598393533953517 -0.5698271658778895 1.5853481227861537
Ni 5.771283999639041 -0.009345981124121409 4.337794223555664 -0.7395163749783329 0.4075370774549949 -0.17001316809876527
Ni 5.3554971358520165 7.906803332090883 8.099791893268339 1.0158677987247213 -0.038631082108636694 -4.579077394649681
Ni 2.260587430787069 7.1895894386804375 5.439764995264256 -0.8503718017700193 0.7124994800698569 0.26376818776473926
Ni 0.901896862954357 2.9869324021733172 5.853044040766817 -1.4157378465527617 -1.358947319926279 0.13941446937630184
Ni 8.148804568382896 6.5058008246480785 0.7765456089687685 -1.475824013211381 -0.2897394150175204 -0.08177213627248497
Ni 3.2873540908882903 5.242013516241644 2.0881585523529056 -0.6067595201278647 -0.8783510605917647 -0.24894166427486805
Ni 7.922252378161053 5.984720641495643 11.47190360138757 -1.0763002929791656 0.6492269452634561 -1.8422866892235692
Ni 2.4786818447424372 4.572723947237529 13.19716175572441 1.1124957690631163 -1.4864969195441948 -0.9117846576598619
P 5.53960364845301 5.853703507509514 10.17673213234653 1.0204361348216942 -0.006019209610886408 1.1928710249880745
Ni 4.0921709929999155 2.859355563222515 7.6911152799980265 -0.9658007068650012 -2.129778445857493 0.9575101847214347
P 5.911100172401853 0.8427496136177679 8.245705596990547 -0.15372702934423202 0.30734221570094805 -0.018317310251949097
Ni 8.025415112665442 8.033863665620832 10.220564073623706 1.8372936068843522 0.5195556713168472 1.4826402648022659
P 4.445377691063895 6.179406291913047 0.5611610038106634 0.4182390372535313 0.5049003832975175 -1.2848869504757547
P 1.32050144827836 5.493496316330753 11.33913864995052 -1.270323450839283 -0.4092324628795469 -0.8301099661971897
P 5.935034664671758 6.1358907102061435 6.802527654941732 0.32876336168920156 1.2057116283961686 -0.5828197214828156
Ni 4.672806095838972 4.888686915133539 8.44921980078011 -0.8479215404573138 1.2116300507631326 0.7647792633101796
