# total energy = -340865.4115236151 ev
CRYSTAL
PRIMVEC
9.33963723912793 0.00000000000000 0.00000000000000

0.00000000000000 9.33963723912793 0.00000000000000

0.00000000000000 0.00000000000000 13.66950316446271

PRIMCOORD
 96 1
Ni 3.432643461757107 0.13504461236775964 3.6903417901678868 -0.08085476666453817 0.6290224452911231 1.329223824719917
Ni 1.3435161130701065 8.41859930110729 3.3117922956429893 -0.6544635110720471 0.2571969623051248 -0.5710890633094486
Ni 9.261426817604725 5.9781148108383935 0.5189092942736847 0.543909160460547 -0.08259283240156744 -0.2035339255640301
Ni 7.772754067254826 8.981527238230248 10.236529744118007 -1.216885385624801 1.1971344282501188 -1.5346781072351119
Ni 8.149860587872908 8.021197749424417 5.261104345414648 0.704610050019451 1.425165567624565 0.37158251373725687
Ni 3.7711866214610037 7.290604650002731 13.585393860656291 -0.6938782654242436 -1.3382036596210243 0.4879043629601533
Ni 3.9191358101850553 3.216057281180707 -0.03416532588040234 0.7557649756267113 -1.4271437743968582 0.5457852944373375
Ni 2.0088718484846284 6.154484514762704 12.381425932885119 -2.4508644935070953 -0.22916191054477952 1.0349397277545078
Ni 3.060795156734735 4.1658890180689925 11.71693691577838 0.3289896187673947 1.3999070501680921 -0.6999512110912011
Ni 7.282451146956452 5.863181238687761 5.038004702038163 -0.21562248129744804 -1.6734004356403958 0.5263678091426741
Ni 2.895166035288341 8.86469771978134 1.4339714307717235 0.019548868666205043 3.2289502441181934 -0.19912319809084417
Ni 6.292384254142202 7.65758700418076 3.554740535438663 0.9708387835095409 0.7657930492866747 -1.9337631972680116
Ni 7.0530416448651145 6.288723116462773 13.209086812960045 -0.6681489789789397 -1.6787444735611283 1.6372561245093544
Ni 1.9778455745788588 1.980208502724 4.954908084279458 -0.9118995859711714 -1.0279684386429975 -2.7537178201987547
Ni 3.8253284967866352 6.893305834326168 2.5608173065329938 -0.04193623522246971 -0.36029099998383757 0.5916514608418326
Ni 5.980907362282652 6.326557985695847 10.958416433986725 -1.1320230404627667 0.4991313420242242 -0.46397562005869775
Ni 5.5855885496368005 4.578644932876816 8.69214979529178 0.053659180086352745 0.6203115477806865 2.8003460615802545
Ni 3.068929980507139 5.26635041948234 4.638718411621338 -0.0277656001490425 -0.7301485606101877 -0.17046671069641608
Ni 0.6760935160013563 3.664443910904398 13.333957758811982 -1.4775096284439198 0.6691887330973637 -2.142588710248284
Ni 5.1000021459917715 5.067248039252598 12.89587741844862 -1.035903377219358 0.20226560037456778 -0.3070473101683486
Ni 0.9304790751904694 1.3799593763995206 9.79712410927324 -0.04856351073100024 0.20120064944516317 0.7323795068232355
Ni 1.9316237113760728 2.038188968830869 0.6517992524000051 1.999220398430557 -2.435369740305606 -1.111147482565338
Ni 2.3711376860093125 6.153064889948231 9.59251881496003 0.4380583859723036 0.28253672662149404 -0.13550896367430856
Ni 5.658652529397438 8.902822117759472 5.507907053374353 1.2753407015482165 1.5075406275883714 -2.310738856996382
P 2.792149839869725 3.8790314091762124 2.886876173542778 0.03411056853046383 0.5955489961240259 0.0687492416502558
P 1.8536844411341555 7.169516257110405 1.05829107271397 -1.2199244295614409 -2.724027749333489 -0.20965597930136795
P 8.773935128024485 6.1104481266032495 6.618554262831538 1.374257725031104 -0.03165747900428096 -0.010060469559795577
P 7.450928857668728 6.967649344347217 8.896823268954632 -3.6292401530924723 -1.4997255024193268 2.8998940337789216
P 2.6278936450531165 2.9854803244722046 6.558381783935482 0.676751633046286 1.6760317026156553 2.9459067530636105
P 4.417741667720705 0.828189503525577 13.914323732060607 -0.2595672623095142 1.6615134543948222 -1.373147522686061
P 0.0577348336554176 0.25865844308793595 11.572081948771661 0.3136948973918533 -0.08131962211609867 0.9002139221031271
P 8.507671418578491 3.237846654155469 9.197607210484646 0.5597440706102746 -1.5256931301276822 -0.7903234303278711
Ni 3.891247654290224 8.339156349318465 6.93151802489151 -0.9460304662166094 -1.6948339229238232 1.3497710527436495
Ni 6.552035500636574 2.2456036259348235 0.4245612158965937 -0.6930763383482386 -1.2962975063055417 -0.11914620604556898
Ni 2.8854528128735306 1.185956437937555 8.43082955567671 0.049614063482701656 -0.1995451161196112 0.38455090097246675
Ni 7.198114225412472 2.692047611175553 2.6626277548230015 -0.011181470538116226 0.7663041845951383 1.2783113541407662
Ni 8.89606956025379 1.6222108792796706 0.5440656063643502 -0.45205521447202796 -0.1668568818579707 0.26796731344775143
Ni 0.7025938018473018 3.891509164124469 10.513091337251087 0.2113012282142748 1.4499823695579288 -0.29860740693111154
Ni 5.474549606089028 8.136486227778668 12.404635864638047 0.901275530598422 1.6369123680166906 -1.116748373691883
Ni 5.665115558158061 1.9096942438472504 11.983437852002583 0.4245960898198107 0.03089283292411454 0.7089894100340692
Ni 4.4990712261708685 2.486640976013122 2.188077066183108 -0.25756257317465964 -0.3197537019914235 0.6389882982545834
Ni 5.380901066518542 4.864241690783058 3.776377591670765 0.5440811672620371 -0.5024987158345604 -0.4671136514670471
Ni 6.7184024534010165 2.115857389601604 9.86996860756585 -0.6874772469939063 0.3463098552133971 -1.0794565792199604
Ni 1.3858340080330935 8.078449723850175 10.711599716571614 -1.4051618708091285 0.2969377325381725 0.03502279593208807
Ni 2.1176039017088826 6.437167305944502 6.727623476949231 -0.4755895501485422 0.35881852920336915 1.4825387062273951
Ni 0.8608875724431267 6.651652068210007 4.8508691986162065 -2.0623240117592614 -0.509991938887812 1.071749697494006
Ni 8.431600075724038 2.393141870633633 11.50106895328246 1.369402710931648 -1.9982436363395841 -0.22504506016292852
Ni 2.7111004705276813 3.73815232561371 9.142218493627881 -0.4306749490240389 -1.5623521761116126 0.18072849763374035
Ni 8.36484035089609 1.1122480232282426 8.126751524198902 0.28543050322952135 0.9670397214784248 0.6277435785786996
Ni 3.7699444497483405 1.154547238917355 6.270952589262138 -0.9804698788414017 0.3924197621975823 -1.3797231190210497
Ni 0.7344083411105812 8.782154008529325 13.643038099833417 -0.39046083869899856 0.039134246997300344 -0.5005405636669251
Ni 1.6298040041097097 8.634578405282767 5.908041382825085 -0.8412610977180028 2.3909601038419788 1.0268286686115993
Ni 3.6082940136372437 5.15652562873642 7.759261093771483 0.027032321527443767 0.0161239021450561 -1.865843907718219
Ni 3.744540637278836 2.154411410878852 10.82606817480277 -0.704703895284838 -1.0835870564485661 -1.2856978764128244
Ni 0.6707409700725793 4.865306409393913 8.138220598357929 -0.4417456050159037 0.11136964742394367 -0.35619548975822524
Ni 7.586699159826518 4.370417727359316 7.628649073094174 0.8656240999433996 0.00017894878002549828 -1.6115206674164633
P 5.443934276208501 6.408158393617193 1.0349289048789632 0.2993643397017941 -0.2530651995249384 0.6118379630920365
P 5.5267768558425105 0.2762384416950493 10.491110501719108 0.1787096674314987 -0.17472908551719585 0.1945574330970327
P 9.206873998253853 0.6500602120022766 6.032761960522334 -0.060028831058122414 0.6294605612698062 0.1542463921828118
P 9.3005879152829 5.581572505753753 11.730743701062817 -0.7569011461136835 0.6226623074010502 1.1324634704342948
P 1.731157744153483 2.515126868671941 11.724961531834923 0.6482147019488578 -1.7409124624494405 0.8756097504012016
P 1.5510054872695593 1.2201301694912008 2.631064451793336 -0.05607113196195505 -0.5997283243126962 0.842533279562207
P 1.820080427433686 8.07498471854643 8.286848778687324 0.9401439255288454 0.37068597006491644 0.3974930629554316
P 5.38157352037803 0.4990728393825153 3.060587816794727 1.997675679651256 0.8552630684240496 1.3249815045037956
Ni 7.92274863646815 5.762210423758418 2.8028493279451165 0.05352008340532718 -0.12066187135914704 -1.6551054939859497
Ni 4.632170392164585 2.9415093137713115 5.132337836996153 -0.026846687879198926 1.1426486384974128 -1.0283476763592871
Ni 1.3041962415639983 5.864077843833743 2.8801096065816907 0.35455306905879586 -0.6590490735602005 -1.9872169462117775
Ni 8.124998474345768 7.614082975326733 11.953227862365132 2.08390019526814 -1.4925068731837006 -0.8754647401829053
Ni 4.99655632727404 7.26926357960096 8.880706791455596 0.673684306974872 -0.803449683297184 0.0565411296198381
Ni 2.8277712151486556 0.04661879777262193 12.428517316286769 0.42891014381413234 0.7799860529576051 0.22230683529615908
Ni 7.548957686962816 0.4429397534618477 2.3875969281839478 -0.30488501240970717 -0.7373178246651173 0.5842487406198583
Ni 7.715119167714637 5.167340928309834 10.115432011588744 1.2754641144999581 -0.6943955713802945 -0.13412750994574965
Ni -0.15876448829746573 4.503218024971037 4.375607763605383 0.2745501088715917 -0.6848076705815431 0.41273070584079247
Ni 0.26515696246892173 2.9389502532504865 6.383671733494933 0.08818780999084166 0.029577713657116807 0.6862726851628438
Ni 5.398282130858891 8.632038024035815 1.3663151007977932 0.3452071090675216 -0.905674430997066 -0.9007551393185778
Ni 7.5006624243599465 0.2986498344898372 12.681922213597463 -0.678436991168509 1.7422540640789994 0.1734515043563529
Ni 3.5353234302459793 8.637361617090086 10.081586101291597 0.287579174141408 1.4239023846414252 -0.7801994545199918
Ni 2.2147828240416745 4.738268667772515 0.9181404808325787 1.4002425791306399 0.9329859743278254 0.0025309939519698346
Ni 9.070225770223955 2.1021654818514963 4.093031444284669 -0.4246878782026686 -1.1248080107715661 0.30706916454521954
Ni 8.810994807391761 8.140446233840091 8.227414131109313 3.4027197939355975 1.1214393514096492 -2.2474835485811613
Ni 5.114189054499558 6.7914477538877795 5.201191508425448 -3.565788926616362 -1.4925043020805393 -0.11537594036985936
Ni 7.34161774695436 1.8135053230298144 6.190630777637511 -0.6490955618919143 0.1504416737247409 -1.563892524015539
Ni 6.487031627552843 7.10720219946462 6.98050909044621 1.0886973810919378 0.3030263619344136 1.0555774586095175
Ni 0.6799909464952989 3.2010391449855 2.1325249056799414 -0.7748340764430204 1.5317781599794973 1.5179512813987341
Ni 7.300401929149976 4.013821049455583 12.392839903186216 -0.579793275951666 1.203854520582772 0.5688540033313428
Ni 6.06148974977783 4.346181369506976 1.4824983163706396 -0.8371727865812421 1.459098472926584 -0.8141776112376495
Ni 5.55853162142939 2.7918696507616056 7.315890783046825 -0.6000643674958762 -0.48669440181245216 0.3038951376926121
Ni 7.7426617570427885 8.14619945019348 0.7243766370762081 0.5478768868590436 -0.6794466633799461 1.1359501434313146
P 2.941032992287509 7.473577477241724 4.763315706111014 1.3487102155793032 -0.6219264576762902 -0.5907798568701568
P 5.484141413223654 5.185926805815096 6.603189626105958 -0.19910597169966357 -0.918142995777722 -0.47271942768959885
P 7.122080241105768 3.5025506442329313 4.744232959920686 0.03519274585104907 -0.14925382406422683 -0.47212627419029013
P 8.064804514284754 3.7750812500638653 0.9010311999271062 0.9400703919784326 0.47057152810866054 -0.10702551152263502
P 3.547689109550988 6.968181703652644 11.360382266240865 2.0775328582892154 0.14297956101974085 -0.3813143963130401
P 5.4855236794903774 4.080571434646594 10.837823975815772 -0.47967246196866414 -0.9003345068413914 0.8405602149962362
P 8.59454872136942 7.822300841207297 3.0552436765391935 -0.6071762959503092 0.038515125356062704 -0.47060906621481524
P 5.466125253571568 0.573584462868437 7.244276314938859 1.6478236156125556 0.8458620868251239 2.4958238318266046
