# total energy = -381170.3870199824 ev
CRYSTAL
PRIMVEC
9.26311437534683 0.00000000000000 0.00000000000000

0.00000000000000 9.26311437534683 0.00000000000000

0.00000000000000 0.00000000000000 13.55750421826900

PRIMCOORD
 96 1
Ni 9.357597973678688 8.311143961516263 1.6038934042622324 -1.5510979433540317 -1.0277411531235396 1.1901729093306213
Ni 7.033380724447157 2.6571521001224045 6.326392058692773 0.18062308240412764 -1.4860053246197569 2.1398702828758562
Ni 1.7798888689827883 0.30356707360345325 0.8783701732875617 0.38171368863398775 0.851354991618895 -1.4872001162588064
Ni 1.9393811694290362 4.544187411157798 11.115417473059132 1.3075414546504773 0.5006516353234925 0.1133941340531402
Ni 5.768280164501411 3.1720700927583683 9.505857821835408 -0.5191826042481447 0.21127243185886838 2.1032420901298616
Ni 7.4690435119130605 3.3095624969588364 3.699273753769397 0.25591501026890767 -0.06273388869411131 1.2805186462047302
Ni 1.1909771200473334 2.3918194567269855 10.470094284903814 -1.316092943764914 0.16712221970421537 -0.8467887124044513
Ni 1.0399698322163 7.0705165493100335 13.621630832395647 1.1675973380229503 -0.3572758673065976 -2.1469063637870316
Ni 4.983370182023026 3.5635107729917026 0.73209726312862 0.6282747684918212 -0.6316087179610607 -1.2741510521154895
Ni 2.0988178911900315 5.857974899384732 7.012334002653457 -1.089345556198898 0.8245887792686444 0.8793167669391436
Ni 7.182174127982299 4.228583846951495 13.36782057676449 0.020042006252539678 -1.6026382773251688 -1.076709355492126
Ni 9.12293550142844 5.281123725149068 12.047659139650516 -0.17596038682113568 0.2699663461556512 0.7485494317148786
Ni 0.9506085694444942 8.22539531328587 11.002971603367701 -0.7314461963756886 1.5254905271985728 -0.6993886537195116
Ni 3.97092106212092 5.053019537758613 7.877465333113873 1.5775296551829994 -1.2192813966608032 1.2065868319122703
Ni 7.851313709079733 8.183164775608182 9.9612000954378 -0.25344546568249254 0.08825388734208671 -0.06437990893796654
Ni 3.3789061699255347 6.628082425357534 9.683867087584947 1.0066046282552406 -0.44704207752815267 -1.2705499650277925
Ni 6.786611361926072 8.740155832980285 0.8148752306322677 1.056671977225277 -0.3550197242825692 1.6219241221379745
Ni 5.444756637646627 8.80915677072126 2.844106755263332 -0.07333171881461564 -0.7853468030488862 -0.11720039517310783
Ni 2.0572635608495817 3.656401282277042 8.537919818329184 -0.5100209923535346 0.30295411393558147 0.9388889700758218
Ni 3.262311351380006 5.102771724173806 1.094353575735868 0.4179886118056221 -0.3108054916592002 -0.609255547076841
Ni 9.019392410803038 5.371337194428079 3.7143355774728235 -0.689909767694799 0.3039771558834571 -0.1910573903635742
Ni 8.028832029776208 3.177035121974258 11.286961085090962 0.520635020423955 -0.8791002800529635 -0.1889498571022681
Ni -0.20590606050060792 0.20442303591578712 12.785539364979659 1.2915597345102403 0.6797958191892487 0.7724853737051857
Ni 1.4458517075010746 6.017865513741955 2.1956239188514095 -0.6045681689035007 1.2075340263168883 0.8513696469069143
P 2.3881142110434856 1.8428317300312407 3.2805365285857198 2.0400130069668867 -0.34993151112638443 -0.9126590898450153
Ni 4.253029205348385 1.2701767465321412 1.7749886815663598 -1.2654252422067174 -0.24217914874005386 0.04117338891451618
P 1.657819549939888 7.7356915175261225 7.911427615048833 -0.37498562588153483 0.25559567925627596 1.2719722992966158
Ni 4.743826048584766 3.2792350610393908 2.868890217328841 0.8304395816224667 -0.13869173227766435 1.9838439159744865
P 9.328233901636954 4.464237472422081 9.930532703226891 0.8737199895776565 -1.202387192008626 0.0912142555219913
P 1.9163067519350414 0.8063012921206493 11.687151703005881 0.5362233617805151 0.14386890560322962 0.8905149496478084
P 8.550206413015669 7.384526857872431 11.982217090388543 -1.1573939151273873 0.12211351620400902 0.794074155619555
Ni 6.695879158251371 1.854651463761605 2.02268435550832 -0.6430843227008279 -0.36215890643051174 -0.9963999198080968
Ni -0.23596208717373723 1.2649523501184068 1.9823647982918964 0.5313092123083496 -0.5153732578043834 0.4073902674644855
Ni 0.8366917172167144 1.6518633675036622 7.349509507229095 -0.09298934514454309 1.216713378823311 -0.7671192242972659
Ni 4.100632450386039 9.180941122603627 10.930899943266526 0.9814013895167357 -0.8062930662832501 0.30551441846359
Ni 6.7858981021319975 1.1847059917280103 10.082363481911083 -0.20915050041985916 -0.4289479390306032 0.674951860833386
Ni 2.2182101702266035 8.772428522883569 6.227205410679746 0.09138857631632646 1.2942411379971452 -0.9135551192967235
Ni 3.410548968062623 8.006637608132044 0.5916591886097697 0.30288263726769776 -0.7298819372123624 0.28391432369531105
Ni 5.990159539143586 2.3987667923835474 12.2097932802691 -0.3209837177437827 -0.4738440282123452 0.3066215354848396
Ni 2.001268035457691 6.6620687913894345 4.6728242781747005 -0.3510766804744212 0.14142507204842739 -0.38228164532231584
Ni 5.22162674258627 6.645108029273215 1.4775241476036305 0.22356898983803433 -0.05928706779609144 0.29872079258052425
Ni 5.676843964146845 3.7499402095569936 5.1478515957821065 -3.677927848106163 0.19310604536248677 -0.3061044866391051
Ni 5.773235930603091 -0.39113962902154964 6.2445867181810435 -0.9619365959239047 1.5133736893303806 0.3752869591720375
Ni 6.837160176163217 7.080881974109624 7.640494492802803 0.6091226210434026 1.0940267637246512 0.6061949058736464
Ni 4.0143280153031204 7.554190057719886 7.337171965414462 0.17564105580850395 -0.4345166913676323 -0.05772152308118446
Ni 9.17767124328794 8.8610765258613 7.0255524666293425 0.4362691552823648 -1.7475019427415 1.0766589618701652
Ni 2.6904622588170675 4.134424291019557 3.3006282233044977 -0.28196105662368215 0.5414982370262093 1.0110829757415685
Ni 6.986463050979841 7.365870945856009 5.114296890872333 0.14370435500090734 -0.16256596779210067 -0.45135433175026135
Ni -0.16112446116982956 4.892147033295262 7.713351664988881 0.7130556096836429 -0.3721921222967977 -0.44899097372440744
Ni 5.0356234092745815 2.2539287386155413 7.563785717728729 -0.15600194142133778 -0.28155816475830864 -0.7601893299466521
Ni 7.8980924358339175 0.5862624982717524 5.516969097083775 -0.0013174332598428922 -0.19546837494707625 -1.2524727958111075
Ni 7.396040908833907 5.09971489648492 5.758834566942748 0.9675490570146755 -0.016536307092126362 -0.37571067697301747
Ni 6.800506033239196 4.373458953176336 8.018097933031108 -0.7741817875710022 1.4213233110603392 -1.071691847672877
Ni 3.793282320939732 5.382425142135952 5.463755284888772 1.0587885093476475 0.3616842807869384 -1.506032161363645
Ni 3.6584021149461314 1.376656244361716 5.070872337773136 0.014431859154613855 0.16978433991741082 0.020647758157338634
Ni 5.010122055857894 0.3616616206750463 13.197986009304175 -1.2460887466616346 0.39925812527565435 0.3195289875751271
P 5.170364668555051 8.610814969283517 8.824484445802478 0.9910617954246351 0.8449197775165126 0.21210804038628633
Ni 5.621626540348489 6.870034968490069 10.032309317972684 0.49088889950977405 0.6928130573845229 0.20576512888739398
P 1.157944854778933 4.751264329294392 0.4434975294636641 -0.5091105647241232 -0.4958891809378427 -0.4723481603931091
Ni 2.8413583892775955 3.417709355345986 6.347040466575496 0.40827164162817425 0.06886751239567494 -0.9153818880928171
P 5.535711156062338 5.843746755960092 6.6468643157271945 0.10158557145398635 -0.767137222019395 -1.0380204235623607
P 4.653862683389391 7.381636766239301 12.431892190718024 0.3615647244899386 0.8889789726192561 -0.04495702432666451
P 7.823913417250252 1.8162188029095034 13.664201326364797 -0.4083233208017161 0.6098566709959496 -0.779026003037181
Ni 2.1005500935470676 2.5625386515942377 1.2286613212713682 0.6907183796390234 1.4058835794665014 1.028417610365274
Ni 5.982684205977125 1.3731733134192265 4.273949022477424 -0.34298721859806736 0.15839615268512722 0.5253162279497082
Ni 0.9916256391608367 4.636929710615797 5.5765133215290374 -1.094095669289374 -2.147083512794844 -1.1234597242737876
Ni 6.504623639183321 6.415049324784714 12.846020090271427 -0.2560764755474364 1.7119361298217484 0.7807913224677199
Ni 1.1848449384411415 6.465857506219705 9.573739775379964 -1.556342993803055 -0.9791066799452879 -0.4922155887409975
Ni 8.27301698343305 6.124743325482506 0.7603821823650365 0.5074519460747776 -0.15096617876964324 1.0168427610434811
Ni 7.368307144892911 7.106605642267321 2.814497210695064 0.3812953701496465 0.39020861347887636 -0.7141562989469895
Ni 3.382324259068563 2.8857379694517142 12.544053682803243 -0.6892250829229486 -1.755801463746131 1.1785780054041701
Ni 8.363258242054687 2.7677629468890816 8.894169927683478 -0.10934181836063749 -0.24571672957966717 -0.3831928442826755
Ni 6.9202317843872825 -0.35046622084235174 12.147605363028662 -0.7711077766313686 -0.3695019770591443 -2.07854073072844
Ni 0.9771566547667702 0.7946093893663657 4.432788273371956 -0.07763703105818888 0.11922642446420112 1.4087331331001545
Ni 6.718684945433312 5.165603427851753 11.091068451050013 0.10572067666828244 -2.180018058739336 -0.6364519049859749
Ni 6.8115661916044425 4.561268593758731 1.9764808681464987 -0.2252633468213217 0.5799699107388463 -1.129546039677184
Ni 0.058287219847135 0.656403725371824 9.423142843508378 -0.6357237685706987 -0.5593254950156173 -0.2508805331687937
Ni 0.6185222198151431 2.9684853686784733 3.7037747009634283 0.17301750214272782 1.5386052102036598 -0.7255809958441634
Ni 2.5117304701592467 9.741461426489264 9.334951512061139 -1.1941768882836916 -1.4383129036398004 -2.055138292644099
Ni 9.499323621072556 8.011454427520594 3.9586826356283207 -1.7549905378090613 -0.8893900920147457 -0.013117511218564505
Ni -0.1526542695373491 6.698658092513996 5.9952913044152325 0.8851390300478756 0.5234956298012016 0.4303080526029234
Ni 3.4921940566985405 2.183908858311604 10.365118190510318 1.3836641059466686 1.0815366016774404 -0.30832977642519804
Ni 2.3576663546393264 8.520731183603429 2.9130465564505283 0.6149184017895732 0.204743372491099 0.09464719246294023
Ni 2.6860159639968675 7.150355330675245 11.700885196131772 0.7911065883507987 -1.3271335178497918 1.9805421052947632
Ni 7.190862929110106 0.4145697501011605 7.922801792985756 -0.51577460700786 0.37014038197409155 0.6367450107463615
Ni 4.037226433627149 8.251424664212456 4.804508709766283 0.3267342470743147 -1.0596225752131687 -0.5175394122177668
Ni 0.9655684988916245 2.7930327224505502 12.78090317631818 -1.4312950775610704 0.11787813796642281 0.3060512648036664
Ni 5.804322941887654 5.465394856103721 3.586298960256647 -1.706647370618983 1.4454536284496395 1.9298157825844895
P 8.806275942202339 2.749885136466195 5.448150642692712 2.1646454329380074 -0.1262889877379373 0.5147500223980878
Ni 4.669619240658474 4.580841554081819 12.124394777755796 0.5119362070983763 2.0352505525812368 -0.5423384735393175
P 3.9005862359338863 4.324744235552523 10.013816436766337 0.2915556422906527 0.7778558939884798 -0.0654587438244421
Ni 8.835667803586702 3.4687583777504045 1.7027678853264239 0.6177982944405295 1.8471391322198638 -1.9170553975950273
P 3.594829362131484 6.615354906434712 3.1654469660991125 0.5873975706614851 -0.26451097946803476 -0.6286588913041173
P 7.625154775673114 0.08734468280856113 3.2859591556435217 -0.17950902340434244 -0.6732873286467694 -0.011850728690998947
P 3.0059176131960297 1.636301335632963 7.44245930044537 -0.2606481540785189 -0.9840750796941568 0.13823279036337482
Ni 7.942768435662716 5.9505782521296 9.415252522825366 0.018505257893039095 0.8829512783679374 0.024794690446176652
