# total energy = -340894.0779566396 ev
CRYSTAL
PRIMVEC
9.06151417061711 0.00000000000000 0.00000000000000
0.00000000000000 9.06151417061711 0.00000000000000
0.00000000000000 0.00000000000000 13.26244194059055
PRIMCOORD
 96 1
Ni 6.371304607242056 1.8234666047393726 11.429068441728631 -0.31318839006907995 0.7177208763697961 0.47941843697632913
Ni 4.6201579465097256 0.3766209919535716 6.242962758482586 -0.08112524671710544 0.6113826207221729 -1.2182596402645085
Ni 2.8521749925854274 1.8565411311929125 4.586616752080197 -0.1892383348769644 -0.8831538812970468 0.7898413484851301
Ni 3.4156833697268727 4.46805137087983 4.839292541914095 0.027281718534088496 -0.7638189562794394 0.17594136065774216
Ni 5.135712791050586 4.307254803231046 2.629027052587557 0.8002280910360927 1.435972685542398 0.5639126001656675
Ni 7.445311504058314 6.234357944696208 2.663655628708709 -0.9656389844761563 0.0390951662292488 -0.8065522334819076
Ni 4.895818266850309 4.599959831587824 11.563283963925686 0.7217289690879248 -0.355775114391355 -0.7053590123703336
Ni 5.5728130465408325 7.806095687824804 12.319588739597569 0.21390524149602516 0.30560954928055756 0.6515836184210907
Ni 1.7878095467682278 6.32667665031502 0.40448061704436833 0.20783743803539043 0.25382444628846607 -0.14684932838779227
Ni 2.7439533297266263 1.694774981535764 0.38415564092511084 0.33958204957126037 -0.6555760274099355 -0.5516924039503919
Ni 0.8301524909556539 0.09060517330309549 4.685129908735623 -0.52799120367871 -0.28789053473423964 0.2602563179567389
Ni 8.621477910802577 2.1995738088436525 1.3008745883508896 0.4861444428462531 1.1246773987309728 0.9953323977755311
Ni 6.931795500189247 0.9124219774410477 4.861918236462546 -0.80126630249262 -0.4008113286953871 0.46948960789839145
Ni 0.9013288718836714 7.537720824818095 2.5274366057448385 0.04805134698127208 -0.8963816928412304 0.4499528234170444
Ni 7.726028149264947 4.0173225981879055 3.6939080985568684 -1.4226060344275049 -0.5385419826113629 0.4278410791196697
Ni 7.636364467276515 3.7944818435179197 12.635592733000195 0.08784173950533258 0.0862042039019096 -0.2603514487737065
Ni 8.314084168094787 9.219637517850414 6.750370395698961 -0.22934985818586953 -0.7216024708123895 0.2848355499579998
Ni 6.7504021109983 0.7801012178416465 0.5865617751552675 0.05756442867802989 -0.6243296678011442 -1.7610912513901607
Ni 1.8927237569816753 6.249400058096996 9.485842148230926 -1.2840420859769563 1.7268500708191035 -2.0767247605656234
Ni -0.09252077738317174 4.8497404676677744 1.540259855458923 0.8376057603536026 -0.6668099484525419 -0.7968404055107826
Ni 6.353960869260666 1.9755913033974617 7.126745820620508 0.4961493765777649 -0.07694334742527395 0.4528483997972846
Ni 3.4126024549339404 4.295411404306449 0.5810623422498832 0.011372760613315899 0.29594091584254195 -0.949910775107622
Ni 6.104633308885557 5.746304795439317 4.848933992913154 -0.04893580646875443 -0.4502821817320052 0.18310625383729753
Ni 5.415233316396433 3.1299103996541926 9.275857869761564 -0.7534322137284766 -1.0010294481603084 -0.6923924249073365
P 0.18871237412698155 5.503148126164171 12.281405331496218 0.13228737141321734 -0.5882033543922321 1.1064361931325977
P 3.817942103514691 6.191143583968282 12.577648881107821 -0.06116808686888821 0.15489636706198484 1.3392130747221451
P 2.5462854612177175 8.643207421606848 1.4099833734397738 -1.0783427773304912 -0.04393012572404692 -0.6175928632979428
P 6.551338769318475 8.010614060990939 5.887369916142188 -1.039780343676261 -0.003287155391704016 0.7163448219578761
P 4.715276659984466 0.9401773951197305 12.641149253444388 0.32610561235138036 0.4883350227396686 -0.6069942618464901
P 3.8962698313679502 6.224970216091861 8.461344645985681 0.30062160914766295 -0.2244022843726071 -1.637325544294709
P 4.778127321760288 0.8397984727117616 3.7717455984974877 0.3421711504546752 1.4039010018188338 0.6009966495021585
P 9.263042170374375 5.665956349942458 3.724942878187205 1.3043008362259925 -0.5990878625152198 -1.0857100163288398
Ni 1.465382752173748 1.0848172831338132 2.5110977896767896 -0.06297017307463348 1.035835757206216 0.16227594735550763
Ni 1.9509530465680986 6.4143105531457545 4.851374258659439 0.06965375574239616 1.0033503829840011 -0.8102132272732626
Ni 5.923076812440867 5.661543392577286 9.123538348550394 -0.032009463027061 0.59340161076372 0.7825278455428523
Ni 8.447795870108056 2.268051670873625 10.45385470235339 1.51425969147976 1.310944566794755 -0.2991252271077945
Ni 2.566900405788074 5.320821401021246 6.9165223181789885 -1.113848426436269 -0.5123424413978596 1.1853983707601132
Ni 0.592144573990343 -0.23408609366418964 8.86680481270392 -0.26802490615856417 0.24785228786543118 0.46337038237453093
Ni 1.3252645596939985 1.0428715343794472 11.513205506269388 0.6275178357211387 -0.1838323333700447 -0.49708474390784074
Ni 4.061832755431683 7.152488676018277 1.5837877445746007 0.060628669425650414 -1.1363072696604173 0.3633174455149872
Ni 5.424802275282717 7.875869346370628 7.980143813688836 1.107630213440699 0.4287129402016617 0.99607030438282
Ni 5.0979897078653575 2.8607834309774445 4.765712141296181 0.9272444438583578 -0.42681186652420694 0.17315968414754693
Ni 0.7883381341556925 7.225243572701968 6.867968913345193 0.2833977890702087 1.0497474821913018 -0.0009201978214242217
Ni 5.080020725411283 4.620112638939241 6.985779470421292 0.9160210643387128 0.436747380470364 -0.04446517229191052
Ni 8.335251865025052 6.8192243105639525 9.583692002054459 0.298882257859053 1.6024976379822464 -1.2191155605069004
Ni 4.757303962365705 0.32391560136059394 10.36416021121703 -0.12144322960986181 -1.0211928104820607 -0.8733240396908186
Ni 8.255419925831715 7.212321853599845 4.764691814808875 0.6014059691254352 1.2147590833104176 0.2658214707493422
Ni 7.443979461486076 6.345125893016227 6.932490518320477 -0.8470435087277348 -0.27857619931184924 1.1373531944264283
Ni 2.365154855935579 5.204290329735624 2.6130062956643085 -0.1637389050542793 0.5934010965430877 0.589014794549934
Ni 2.3094718518103727 5.119248019936591 11.41146916904971 -0.566312982077044 -0.6125360176003257 1.5272938989558988
Ni 0.882002474617888 3.3169219275851933 3.700261126090177 0.8699846909049405 -0.1206860397288631 -0.07358754357916358
Ni 3.7568403139595623 2.60431539749401 2.437291757357863 -0.9430289603861243 -0.6617669867119959 0.3606812934437208
Ni 1.0392106826843155 3.2787367071810247 8.170326871553739 0.3749241765159801 1.557300215510002 -0.049424316069398753
Ni 3.5103943150672556 2.9500937139160985 7.2089328473276195 -0.08908486788381431 -1.016782854339823 -0.06247857815019563
Ni 4.0963933701971085 7.05100877964754 6.1125132015441865 0.5575360072153623 -0.9524291706541017 -0.6906430463163976
Ni 0.8364411817388748 7.424225360754921 11.554318501878253 0.0146390900694135 0.4730642126235272 -0.4908284785854837
P 0.1603815503031481 5.552053117744925 8.009692505007289 0.8156999614194468 -0.28204821702084976 0.4813503638917194
P 8.618297319354578 1.8097837184531138 8.19278039733435 -0.9630755946243542 -1.599235165180891 -0.4233869000030579
P 1.7941344836078361 3.1413279074162364 10.44231577030245 -0.515950213353776 -0.5873852293663109 0.5902036726517126
P 4.251580860619936 6.075328372296311 3.7301414688245735 -0.4652341750561471 1.2918284147905945 -0.5264593404152159
P 6.944581296579917 3.9938895227334257 10.427342524408798 -0.34546833314870823 0.2800594687255951 1.135227406332677
P 6.438957871489214 7.685432566111014 10.191271053005986 -1.2840937651504982 0.3437145836823951 -0.6978089679372176
P 2.562342464197354 8.55797482001178 5.834559411985688 -0.776288806611676 -0.2415903661161194 0.12524254875129398
P 6.92257994035274 3.870725423128902 1.486600287431546 -0.07984740844594637 0.20328889943275955 0.11850780113062169
Ni 5.33145961857096 2.9236612772955572 0.1536098808185645 -0.03048608440399911 0.06792494597674754 0.6217991880698066
Ni 1.6705807388971472 1.1790298451988688 6.935024117661959 -0.2983274137968475 0.21900219640295832 -0.5741041959866887
Ni 7.1632900008217355 0.6305862352434531 9.39864138577402 -0.978333035004057 -0.6426148392635771 -1.8109302863994745
Ni 2.514089901631573 1.4676300076697693 9.185978523737626 0.4470140525036947 0.15409521131692816 0.4067068682442157
Ni 6.497404637413963 1.952303212168531 2.712606834011357 -0.3844763389807895 0.4890006813481255 -0.5503518307620974
Ni 3.9102517476194056 6.965794301080667 10.556943923627731 1.0403411012757373 0.2523776865396105 -0.6709283414962898
Ni 8.049388279811403 7.003281784899377 0.16211501794987748 0.2317823788867621 0.3268957123528434 0.9357491388952593
Ni 7.537566779078448 4.019452054000668 8.305656959984708 0.710578351787744 -0.5512152072036571 -1.3053722149133005
Ni 3.128197773489886 8.383712842415061 12.442862483522665 -0.3540601885827773 0.18558839682920295 0.6433679153795178
Ni 0.06802297402231018 4.736081896350857 10.138340936863406 0.28691274420200263 -1.3849082627664149 0.8896844833267129
Ni 8.688895575683215 2.448638585309952 5.85397551824103 0.042397748239920534 -0.11267448227829627 -0.04575226653445024
Ni 3.87846395616762 2.4264288142585473 11.06941785337566 -0.944006236697729 0.3907344040753593 1.1246486023755664
Ni 1.0423731511041199 3.218486699951001 12.659902963019249 -0.3412815487608703 0.8979577790790987 -0.11492342621347304
Ni 2.9992433663774682 8.367084964047322 8.15698560434893 0.2524180528592427 -0.5492102609584864 -0.43360035020095
Ni 6.04811664546344 7.944854653190024 3.645699031258753 -1.7196520104087674 0.23285710000817963 0.25781608394636246
Ni 3.0318648171261655 8.446744734472821 3.5923575223761754 1.1899165703454408 -0.3904796077520759 0.42631821471724
Ni 3.2631327799062313 4.343673028386326 9.369782275678341 1.158572765926837 -0.9688369225881639 -0.8762116456512586
Ni 7.178884866582432 6.047074571342302 11.465659741803163 -0.6640953777348563 -1.1753726110929952 0.06220321300162191
Ni 0.5838750362255485 -0.26803777468230544 0.39409340343513743 0.292873846881444 0.7447267155346787 -0.16993783477613958
Ni 4.652788458772519 0.45249486178940146 1.626267216509272 -0.3995175495846281 -0.4452361346676655 -0.02598048322416171
Ni 5.564331469346171 5.652318771226684 0.5112750914329143 1.7045408657989418 -0.3395283135151895 0.08782811265857778
Ni 7.8127468391719 8.840032569304748 11.485765429281276 0.8554474165207138 -0.8512686025526758 0.8316549420868063
Ni 0.04936169189123627 4.88943896092612 5.810063420927645 -0.1477816103940745 -0.4178058063708547 0.21247390836613728
Ni 7.980176435139585 8.818593026951575 2.370396035689203 0.6647546085854099 -0.08564987406033636 0.4614505396439988
P 8.552075774334723 1.4878643686480582 3.5339497209620436 0.25631841635491337 0.926256883134108 0.46527582692736
P 1.7260553281981255 3.3740819585081874 1.6039070243238596 -0.010039129403556904 -1.0460561493826437 -0.3552066434823947
P 4.5535648794118995 1.1819657757662514 8.26760766229199 0.33151084252735163 0.38419660295684155 0.41959503706079354
P 8.528751437049404 1.5048365845514773 12.569784393023156 -0.44060454943292504 -0.07774090362590483 -0.30732164687565783
P 6.369111720830616 7.719358874889658 1.3853813626667983 -0.9978880743178492 -0.07457510430341349 -0.6731466893038472
P 1.7307945000707834 3.317338757233649 5.878259469869205 0.5010257308334597 -0.20634105599552208 0.2954405791673557
P 6.819740816867474 3.687157270554708 5.8546650994638005 0.06955014028499634 1.278704732924443 -0.2114146138636875
P 2.357470691981441 8.549982564578348 10.280951951871202 -0.6720413720548103 -0.1263406669114792 0.25151456720836685
