# total energy = -381172.57372801437 ev
CRYSTAL
PRIMVEC
9.16399511165415 0.00000000000000 0.00000000000000
0.00000000000000 9.16399511165415 0.00000000000000
0.00000000000000 0.00000000000000 13.41243315672658
PRIMCOORD
 96 1
Ni 8.383845854698436 6.381302156912234 10.489930783742567 0.6890227371041553 1.1987339115267548 -0.5401167832976504
Ni 8.772307606317977 2.668115496757083 0.16874213988255693 -2.1138247507417143 -0.4151786531606527 -0.07173454953082485
Ni 2.1430735624025177 6.741181407864134 12.955940783714018 0.19071234831932962 -0.9962117150566908 2.132224850515457
Ni 3.539162393506057 4.980842100153527 6.420169409262882 0.30137828480802936 -0.5981185566234151 0.41423325852824794
Ni 1.7205950610303993 3.7736048797453288 5.58284509802428 0.2801070341340789 -1.5034556588857204 1.6518126821672907
Ni 5.0723995750398405 7.27537817330782 2.9272366217581243 0.988578109770833 -0.38448353806964103 1.1333610425478997
Ni 1.8045189280115685 0.24031752348775695 7.623787768012327 -1.3531502536285278 -0.1463693034275802 -0.10754615991279542
Ni 4.799449981456731 0.5680650584759007 11.281907981706476 -0.12089069954050148 -1.6102078621423106 0.311820820297592
Ni 1.3241972896679344 8.084448971302303 5.1838924048323385 0.34703464919456367 0.4484775244230986 2.446070414552562
Ni 3.2176527899717335 8.180386835838867 1.7118425293254729 0.7529758429173483 -0.5841278987712779 -1.0357226286671195
Ni 5.559575881706462 0.9065912844820889 5.161425954483897 0.41171512009208444 -0.47785520625426736 0.6287583929964591
Ni 1.091184386661799 4.137818700372058 1.0137926153766528 0.5247490425923286 0.5631165866269334 0.5674031298174292
Ni -0.08679036464350916 4.91192885712029 12.27809014772981 2.4965990194297327 2.341293075634155 2.612823423842816
Ni 6.993695292409462 1.8893775224913267 6.906920506557595 0.5985553870505176 0.14582474377801985 -0.06973294571976377
Ni 6.327958541527064 5.564973474811061 5.69322908441159 -0.05298709371999261 -0.7031997999354856 -1.3326151097896533
Ni 8.797728528681567 5.324803491644159 8.270978425643305 -0.8337845868352995 1.0781409457323303 1.0446271302456007
Ni 8.536389716870147 8.655530816959924 3.375507187294744 0.41204602106894195 -1.2255417757482183 -1.9513850241148327
Ni 6.7892373980857155 0.27320710184497643 9.82743717072047 -0.2079155995714935 -0.40394653189025914 -0.549323389497583
Ni 3.7032437254887864 2.843945070437765 4.444773130514136 1.2045304636038738 0.2039507013864746 -0.6585893603149625
Ni 8.9663918582064 2.4914153435434003 4.842129455762409 -1.3323124909475699 -0.9867780804476166 1.3660623337045052
Ni 3.776253274324665 2.4839466875497713 12.12843386040913 0.7399892008496933 -0.273041128426233 -1.266671970129625
Ni 3.8687821326899043 0.32763665064762487 6.694024405560311 0.5722825693969177 -1.2682143749160804 -0.6228314859890628
Ni 5.666712148235928 4.0419633117912515 12.980646914461042 -0.5049870294740529 -0.9493356193304425 -0.7115952230880326
Ni 2.7225129715769363 7.492161641019825 10.98826975282126 -0.5691887609629422 3.3454566985480705 -1.2641833993798166
P 2.6327241477418744 5.70222262918723 1.620033960973852 -0.14024802102119072 0.9203649431297053 0.48881659036177755
Ni 6.374814048392615 8.853711374650988 7.412783115600424 0.5271900479336533 -0.9460980862297512 -0.5867355115974541
P 7.097312584826592 7.071268510797275 8.482438528610894 1.0506741077706292 0.16899166881278638 -0.2392869147939234
Ni 4.9813736118684115 1.123569945289387 3.0037413183191193 2.689977344616999 0.20869670071189217 -0.8382472505923435
P 0.11858392918865748 4.659818188358667 4.381332625345187 -0.526687397265622 0.8331006733943974 -0.11006609812117174
P 4.80576397406975 4.6859080823634045 4.269257881864841 1.8769947821287156 0.17511886475644678 0.19800451110536868
P 5.043917878318124 1.1384431093110552 8.285986300392711 1.4159185951050002 1.797064069940344 0.5106565690550045
Ni 0.7447120605180948 2.5553891932262505 9.034306225775458 1.7664430026203772 -0.002925915397543348 -0.4507303250130173
Ni 6.775005713719942 6.251072622770566 12.374914170591016 0.006460153803046939 -0.9674313004898887 0.5021122790294191
Ni 2.7264626534582295 3.2737456038821655 10.026692665034913 0.955185393243 -0.7700829349112801 0.5971158263905135
Ni 5.330182756758589 5.621432848524861 1.4007276454151651 -0.35242291008967047 -0.7122020034340959 -1.0815746540042277
Ni 0.9065637924968364 8.102474549632937 1.21763468923074 -0.3976982369877022 0.22217725169683022 0.07274087930815215
Ni 8.950345702813953 7.8166861989368535 7.1794338939746964 -1.5824183507338683 -0.8053947228386967 -0.33125398932153916
Ni 9.134193772193317 7.326834005705645 12.530900945715866 0.19243755854055244 -0.4165377382917085 -0.11867749393926656
Ni 8.72049437811187 1.4935754108093353 10.785125058993081 -0.32455857957923456 -0.837678522573067 -2.0054604658029976e-05
Ni 8.436163102634174 6.728177698839643 4.718735345554051 1.418279639138009 -0.8438319437689726 0.7526945642315037
Ni 1.0320216343981574 5.769770436952921 6.325437526479399 0.1589509967473327 1.7303758245841747 -0.05973212575331003
Ni 0.43746163333479715 1.278798858020772 1.9290567048064353 0.17667798171345056 0.5102410787841407 -0.1684702490916776
Ni 4.602561547072541 0.7535965537522336 0.390680354829428 1.3834514757152303 0.21505349616785546 0.31677842141318346
Ni 8.493099004092352 0.1915274972599296 5.434757686662018 -0.9514799193669549 0.8226501674850348 1.8981554753667311
Ni 5.9408897171603225 2.4000686405440232 10.126427172734864 -1.018366139666543 0.562563799447257 -0.14509172226673722
Ni 2.0712644969226703 1.0693374223810492 10.643033649614416 0.3245266979000347 -0.9659562586062589 0.33737372906603186
Ni 4.195057013668016 7.028353521817933 5.463500557243635 -0.4616035202820954 0.18768153191280582 -1.9324205671971877
Ni 6.315073964438668 4.34562145290154 7.593609815800524 -1.620245963104603 -0.12387163654569636 -0.04164750033745731
Ni 1.23235573093401 2.8782184120527 11.93929175106962 0.5825615827254225 0.3317360711642802 0.016856152325390325
Ni 6.898233955617275 1.4614281160539366 12.33148508148745 -0.3934978257531094 0.4351201292795861 -1.534336921845609
Ni 2.1607600729150374 5.296211826981433 10.88146705571286 -0.34239663620192 0.02349602623941115 0.5208998440495675
Ni 1.903636698842353 4.773515875368425 8.384513909940074 -0.03742292073314846 -0.1659243427413723 -0.3387634103247069
Ni 6.187272888994316 3.2434036161583553 2.5408376854320376 0.8304650355437633 0.6693399139632472 -0.6348873887123324
Ni 2.8212091986338477 5.391929755635976 4.028719506095555 0.39270464042785275 -1.4142216670185515 -0.08044518993094533
Ni 3.6694744036034828 -0.03761270142361987 9.275327544085682 -0.711688039912155 -0.9745051766175347 -0.31875302864105104
Ni 7.067392140876656 5.379301770409938 3.3399508863680203 -1.671385719203212 -0.5795546775782987 0.398853690748384
P 0.2671432862977566 4.2473925895939235 10.268518582113531 -0.09305002317914943 0.6659342307158079 -1.0336534048429165
Ni 9.31364312393226 0.42122761604312414 12.954384737348722 0.24953173245038315 0.7752017441950843 -1.5587770571658446
P 5.189744532093114 7.971621863825544 13.09366005103801 0.24732315483483858 -0.4785416907983307 -1.363643954071
Ni 4.214915391015493 3.263381125441927 1.6671387285056936 -0.33817077104603044 1.359068933105808 -0.6060933472987755
P 2.430355644297328 2.2716535774290283 0.3019847956079122 -1.1098663018600692 0.4383540628358515 0.6736377700076527
P 2.8740029743139646 7.344291416341059 7.0801951584088005 -1.1074934307525184 0.38073332699858947 0.41086125673222146
P 1.585407805548175 0.19132222377004338 3.300423826371309 0.6023477642134142 -0.3532433491084368 0.5994046224246904
Ni 3.1149152410826866 1.4977450285726495 2.1516354830096924 -4.616778251634565 -1.6822013217614769 0.7985933836461472
Ni 4.359165837635998 4.325268219819516 8.738481467663151 -0.04673828459680338 -0.38625194282397346 -0.7996066554020099
Ni 7.613483771939644 0.14783173589941306 1.069372245562369 -0.931361551350525 -0.9311229529771576 0.6206133952918215
Ni 8.63223594145587 0.7512881433905219 8.418487588915754 -0.07982812517223671 -0.682753616265992 -0.7513169671576867
Ni 7.649122548822126 3.6376295206858633 11.50031622574691 -2.1973138697053063 -1.3336592347834517 -1.48758706728458
Ni 5.399068507806574 7.327777897199318 9.880644242578887 0.21896311563490675 1.752428690619156 0.6036294591393152
Ni 6.534872386533378 3.1358183138697635 4.880422125621277 -0.9019208774919047 1.127773006937161 0.44083877693091816
Ni 2.5043457406072163 9.307228327373316 13.000335757899462 -0.24959703847067982 0.024730927087776765 -0.5491374987390221
Ni 8.117952537330163 4.031543849380508 6.543376573971521 2.8215589482124437 -0.42075177637305605 -2.0360784477991705
Ni 4.775504462301698 2.6986774203629134 6.66681100575825 0.546622188516336 0.3004084646955923 -0.13568791245433404
Ni 5.141074554200889 6.5335985912166725 7.393510317538827 1.2933512791930242 0.382579893289025 2.0795185212606766
Ni 8.581513228664782 3.4173820628320284 2.677724862002382 -1.408525902185355 0.8007729077959693 -0.741856078855103
Ni 1.2375425521516714 7.390193867717852 8.876643355949708 0.34529144125121175 -0.9051165016110669 0.22260276927002307
Ni 6.513236194139564 5.339484211769059 9.658373374610457 -0.5179970685804756 -1.7241601826917663 0.924127238385615
Ni 7.5557231109238865 4.737336422775975 0.7867610519619793 0.24719357123550975 -0.38095881274583426 -0.030525165172050655
Ni 7.7647721667848195 3.1207801979365795 8.837465444165707 -0.3916664289713254 0.03254373826397621 0.9051689521155574
Ni 3.2289245039253083 4.438993398814527 13.357106581718796 -0.10109474786049687 1.210535017926741 -0.7933971841571883
Ni 1.4605025525504316 2.986454357992271 3.4655443553965872 2.5741339776924184 0.00640538930571155 -1.998032805880359
Ni 8.758451645750656 6.223956361316397 2.0961218335885823 2.2175327678553423 0.2634624835988624 0.016845353692112923
Ni 1.7737737245040535 7.1326397858762105 3.299968375815624 -1.0327897712910405 -0.22504840259703823 -2.282256690396289
Ni 6.441867000423758 7.752620709303161 5.136009614117848 -0.22528494408787653 1.6039413124073085 -0.43732202202691134
Ni 4.39792037284711 6.268218457573117 11.808641589553586 0.6562864232133988 -1.439546261826269 0.8459147944399303
Ni 7.227587938943681 8.408946037234077 11.87723225995986 -0.8994446480372703 0.4041085113894201 0.0954393493469324
Ni 2.8048148114282005 2.499415511251913 7.69405544951901 -0.9904182483033652 0.18303709116225897 0.00965320681904789
Ni 3.451820356358479 6.453074566411745 9.022731183584597 -0.41528098306647193 0.24845315467422371 -0.06268529484436301
P 6.450765239650524 1.972146726091886 0.7933747072142516 -0.44235341380323173 1.6288182781546463 2.3229317995181478
Ni 2.222397103851415 1.220754113157404 5.2102068167166395 -1.0444345546188205 0.21573689538812524 0.11759120285362328
P 0.6525286847675297 2.1229036092221776 6.872396987876861 -0.026588806232121953 -0.637719973065121 -0.28745756096187913
Ni 3.756697308814967 8.673987103059517 3.973728204394245 -1.8679779233420861 1.536764043229863 1.3457143661757727
P 6.9210523033769515 7.1714584690529115 1.8298317152331653 -0.01437220956127202 0.36152075862588057 0.03698043387909115
P 0.6916708569707037 8.543464321075154 10.559755844286682 -0.8452308809990282 0.19049329032998805 1.159788126391177
P 4.740635461006289 4.151747972900053 10.794165340143651 -0.04127109083464505 0.3721530415287462 1.6763548902830292
Ni 7.226534079508997 1.4071772651554302 3.5449861123820705 1.2787008762697012 -0.7713666867197103 -0.6781636829024643
