# total energy = -340856.3232537911 ev
CRYSTAL
PRIMVEC
9.40882955339574 0.00000000000000 0.00000000000000

0.00000000000000 9.40882955339574 0.00000000000000

0.00000000000000 0.00000000000000 13.77077311045621

PRIMCOORD
 96 1
Ni 8.611440611629728 7.696450760102914 4.678510362209847 0.431162944404051 -0.3980242528685532 -0.5507300400371224
Ni 4.410878088757335 4.125320113335333 13.921287197035834 0.17677491230263104 -2.027758615079566 -0.5449409441591712
Ni 8.795119781191122 6.955825336929331 13.440067907680119 2.707067467330067 -0.22192194115291455 3.2200974217132545
Ni 5.473294889769728 6.983609610452269 4.6271447393030485 0.03829041093976632 -0.1824377670153632 -1.178663880249757
Ni 4.068537827283545 5.842337409373589 9.145211977292595 -0.5292201909898048 0.5497455646366661 -0.1378808063405948
Ni 6.874090835035066 5.878523767642881 0.4479242643927558 -1.0627274393907375 -1.373591552202015 1.4641666314781108
Ni 9.736068593317254 1.895738012451465 1.679373510078918 -2.134144179025357 0.10296162586590654 2.397186287257349
Ni 4.733158725730311 6.512462473079724 12.199459166472595 -0.30089954539939795 -1.0482660125497687 1.2734589111444714
Ni -0.17206208777379792 8.982920018074916 10.28620285436913 -0.6641794528082303 1.2223034713165788 -0.8806120887117995
Ni 2.9578631397492594 0.7626176212543543 7.853678887281973 -0.4875078988526829 -0.15942716505280285 -0.9810455488392137
Ni 8.739231333942138 5.236267656925213 4.767180112330918 0.5119719454323183 -0.6615967796827187 0.03184774063821612
Ni 2.230118404165551 3.2310861396925703 1.6010591177090652 0.07871715149624509 1.13374953623557 -0.914865867688347
Ni 6.5826993853210825 0.3154611173490593 3.3914793971165045 -2.623270587318069 -0.2559702889868753 1.206824144734057
Ni 4.352806793063609 9.18944382567007 4.581329384920186 -0.9483447161720828 1.099524810724745 0.6125103065687129
Ni 2.2149231445178894 1.9392538489037467 3.6251288601693736 -0.568074444852841 0.27550141704126746 -1.1998603118217144
Ni 5.665855994382139 4.319725348530372 7.280635067272765 -1.62855371163935 -0.8583514775413863 1.111544975114073
Ni 5.7736153186822445 7.755086585566833 10.451769086253922 -0.877206148354044 1.3162492668371202 -0.546716033781723
Ni 7.173649148757823 9.070901982759302 8.603413939180552 -1.0385007056328888 -1.269251043710711 0.3883574192027505
Ni 7.127545884192163 3.089850200020094 0.3601116586394266 -1.4060998092423653 -0.16902586448483145 0.9504810457887952
Ni 1.614677457531991 8.556257826593484 4.92715467684196 -0.04981666641181098 0.8121420688648594 -2.0673898563179427
Ni 4.477624325253008 6.146148514031791 6.632996165196318 -0.10717514972662186 0.5250843144445602 0.9213419623309939
Ni 6.223169192344954 1.7100265357173803 5.583098752720878 1.3937595425094575 -0.8410294413231709 1.4111625684772535
Ni 2.5368650636287495 7.8782387549341655 6.953110889617658 -0.4212469708419197 0.6600921701127341 2.8723189523741306
Ni 4.899497422517315 8.972372720201834 7.533507709883614 0.6211852086348915 -1.1898276101760605 -0.23410099971760973
P 2.278827914503597 4.626123881301952 9.78333573009246 0.9893790084055736 -0.22803371047760726 1.6542961107107768
P 2.5995655034380487 6.9820571535842415 13.100012110009704 0.33588171790153765 1.5093218878585102 -0.9269104575577068
P 9.273558761428644 6.453826647615807 6.703020437890905 0.4210898764387651 0.2658500099944325 -0.9428875497122536
P 2.1602390274453134 5.563073940889226 0.9118689427806035 0.04262709064190723 -0.5558100256631912 1.093802306418671
P 3.2207552448980614 7.122549795725965 5.1673997293765686 1.0561191900456006 -0.054297842111616174 -2.59979770100711
P 8.444509158584022 7.198535502793776 2.052271768013188 1.0113634830964646 -1.1183460571963062 0.6313891457510868
P 6.21294179467498 1.3937205054789343 9.377690041072315 -0.6866431811283852 0.24233084382656975 -0.043786658167647166
P 8.630164182341089 7.416321679304256 11.44926872722606 -1.9236729029115451 -0.5714006810125966 -0.9311252669700029
Ni 2.034537065282614 5.631654899138022 6.1494350181772575 -1.8738757768837597 0.4456593382480132 -0.5656918035532774
Ni 9.082117307527113 8.548222686197754 7.292257794358064 1.5600081013594682 -1.7459541386384059 0.9922807554334009
Ni 0.9966961269325686 0.7889566985656015 6.410377613852996 -0.050709610539725565 1.2308662732849254 -0.29627335948129624
Ni 6.089883713602679 5.6135052670263565 10.370080687624222 0.6089033059437449 -1.7779214355736217 -0.8049468366680008
Ni 1.9200598367172268 2.5631251067721705 9.059474959327671 0.2514898846180185 -2.235897129295143 1.1207924618542697
Ni 1.4005042715507385 2.97906123261996 5.538852791099147 -0.5311328346314853 1.148011445471223 1.3826595759415543
Ni 7.160900184780992 2.96398828775584 8.426817736469163 0.054527698734235124 0.5793135081017701 0.25756745827066607
Ni 5.473567745825322 2.6832476330394748 11.946958172627122 0.17152651941949812 -2.012418899398702 0.2795866428542346
Ni 1.1592430654297843 7.869893123164831 1.286534178895574 -0.24516265684841004 -0.5895105032394299 0.18467694075852711
Ni 3.4599465085283123 4.561758078670588 11.567766348638166 0.36751579986705096 1.9041929398100623 -0.4332910464906473
Ni 1.8207684589699984 1.0062460888783127 11.053978395957136 -0.042110041796172636 -1.2859472734194692 0.22531476888454743
Ni 0.029739428293702214 3.7969237371852804 9.511734812355499 0.041660870073895996 0.27897112075742275 0.9426314678373895
Ni 4.776185303048426 2.033078696709618 7.812296973361016 1.0119640927949412 0.8505651487277481 -0.23599461719589676
Ni 4.83171621477629 2.5837963051906923 4.164681010679004 -0.3547495013403181 0.12335175948648432 -1.7717541304206454
Ni 8.226177269962356 1.8774472478972517 12.280087190017284 0.07649751813710697 -0.3864442613404377 0.29312118700555967
Ni 8.805309543543084 0.48600085650924 3.8047678783420946 1.7074030178380852 -2.5669423450399855 0.7132674685841329
Ni 3.1307974260180034 9.177504021030515 0.7028950759828171 -2.7419917900110775 -0.09236970928267317 -0.20150712494198844
Ni 3.8229861949091335 7.670397711208564 2.7209666896348375 -1.5747351231569977 0.45330065684335485 1.1031765485447194
Ni 4.335983805911894 6.006766113771444 1.2146526032570564 1.066579466146976 1.5983224235586344 -0.5583518182484384
Ni 7.832841152581245 9.210359653655676 1.5737650442032436 1.0495371659527086 -0.3501533973292034 -0.9979600652063649
Ni 8.83312204355453 1.2765147163576203 8.486225085952343 0.775055191314891 1.065103652932398 -0.36732476690216737
Ni 3.992712070317288 8.581915704648699 12.130246875764135 -1.1972300732877188 0.5733392927962061 -1.2884181035574649
Ni 3.0736764221041 8.34629038740016 9.724314142618912 -0.2532413200914865 -0.04115564830270332 -0.5598016633210874
Ni 4.697423991277172 3.5717328118557847 9.934704038256928 0.2854585282539793 -0.6123562974893518 -2.0390748114233337
P 1.2017615659547276 -0.02820578908468125 8.678658230483512 0.8739493319796433 -0.27406571303600546 0.4015770032168181
P 9.087696743422507 3.801891599162968 0.03901653418385356 0.6769506364309696 0.06792211776327012 -0.12684357468982668
P 0.651918978617451 2.729078041549543 11.438347898821704 0.00253176528291822 0.5441521297092886 0.051033312427731466
P 5.840822587823574 6.957848235272517 8.456824375520755 0.7432822697786683 0.5161577013788917 -1.355452162288827
P 5.933631282043101 4.598847684572187 5.27547330858208 -0.021736877456459337 0.24646517770991744 -1.6340679565893599
P 4.224536220446536 1.1075697737982313 12.840749931283234 -0.764812173430644 0.9069173022652316 0.8473235018619988
P 1.2591366082652171 4.020778608725322 3.5748791244416536 -0.5237712520600915 1.0843023373480356 -0.10196480917027602
P 5.777642297709613 4.644442872344675 12.274055189422786 1.2158970535696028 1.168614466433555 0.7489608082206843
Ni 8.879168855143172 2.5411743075412137 4.145153925928071 1.1061281749738756 3.58909854787658 0.28714182949367323
Ni 6.820564003991383 5.314219809359192 3.159152815491786 0.43092228914815467 1.44545825643533 1.1820253405228223
Ni 7.138243723337296 7.421082547032874 6.472331933482692 -1.5232639518608992 -0.1844941353237597 1.222300128882469
Ni 4.028804340291548 1.1077109062407793 10.04274939097393 0.8255231181574557 0.28777226398882055 0.4557676303266086
Ni 1.3013163909280452 7.376898683685865 11.275798137675636 1.9764987884633252 -0.6470613050707049 0.42488893846988113
Ni 8.3976343699991 3.065660099367377 6.3626475626662335 -1.4913933284045475 -1.6485517520278319 -1.1040417247584922
Ni 2.835905891728831 4.1184987119455165 7.7464041177012835 1.8441407117131723 0.07086371689009732 -1.4123416763870191
Ni 7.7793613656850775 5.047103139763454 7.28238416867741 0.2013664855990661 -0.05744435816039784 -0.648971120498908
Ni 7.677708371732548 3.6871603322009947 10.659445475463217 -2.3287512344134025 -1.1449148088237702 0.9003887571180945
Ni 4.23184688097052 1.6835783159838964 1.4854942284531087 0.15765284676119948 0.7596136599488402 0.19068509462581998
Ni 1.3620127500531634 1.6439765526049437 13.667092613879786 -0.8018810532584836 -1.9233414877140553 -1.082109443461775
Ni 1.3142629403244432 6.540641917441796 3.672389410763927 0.15837378408762404 -1.076762834437881 -0.4637516769733497
Ni 2.7243077649914227 2.7529576508286544 12.544981494084364 1.2322389852627358 0.18084008351094016 -0.5268681458178602
Ni 5.27912487531227 8.936986112440312 0.48774148996733135 1.4156092913946976 -0.9232854592106099 1.0948448887505724
Ni 6.254811085964202 0.40626573088440476 11.230217063147402 0.37996533848431335 0.6196829130577521 1.5200829830297562
Ni 8.162498311884725 6.228033557198106 9.102329355065878 -0.24732855415147728 1.2967955289878828 1.718809459902814
Ni 1.0256753218024126 5.549421729280088 8.43331735588997 -0.29310370350406295 1.8529665375349185 -1.351800938689485
Ni 3.394884452513711 4.109136926589836 5.114850475718268 1.4109124001396605 0.023870635970010504 1.034795745977476
Ni 7.912091723486665 5.444278059581872 12.019997975177484 -0.049108327490876715 -0.6030602168994065 -0.24225448206267955
Ni 3.415499197955214 4.815862337063405 2.9550292003028966 -0.22624293712577168 0.25363881264022126 -0.28682172715009313
Ni 1.2402907227703155 4.956646652919728 12.536264213549655 -0.5028591844977727 -0.3976609559918636 0.43100327889773515
Ni 6.783916613076435 7.711213213593428 12.802508684650446 -0.6926199675371104 1.731463915442031 -1.1396661588303212
Ni 0.3044904221483326 9.06027000542069 12.75400805032737 -0.022894645209986377 0.6790077760703145 0.39883337903340993
Ni 8.878256198681363 4.9859739744811895 2.0028904672486134 1.0859609559973813 -0.002861894928827329 0.10639481991717159
P 5.8497327493631 7.425250658502789 2.2211433217024523 0.872201238940285 0.1293506573823966 0.3445735892485808
P 3.1438098372209233 1.5960573839451662 5.465908958609719 1.3485955443783098 -0.36296031928588457 2.300595855025109
P 6.955119674716591 0.5659015775333316 13.585322358433409 1.0112009893766711 1.019182207809935 -2.0149635201974267
P 7.776341131414552 0.1841082121867399 6.078626049102104 -0.8752973613671055 0.8378477011610796 -1.4753735559375236
P 2.577859333774175 0.07012118363846952 2.876273533829344 0.20604152247723223 -1.463583505281131 -1.3678533641666573
P 5.597406759746389 4.076996365006918 2.1111287009704314 -1.7111529717988208 -1.563477033744675 -1.3683719556742886
P 7.645925345670752 1.9857993284560578 2.5981457110660164 -1.0667504445072014 -0.015211931853747996 -1.8484087429609068
P 0.5681305292426387 3.427213190686693 7.5261678819881705 1.4457295078188455 -0.10766160244473717 -0.044256398715214106
