# total energy = -381165.92792547494 ev
CRYSTAL
PRIMVEC
9.28622028713695 0.00000000000000 0.00000000000000

0.00000000000000 9.28622028713695 0.00000000000000

0.00000000000000 0.00000000000000 13.59132205575630

PRIMCOORD
 96 1
Ni 2.852160386737253 5.939085706410748 11.048059473734831 0.6413182319393407 -0.7498568376723924 1.4686827741809094
Ni 6.179162357302749 3.6073436722549945 4.68636902937824 1.2316954540544403 0.2415425435973195 2.6136952849248085
Ni -0.082586999369822 3.4853227387957872 12.48689150468536 -1.4162839488642187 1.3133565186703575 0.5132508121447419
Ni 6.965064459249947 6.158816248839345 7.777266994054312 -0.39326514091701303 -1.928397047860092 1.2220414759044438
Ni 6.572833090342033 7.150696001095423 4.151306307537595 0.37101532837987716 2.3203846076162615 -0.2911769187949953
Ni 7.663156062963488 1.8273702700839585 11.581477605977636 1.850332442346181 0.6888774697755425 0.3583040514607958
Ni 6.5961043581691845 0.8664907067294689 5.805301917821192 0.8384981902608849 0.3440531979687365 -0.9541523239927954
Ni 5.248553085941941 0.579465712360321 7.719190972908659 0.35728486616766203 -0.1330813280694224 -0.0906864080429793
Ni 2.45219359640076 3.229050919870845 6.125907741686168 0.43044149285699423 -0.11644603350558655 -1.058805735738828
Ni 6.253712133087416 2.2099068251005938 9.668852405459713 -0.11719782406994654 -0.13891567536301236 0.938271391096481
Ni 2.7205560740291945 5.244652873456944 7.522565474965591 1.2780922961514245 0.8020052375411736 -1.1157590131954205
Ni 2.8717914562450737 1.0216420880046897 6.96249403349793 1.7843646200958043 -2.126458637455641 -0.9906103097095134
Ni 0.7797871259439342 6.450654291139385 11.770764204094768 -1.7852881603513382 0.3744894029714067 0.7744684655734856
Ni 8.353261517302984 7.94633006181471 9.010611687122646 0.09587926509782842 -1.8869014997194664 -0.7029755997398215
Ni 6.570938701420748 2.6763722383062944 7.531726331195234 -0.87887736540888 0.07097221744350359 -1.0746982385993686
Ni 0.8197364452545514 0.1656865980948151 7.141492428252849 0.5601261365400417 -0.6001026769329795 0.8782533586716359
Ni 2.8392153957751423 8.315698756584377 9.937444252727147 0.8915390200369485 1.0727912513846427 0.5413133747089129
Ni 7.977188171547202 6.383366339552975 5.809529005257313 1.2624926419409546 -2.5593884439521273 -0.6060876908718207
Ni 2.8100288056790776 0.2542390653226428 0.7942197693824653 -0.132694634153965 0.867762486442641 -0.9561179323595986
Ni 2.3299590798768977 4.287540729638558 9.431480830512665 -1.1157566992025754 -0.4590977231411061 1.111035639577822
Ni 3.9711684935638445 4.688073979407396 1.346794445280749 -1.2488231148736622 0.40993668803542305 1.127171111687104
Ni 7.703486117302401 5.399992765002272 11.98418847438393 0.19791169428124625 -1.3259369264385292 0.6121176991159846
Ni 2.4918364704446985 8.057950428647258 12.212237612869815 0.9637492236526111 -0.2556828396534435 0.2925876830995929
Ni 6.479088697399057 8.05764398338058 6.896589728721675 -1.360736807726534 1.1362545620456108 -0.17959669802214231
P 4.425431813423624 8.886160549836475 5.931184990262567 0.8291643144544687 0.018099794924504312 -0.41420549061410605
Ni 1.883403322785089 5.04753427722113 0.32976760871663957 -0.15439988704154053 0.2912861906793499 -1.0472416850503126
P 7.5385164154072095 0.3053225626559077 10.115994123046292 -0.21557028790327393 -0.6037222759634377 0.021029309866473462
Ni 0.30858574043502224 5.024718034183894 7.5172918305126615 -0.07752235985719552 0.4329300636068028 -0.5369833798749913
P 0.886490439179324 7.029297244389775 6.409260035965278 0.6384115998155069 -0.03741546453398072 0.6713600297170695
P 8.073114826237736 8.752243968298027 3.7429410596500743 -0.47720240316161683 0.8135597751479925 -0.9646347115813582
P 1.9842888190636911 3.8476803373126622 11.950115475217377 0.7148170724594398 0.7725141700605921 -1.0614976807486944
Ni 8.624354143670919 3.210441334585285 8.787197301139766 -0.6001330159502826 -0.627018527487217 0.22515664604012836
Ni 5.820742116151681 3.8796620796896417 2.5842269324821676 -0.5077676775429835 -1.3478180427823367 -1.5636796366737842
Ni 5.575799485873636 4.527236645502262 -0.1401234911217172 0.9961376672856458 9.847325107724975e-05 -0.9950086958875252
Ni 1.3394536882107715 7.5749276848207225 0.44339751360098095 0.08107511020546036 -0.14497062330784063 0.1625798517491716
Ni 0.4274307865850174 7.432263483851636 4.255647206353501 0.550480900140794 -0.47815396844160873 -0.7778150134482154
Ni 7.960770134229404 2.534794525100885 3.1821499361167294 -1.2635930740939851 -0.33255162508704017 -0.973338152892627
Ni 1.4527362884595438 9.04089683706865 2.4516977122419528 -0.4016893604249663 0.006065746578105683 1.8866731857587444
Ni 7.968626276520613 0.6452687973363704 7.925384992148253 -2.017288054565545 -0.30544911244329326 1.4911015081957415
Ni 1.6408843959798636 4.441645553896971 2.8827733402564024 0.28232281083847505 0.7582059809680363 -0.5843466996503034
Ni 0.044617502206351134 0.9869487693286166 4.617406772289343 0.9199859625237318 -0.2942421879838803 -0.5253684213438823
Ni 1.6580453309138528 2.35428897680712 -0.1417030771781412 0.9698728200518458 -0.4446069857240988 1.1731033554428443
Ni 0.9011710246972586 2.1257550976266715 2.387233700219086 -0.48366050008213474 -1.0476875143384796 0.20955956293281972
Ni 3.5359790699997427 4.1892553750166215 4.045701554152147 2.0570193117168962 -0.5715174090961189 0.3262236259864833
Ni 5.0362236610146365 4.4818920322540645 9.091955261607369 0.7688578042549274 0.8341789940602407 -1.6623770879466981
Ni 3.39524640283275 0.8505555528621935 11.868363307043747 -1.7936663571127043 0.003853055197503042 -0.017258529970131567
Ni 6.420929100271582 9.07632376714071 2.064562620981101 1.236328067730445 -0.05310973534078595 1.7168543930589721
Ni 4.144180062154293 2.4921522019315794 8.420897702146984 -0.9643431484828683 0.7070399996171823 -0.6898406050197603
Ni 4.598712682399942 2.1266001436650876 5.860183479217229 -0.03343025463398759 0.14322870091606946 -0.8807118475144574
Ni -0.08435788156241492 5.061705049249954 9.97675096559976 -0.25599985667323005 0.42296806729808445 0.5574637592165302
Ni 8.40036122616943 8.551067293833775 5.9960158079834285 0.745095154617691 0.8069157874689136 -0.8765433179590647
Ni 1.856659008602249 5.243055643582136 5.251278591571339 -1.0859594133354846 1.5925040171046445 -0.23160291588610438
Ni 4.385278197268555 0.6248864726141775 9.787396578075152 -0.4569747632608323 0.5187925678985775 0.1643143179417751
Ni 5.905172430231675 7.052419932693688 13.317660908162352 0.6698567056986658 -1.712011206034058 0.5023976714803219
Ni 8.698783198592954 2.2290085800568793 6.663580820025701 1.6226432596921863 1.360867162656811 -2.2084002094264545
Ni 0.6425813652098031 0.3327828444163507 12.782271311370584 -0.2797416803748602 0.2642942354715384 1.1947037073214393
P 3.5414486536989416 6.733577562045143 0.4323144097894464 -0.21497944839681038 0.3663089240431433 -0.26355555753330095
Ni 2.845817898339031 1.352120092566811 3.9945437670572628 -0.3244565067837315 -0.2360504101344967 1.4002472071163303
P 4.965583383935171 1.6743797922498302 1.567799985743132 0.7352848533954884 -0.579515339699931 0.04957703959717913
Ni 5.672645476364205 0.6357318491885313 11.699124729721524 0.7104677943518086 -0.7488049993691104 0.22475092596127744
P 8.803113882566636 6.164480843162794 0.19182637934248048 -0.48289508267101994 -0.26232502756030945 -1.325728667082465
P 3.8382919686880603 6.316867716683768 9.29418127895449 0.14051155909522253 0.8273231474806719 -1.5064365958909152
P 5.289496030814212 5.635779182160777 4.0790548712530175 -1.7379649497853424 -2.3422754941520822 -0.18637052641086613
Ni 0.3741065243169195 3.306126547550557 4.399592905710516 0.6138971596139104 0.9055201648073888 1.7003756786776587
Ni 5.951278513536467 8.044531840454827 9.306902472009725 -0.4312421343814186 -0.33788872102923745 0.47181465648714227
Ni 4.844602507138629 7.673175894561849 11.447046567839974 -0.9557595205789152 0.199496779380179 -0.6887067485256333
Ni 1.3597440793529607 7.059746760433362 9.136345251418762 -2.255462195911264 -2.302400255223699 -1.0462536101054305
Ni 2.4980303793196827 8.345767537599668 5.285108291768591 -0.9191999762873266 0.04017065868161469 -1.2546320082459554
Ni 9.28687023778916 4.026458648648785 1.2788833883187603 -1.9320336161714147 -0.28926118982952115 0.037704199418993126
Ni 7.455098299329276 9.37778233357041 13.277389357010714 0.13066654798034272 -0.4443051382129638 0.8906077664719306
Ni 4.910163221767396 6.466190137537957 6.319040692211124 -0.7725887320522694 1.1081076672977497 -1.4427164320241348
Ni 5.7040979041896485 1.432111593390069 3.7101727744219537 -0.8289090039105531 0.4377310845398719 -0.5829608750463702
Ni 4.276397265395708 8.658592437557076 3.398265353020542 -0.1800183589405932 1.1592942174738938 1.0345527767287346
Ni 6.74873267341542 5.555351228988006 1.4984978529948279 2.381514899268679 1.1895057080602676 -0.5129142547409296
Ni 5.4743289577222844 5.225448970078433 11.180656483382524 -0.19050691717674287 0.7414719560428068 1.0275349506500047
Ni 8.693750067243267 8.303403801036433 1.5991549082564513 -1.2049246137184992 0.9449367189317984 -0.3111111958250771
Ni 8.172300944219304 5.313426620275734 3.4533920706299206 -0.5710132157661908 -1.3856806221560651 1.0950575189820106
Ni 4.95858157390258 8.90259715959468 0.4803919576432024 -1.1459813024150716 1.0186430474770134 -1.373867431571221
Ni 3.9408211259424832 3.3725601668783476 10.821682783507393 -0.9122837087834674 -0.7768457075564105 0.603273104241161
Ni 6.746373973484016 2.3696205263612415 0.22764797377314203 -0.2857416067120369 0.47533783914905237 1.1321670222397986
Ni 0.3236860631061042 6.2945343570970556 2.091595736612235 1.198354159589833 -0.744429496009234 1.2548891185620838
Ni 1.7234203211385726 2.4549330313604605 8.09482786631493 -3.2024719953220075 3.2682145889354555 -0.6328618736418713
Ni 0.44103045607139557 8.938144810529371 10.592083774869733 0.6170950977259179 0.31580885841106254 -0.10909550667778631
Ni 3.0153007032525774 7.742980411823103 7.5079415353908905 0.43416650711706517 -0.09951274808535765 0.3260912141736771
Ni 4.961506733266328 6.881014880198251 2.1326956186059265 0.9559284420566119 -0.2843904920007812 -0.07227216720184973
Ni 2.72702856951025 7.025387745684575 2.68065690030767 -1.2641679727608486 -0.9746936384792567 -0.08828756879349957
Ni 4.227496029810001 2.5616409877059514 13.124990411403475 -1.647684261821214 -0.32439094365311877 2.9470753194504145
Ni 3.071408045715327 2.476068468541066 2.0869749134395335 1.322773183998567 1.1321351405605984 -0.9991134620845179
P 7.656497843078385 4.261205009144622 6.613578238723993 -0.0432878641543577 0.3283234459383055 -0.5790067754946285
Ni 0.64593183345882 2.3167262160885134 10.695065171048013 0.8316636838375547 -0.10746439883226654 -0.8221932824532744
P 8.729121279994112 1.6809451499329096 0.8555134658282415 0.32268141716117976 -0.09651381335803377 -0.8319184801608382
Ni 4.99740726056871 4.306391756649379 6.720813652376979 -0.2158610796708153 -0.6524197411691409 -0.14234141321510968
P 7.022908324890541 5.4504076544809665 9.691251697209863 1.1472311156617725 0.05661312050835412 1.7483614625283177
P 5.746294488789241 2.882424178376793 11.848615231161377 2.0480510467800146 0.9941172944215072 -1.1178251516958295
P 2.0258539406895215 1.1743261205721391 9.48573650066706 1.501685711469491 -3.610186221784815 2.5782307734696115
Ni 7.4841641685627085 7.576339190291483 11.674279447570072 0.3085174669559719 1.9810049038637947 -1.354334503744616
