# total energy = -340862.37357342656 ev
CRYSTAL
PRIMVEC
9.37811837822112 0.00000000000000 0.00000000000000

0.00000000000000 9.37811837822112 0.00000000000000

0.00000000000000 0.00000000000000 13.72582420125980

PRIMCOORD
 96 1
Ni 7.29609153687799 1.3559445944118131 4.679050759649969 -0.6270450098497782 0.4538727272967409 -0.39502480392059713
Ni 8.117849141938889 4.165403724725352 4.067098538770541 0.31311357096708653 0.014085531558788644 1.3115127805933995
Ni 1.5601624957847793 4.8405063177697905 6.593377888303505 0.8153063255254539 0.10342725264841542 0.25800968801440727
Ni 8.578614844099826 7.599323609939777 6.116542780650165 -0.017141287665976928 -1.052503447669884 -0.33129024187611333
Ni 5.2778829932029465 7.0002400428197165 9.327836456326443 -1.1726906933854577 -0.07902105588990907 -0.08413292319517769
Ni 4.405849296607308 1.166759816472943 7.822772280441849 0.1862129177870793 1.6161789921240812 0.8422324604923366
Ni 1.7331043730450135 1.6030673864341785 3.627172890817494 1.1874120587560324 1.0444242702061755 1.9437105382887108
Ni 1.0136995497431405 5.714650090954744 1.1897765319091878 -0.04330611898680284 -0.4368078013946542 0.7891522928379054
Ni 3.662164525351054 2.4180352339365716 2.624075303670888 1.9182180504445607 0.20923046172817517 -1.299107464950511
Ni 1.2214811360225046 8.097573650445119 9.91063492123608 -0.45049532618407573 0.18037471383874742 0.3422809365596622
Ni 1.7002903375516258 0.2918498510331149 12.701122118482136 -0.6783739991410576 -0.8959674881219472 0.1524067678709117
Ni 1.4789855048642984 0.9029242800513877 1.486589283080371 -0.07097324588476808 -0.6727160295243317 -0.7926543924538929
Ni 6.352793520272563 0.33779043853567503 0.8029619806151009 0.29878352749765963 0.392013270787783 -0.7194689694091545
Ni 2.59502845824829 5.521423344082563 3.419693279943356 0.250727038310065 -0.5476519153324311 0.39645228039574304
Ni 5.25337797041237 9.334688109464901 10.04549132277691 -0.12452289697645005 0.004882782013598042 -1.064685848668689
Ni 3.4713760892043046 6.388721090999962 7.705128476998922 1.3471528983945122 1.3857371864256136 -0.4766858685365145
Ni 0.09167391859345857 6.029764239743916 11.415877281365992 0.8380821857693889 0.5935610191597197 -0.504971345744769
Ni 4.071087990242072 7.403827358469313 2.5648759326928916 -0.718038407610215 -0.5489932598516739 0.46703009061430534
Ni 4.73673744016638 1.5806911964692678 5.478992048400989 1.0546863142538159 0.09631480997335026 -0.427941866363592
Ni 6.689974381126881 6.887665112250232 11.428093218100399 0.28982194742899764 2.5265379730810102 -0.2711629375669136
Ni 8.558639452387647 1.5760490279727755 7.808058013025693 0.21497482041112007 1.6247029704346923 2.276549612709182
Ni -0.21547539442991429 3.2683116963668306 6.395300778711353 -1.0875426986622045 1.348305781052033 -1.7214654094684223
Ni 1.6815153449658122 1.9634590897709578 6.959006332829055 0.7894551687903049 -1.2229495895410099 -0.5255774520308948
Ni 6.221574890771711 5.706303565779232 1.1347532369543998 -0.6355350495986604 -1.1702152352617716 -1.5487204442607907
P 1.8405119605002203 9.192337653690643 5.403074306152898 0.18339601716357445 0.7320563191558619 -0.35582550801331625
P 3.6606171358522235 4.962909516186395 1.6957156915059919 -0.22680678004904165 -1.0500922671252302 -0.5948635400212271
P 1.0115238263266026 1.2386618485186138 9.248267812672928 0.5784820133394103 -1.2389940445983822 -0.4321811012559202
P 3.9214788710005712 3.362646187086461 6.883789136008616 -0.08613401278560649 -0.7080704977642257 0.2875316087329242
P 8.990004754070798 3.9520515362501976 10.561677952103244 -0.30037581168544397 1.3311837766597654 -0.33073565492422397
P 0.9165563126301782 3.783282921577719 4.201049014095692 1.2710029934048113 0.38814273208878314 1.0436092305040479
P 8.87403494472206 0.6461917303353746 5.9991456217152335 0.06003525881602564 -0.6486944697987538 -0.6355227083034862
P 6.2421411039288985 5.09996133519193 10.40075694671938 -0.8683970347028465 -0.4805402092855982 -0.6523073839609927
Ni 9.017585799622685 1.7306191717287096 0.032599276587186206 -0.24045599540136003 -0.7293535755127182 1.0692174179904552
Ni 4.367183315372888 2.967724252630318 11.91725398647079 -1.0767718332989455 0.010184396732169556 0.7831325690063867
Ni 9.0634166631426 8.309566011784938 12.211110754793296 -0.42996275344836277 0.14451939470303496 0.0077498191487479435
Ni 0.7122793291127115 3.3080749174276947 8.654022416719211 -1.6738498644729884 1.4729217519629212 0.6974464423914762
Ni 3.972570858816511 4.604112092939319 10.324948928453935 2.179940411423865 0.5427151401524459 0.17469309007293785
Ni 6.877283535430805 6.210330527080208 4.798932182089386 0.18056266147983743 -1.3174929094362342 -1.123125995083453
Ni 7.442399558521985 3.8100480708484046 8.330874971901563 0.6123763520940099 -0.22669467995120957 0.8685369027148202
Ni 2.9702469664193205 1.1943689963793542 10.801578655319247 -0.03654051812819513 -0.5613055015601236 -0.6959660011912079
Ni 3.3274032189858174 6.048389182438934 13.720841482281637 -1.0440483749239955 -0.41165804160190395 -0.7019170765683201
Ni 2.455997856307887 8.740256088959509 7.632189225083126 -1.5137534412673026 0.8602304397316539 0.46354007518317586
Ni 6.993975459878996 1.512174665084675 10.051365776001562 -0.11027692858039717 1.3706491817442394 -0.6976081647803212
Ni 8.275082671256447 5.884084552017628 2.4808742525781815 -0.10416798746918188 -0.2781139149634501 -0.1616478268532055
Ni 0.8365093849497526 6.101994505925703 4.67437014086896 -2.7559431099848473 -0.5551597936737019 -0.7130808064946235
Ni 9.371375307764453 2.8880665168541437 2.401868296015151 -0.42754514514580555 -0.12402667406632188 -0.5655336807088582
Ni 7.702436019270957 5.23960151481369 12.564838367355113 -0.5738645691720569 -0.8342250168068278 0.3491133861004632
Ni 0.48201182888579236 3.976228324904657 12.828937428897378 -0.2624906066038963 0.4122951609652706 2.098400188656528
Ni 6.224191385742461 7.786051320916868 2.1385935710604445 1.609970292210208 0.059210191811568995 0.6837681735734353
Ni 5.283678670234931 4.892808082830272 8.241917894143324 -0.35842206509589886 -1.7226193205672076 0.20038123886766138
Ni 8.322507814866068 5.705393888316284 9.127645518897706 0.25662540607237094 1.7324311644513068 0.2397186030147033
Ni 9.114414869776795 8.270018487442092 1.5882283900463 1.7754750309156582 1.8569476336698538 2.0857231074094913
Ni 5.389135609109792 0.562149724312513 3.002002212370781 0.9697033843535171 0.7049008417869925 0.24384085271319295
Ni 6.3697960485233525 8.34447136763129 5.358643595676469 -0.7853830556034603 2.2487228203049012 -0.9172227979562977
Ni 4.883486233364588 5.154335664369026 5.833516801007654 -0.29280262732387635 -1.9575273895671448 0.4137802301512293
Ni 9.260497816584595 0.3484636748303376 3.758350256598376 -0.32835147096276357 -1.8760589005780077 0.15983108535944085
P 8.06214311998098 0.8014933673089379 11.727454003979656 -1.848633200266887 -1.1821690651895382 1.465666870172721
P 5.46255689629977 7.601527467710839 13.290262066901528 1.0863386510517743 -0.9555443192443155 1.2762189903881116
P 4.765115625763119 2.3606599069435603 9.801542085944874 1.702739808034461 -1.2342146209318678 1.0380582187788314
P 2.2502231873179155 2.3732640977704005 12.556644705505848 -0.18671968222016874 1.1065593489740233 0.9956926093284272
P 8.438890261414492 7.468911498601953 3.928921345584038 0.8129092860481871 0.8392360968681739 -0.7623218029086226
P 5.207669022428727 2.3672808583749214 0.6697270557066822 1.7745399206958987 0.586649636751867 0.037601355292541695
P 6.203371963394557 3.3038922767217644 4.326200938949309 -1.989061455619684 -0.12506539974348138 1.303429746474949
P 1.0164379602501623 7.084727509455878 13.398572767136962 0.5953142544054005 0.7572477308198249 -1.0601272827637291
Ni 6.219005286391835 6.695451202140924 7.086780379524327 1.0896535743576201 0.5396881804006641 0.9318392623178919
Ni 0.25800047129323694 2.096009412052621 11.525958570312815 1.0472020900616286 -0.3151935934245669 -2.37248672762814
Ni 4.120641966677356 8.476918530613032 11.849600241958273 -0.1224690997712149 0.43038518569776196 0.4582726561366495
Ni 3.8077129194228965 1.0406147489046218 13.639433789654058 -1.247643235632948 1.052904796873361 0.10203165785246945
Ni 1.7745556553773294 4.022021675951874 10.897302045340554 0.33844433642239136 -1.500118109872055 0.5773224458136702
Ni 3.3919809407370227 8.244716324606665 0.28032414379636916 -0.8534015897352786 -0.03815748490632784 1.5258479105379916
Ni 6.9449841705341955 2.8122819438841336 2.3668260196434465 -1.5303594252550998 0.49589895112985566 -1.219498911988248
Ni 3.4710197207136644 3.398526867222986 4.729273395911112 -1.2284545785196392 0.753928693748921 0.26657094732085707
Ni 1.8213149525965435 7.9783308778533994 3.1611123031351034 -0.7871211213404896 0.6374674907346828 0.22944164656872745
Ni 7.113312013652461 3.0102352623163786 13.104195513255757 -1.6382372574757011 -0.9652209231021311 0.0037743794407676928
Ni 5.0887544839731245 5.144422993458334 12.517841803746078 1.0183815662855107 0.5834270160495113 -0.48457375592502355
Ni 6.640561076464217 2.4556414878172474 6.798977186483609 -1.4583132580211273 -0.3543419814892543 -1.3430288489238096
Ni 3.8064468734693073 9.115887234330227 4.416969869138906 -0.607731911343463 -1.0482148475968591 0.6014013411397449
Ni 4.531684886275864 8.482292192327153 6.983932433125675 1.5070829712256626 -0.694994638416874 -1.3637470553077675
Ni 9.285959407428994 8.819379271999722 7.899088592712366 0.7302593751564391 -0.8864307522761057 1.274369852994515
Ni 7.853245537638823 7.1478141104173005 0.4107793944777973 -1.6848606137611948 -0.8411050317561126 -3.224226356279963
Ni 2.468977171861716 6.240096674166808 11.36925115342486 0.18283448823314966 0.3552367253893818 0.7117222355842
Ni 1.9837627156192528 3.4251044541301767 1.3113722743509466 0.5313331235677495 0.18479855393805594 -1.059087014424673
Ni 6.731894569367933 0.20189869274835465 7.862275727629273 -0.6532147262666105 -1.4222933882830924 -0.2729868781495299
Ni 2.6688811388743052 7.0784723046333315 5.571545634479237 -0.08145409081143391 0.8671150826666292 0.3516004141883751
Ni 5.657593619979674 1.1480223363598283 12.253866533363718 1.9607057872951266 -1.2152848739069004 -0.7742530071285698
Ni 5.170934933538301 5.1063384555507465 3.129830652151467 0.6464668660198156 -0.6333562967797866 2.03664100517086
Ni 2.2956226574017937 5.214496292459931 9.027090522392776 -2.7855629897338092 0.3654211221215513 -0.5379490862223703
Ni 2.919314406612351 2.8230198891942018 8.973875328622077 -0.024548635873641592 0.2449394850940104 -1.328751513069189
P 8.243000128980688 4.252873432941079 0.6931442167889882 0.8697710322322375 0.746320799494676 1.624216260606261
P 3.413710040547877 0.2403602310065659 2.1709865290477866 -0.36688253715842617 -1.0751808346627418 0.12223744337638302
P 1.227351837999887 6.905249083827856 7.703481679447439 -0.5202447269640718 -0.6257419747676385 -0.018945173643935116
P 8.021263902857322 0.9978411519096686 2.1006553317963834 0.8924443054600372 -1.1233910758193815 -0.4248992228825263
P 3.2702154543563013 7.715527872242882 10.10108105606945 1.166826521295197 0.15728775011229687 -1.6391679968200865
P 4.640217847912038 6.882516525372305 4.773058891857118 0.6952270661426543 1.9081082157040687 -1.5714379404629646
P 7.8562559135729115 5.278586352066051 6.518928759361577 0.6119174101797203 -0.7355306508577074 0.7571073485872187
P 7.23082921250003 7.895090700934478 9.24318956168131 0.2950142902632145 0.2456208274317512 -0.14249927894921263
