# total energy = -340894.80356655805 ev
CRYSTAL
PRIMVEC
9.05259192498784 0.00000000000000 0.00000000000000
0.00000000000000 9.05259192498784 0.00000000000000
0.00000000000000 0.00000000000000 13.24938333223935
PRIMCOORD
 96 1
Ni 6.377324495553885 1.934565991232268 11.364048705224288 0.6646211683313392 -0.7738449730568737 1.5140524605649601
Ni 4.7430239164271235 0.634910756741216 6.138425696916436 -0.8324542980596502 -2.0299769628871234 -2.265680274094846
Ni 2.8289258348927837 1.7255959658156586 4.83496475289995 0.16477120297353556 -0.039393671306274095 -0.009229231907751849
Ni 3.3697095542801256 4.481168650649925 4.846730406254393 1.0675698550847033 -0.6712559000390376 0.08371434760052035
Ni 4.9645136760817845 4.338264439021673 2.780860194321304 1.1063004388856819 1.0294200834878595 -0.25758802709595635
Ni 7.125910456036284 5.938101801775144 2.677567407931981 -0.33170418948508035 0.20569262377824574 0.1895908331203767
Ni 5.055084855439486 4.612594176078722 11.370699644302158 0.05117498021191831 0.5425775861333172 0.18791190275605701
Ni 5.526226987340691 7.817818140260954 12.351604979818088 0.620680243974015 0.015130427883535231 0.628884119941046
Ni 1.8504312045305713 6.443435572300442 0.4895523875193724 -0.4153637725882653 0.021603951423020858 -0.19314049814484802
Ni 2.7584423563841316 1.5519944159363346 0.4470631433981024 0.1252024395419779 -0.4626311902156613 -0.7449606859223558
Ni 0.5165779946012796 9.197885735771354 4.66266949199427 -0.22968101627304316 0.1763707348856769 0.36571062833751206
Ni 8.587713901463795 2.3813204412554483 1.2339669137740816 0.7907893142206962 -0.2308308136067702 0.682159948546051
Ni 6.927070280664778 0.6375613555733934 4.753268734386055 -0.09576176568335766 0.5392870883075035 -0.13344591049769275
Ni 0.9323173604068264 7.548322487139637 2.7172892747889184 0.21307991738125237 -0.5013003246510851 -0.4287445647705455
Ni 7.42078052352438 3.794257997010508 4.073006304047017 0.6718014881298624 0.2035339255640301 -0.5848370090231605
Ni 7.7309223131090725 3.9301736078927196 12.734604742698593 -0.9033825496390957 -0.37855894505508997 -0.4989156264689923
Ni 8.037841380069942 8.929349657363874 6.984279944051771 -0.3721478993224236 0.1658999172613401 -0.4452862711793105
Ni 6.95396553042707 0.7342475605838811 0.3270330203256753 -1.1777750498869006 -0.7640945785383293 -0.2183509359722046
Ni 1.8048242478485022 6.46377674571541 9.271295011898038 0.4764912360272052 0.03148701486468771 -0.8200919198395553
Ni -0.0844353327441431 4.98711799740674 1.495604012092757 0.696901882741916 -1.0850500141473378 -0.18644457418191115
Ni 6.284797956401955 1.9555317934703924 7.128618086195792 1.0287559675412992 0.7669719000861243 0.5826040059275838
Ni 3.2643011772245463 3.920876596278491 0.3385442958550359 0.67094891032158 1.5692478747901812 -0.002001089590428812
Ni 5.726361683316709 5.5787501240356825 4.865955395120155 0.7708871759801305 0.26823650794873805 0.14107385935659575
Ni 5.513173150195883 2.6471769525375044 9.36410761294579 -1.7725604283720249 0.6718657657088944 -0.9154492509956428
P 0.22476046101417443 5.488495785385379 12.528920808047287 0.2586396082889223 0.5696677574818899 -0.625630903111071
P 3.8626503268503316 5.887416341183062 12.693438987475083 0.2845545283824712 1.4395390627374176 0.3355143072597899
P 2.3151188385924923 8.627572462454495 1.2609834682643488 1.4110512397103698 -1.0401079022190085 1.0165797371900815
P 6.434066139953093 7.825467580196712 5.665767255915539 -0.41497347912838206 -0.6640077031170565 0.8178434901250108
P 4.891694628930025 0.9737872827094382 12.71027861844372 -1.1646279709819813 -0.4642687258190843 -1.6486363413218383
P 4.091472685733351 6.314028774807354 8.176750683007485 0.6001638691882181 -0.5990621514836071 0.48895363016027404
P 4.717676659835263 1.092041287302107 3.711655814073455 0.4868972618518776 0.07014175112240822 0.1389565559032768
P 0.26295334514312413 5.590364599109738 3.5789502521867695 0.08524235420927255 -0.31463592114888395 0.45421879778224994
Ni 1.4909890008747102 1.0799379722794937 2.6854639836195093 -0.5923492582398057 0.6681379232353462 -0.8243172707748126
Ni 2.0514168441207445 6.527651832326897 4.721125697250085 -1.4178271249816226 0.39757045316058626 -0.17064128860106742
Ni 6.179570631179174 5.694722875535084 9.156039225656523 -0.42881886965190663 0.2704545986459794 0.9593636929904059
Ni 8.775093495819123 2.5012944382597078 10.461275382893602 -0.18017545334374777 0.10703913836938986 -0.7115504858930262
Ni 2.450654240625826 5.477107625102322 7.03567422256926 -0.6086068577492487 -0.8148098455050096 0.04581088768652756
Ni 0.6481248247580513 -0.16785224892879178 8.764201417557935 2.234569411622655 1.0792969137136446 0.4586909746209907
Ni 1.4264078121153059 0.9835188187223846 11.416582705029246 0.5852301306965212 0.1301690395186339 -0.3162631723396617
Ni 4.100126963341144 6.9963407118936765 1.4178431551647492 -0.12391868773354787 0.3752890160545666 0.6981655799456878
Ni 5.7252029515867955 8.060454753986537 7.843290322617445 -0.7185117477022078 -0.23222872239556133 0.2351268698789628
Ni 5.301559768020409 2.779371948255696 4.975766047490242 -0.32148791107371083 0.6475079056898203 -0.41067536597366044
Ni 0.7885902681985019 7.286105117696842 6.6127670147032 -0.1411481642379569 0.5399956843387538 0.9394227310921046
Ni 5.166413627427592 4.509983049839887 7.37277825109438 -0.6132214737031245 0.22597965616205598 -0.21280352379141412
Ni 8.289494375068916 7.321754223574965 9.078596114695074 -1.4069696134418286 -2.0537792075130437 0.19569026114989524
Ni 4.543015956734066 0.2506028943687401 10.456942812534722 0.4490732490255685 0.6500702671003579 -0.22103568189321932
Ni 8.305924828895426 7.223805182030704 4.6251609837933 -0.7007472246299351 -0.17592516270782604 0.21009923748637363
Ni 7.104845075290119 6.17857484609878 6.9556348283254765 1.0070782254575494 -0.4724713162345347 -0.17315248505869532
Ni 2.4534967544007706 5.278258397139177 2.698289695454991 -0.5723126513039046 -0.7958168493422746 -1.2295907490066116
Ni 2.225489128765346 5.290189712920632 11.438271809339403 0.010451534350627161 -0.6150006770907344 0.09450115380337917
Ni 1.0452484411152045 3.253682487230885 3.968269629291122 -0.3051056130609455 0.9432714154142335 -0.41399928814057085
Ni 3.444665013058913 2.6814953274445554 2.754851193280563 0.48992345027271106 -0.27644372634987874 -0.24128337639866188
Ni 1.268032721374378 3.4360469458176803 8.30185116265745 -0.47369284734646167 0.3188291332946251 -0.4065898830503772
Ni 3.694896751170415 2.769468413001591 7.038244253335842 -0.7018479138932816 0.12935220004429338 0.08756328903296531
Ni 3.996728261629633 7.051624889038853 5.904627128408936 1.224559100119975 0.9670145246674442 0.5381869132647892
Ni 0.8351739995185214 7.460910662264278 11.249613989044512 -0.33910331016262885 -0.24254398827864032 0.7873859449661019
P 0.20316278787958136 5.484413066555762 8.042759653107927 -0.20749291021177813 1.0281386456722745 -0.08896813980029195
P 8.769055417195275 1.6837367820725289 8.294855319838096 -1.0372285237886847 0.1602226643709047 -0.7017031607853011
P 2.011359126113965 3.26362223285155 10.428906936225797 -0.8987867027382972 -0.3254106431668847 0.6233948146917005
P 4.063183336858508 6.41110876755418 3.741784649569537 -0.206982803344579 -1.2498592694476605 -0.8824429712729512
P 6.8535360787734625 3.83751127986619 10.51562442732237 1.5759350570023698 1.9724960950618349 -0.16440584921431686
P 6.3740474573802235 7.6568811660859195 10.141050816740334 -1.0148925792956458 0.21404433817705076 0.2931240152190371
P 2.4561763215261956 8.820347401427235 5.66012296502803 0.026108524161593743 -1.5997061912800383 0.784108816876727
P 6.871143369513166 3.8586943443036734 1.6336225400129292 0.106655529777726 1.1779360009447972 0.021103100527202365
Ni 5.304465649936832 2.684428367135899 0.6602353818539767 -0.48228933076622105 1.0641811411181286 -0.1833253118266391
Ni 1.2927462965514418 1.3034917228280627 6.7087588859349045 0.7751765473841037 0.3556378174825423 1.4370132109917702
Ni 6.885247307288209 0.6354294702421851 9.258337132224613 0.8041127708024797 -0.1124112013145806 -0.23708065117122396
Ni 2.7346974085125426 1.544263502675817 9.126056136885843 -0.590114712482332 -0.2909540041509118 0.5376999463260418
Ni 6.529190772905689 1.8517800406849236 2.567505093514303 -0.3122782195499848 0.13285892764597118 0.49724132409036303
Ni 4.072272138865017 6.936204345629488 10.442912200751964 0.2816180714619666 -1.0557648920299751 -0.5536168746666142
Ni 8.001259857252903 7.043731029128815 0.2785283290596584 0.44465609379447935 0.4088799646361346 0.22174890591016
Ni 7.653513601995859 3.6969878998392436 8.37115870951207 0.545190598276132 0.19136617985324464 -0.33009622156801216
Ni 3.137610157223444 8.160739364173905 12.436122691146156 -0.44117764832757567 0.6679193794666368 0.053357846795850046
Ni 0.09127275520979743 4.920699132544426 10.253034996363175 -0.3533171397691657 -0.04576152250583086 -0.10941123814599221
Ni 8.320544764393945 2.2075649973182445 5.944203248540471 0.428659718366223 1.3479841360465559 -0.4556444744851831
Ni 3.859110763519111 2.660185526724112 11.44203497168413 -0.7284539465165841 -1.2608162826797962 0.206594823877541
Ni 1.0436461323949335 3.243163375745263 12.687092215476316 0.17555852339702668 -0.02765838514721688 -0.6660293615327755
Ni 3.0523437965667535 8.23067968718416 7.8958243224224045 -0.13840145473075519 0.7908435644973993 -0.06505173819401056
Ni 5.635283558827171 8.029531100944467 3.5260450961245726 0.09351462152039378 -0.43985687263362316 0.07359808510212486
Ni 3.187725304542208 8.440355814748687 3.5032425230427022 -0.29896967536653674 0.39314995549538745 -0.016385897557191137
Ni 3.5806439920826043 4.379354152475406 9.366042151779249 0.12387960696549632 0.3737244997809241 -0.3758893686427269
Ni 7.210841870802295 6.032067702997827 11.489904171017022 0.16591302988746262 -0.13232362396779146 -0.5484013919039459
Ni 0.52377933125086 8.94089171170481 0.2662982777540857 -0.281037002147516 0.1045233139260716 -0.9607585164554036
Ni 4.702178622947669 0.3838326013113786 1.5468923752880586 -0.25280320411280327 -0.5826294598488804 0.4194672532336776
Ni 5.798709995703191 5.575219613296102 0.46421689929664395 0.6054526283909831 -0.692971180228942 -0.08543004474004642
Ni 7.815129520543889 8.65033973042897 11.413999095375205 0.32032525822417734 -0.1836911798064901 0.3400510187878789
Ni 9.09332830232993 4.988503043927653 5.856836686623311 0.13137437268064472 -0.7582679445542231 -0.3557776854945163
Ni 8.1763279269779 8.893112133029152 2.1216767236158898 -0.7535003479622507 0.28214797582350765 1.8764941883432136
P 8.460099517115417 1.8013480526587613 3.5334510213452166 0.5247752678445736 -1.1263064496939634 0.6065255497401877
P 1.71988378049085 3.2233472526454117 1.6713302052299772 -1.2272502737988928 0.05180284360390434 -0.5550122123522442
P 4.557409577441586 1.0744702069289638 8.144607645871515 0.6352033772908544 -0.7228463705218195 1.5376960681258292
P 8.476484707983726 1.4518818049901256 12.32933288860632 0.958813991134523 1.0789048204815483 0.15873913784684276
P 6.34927051406168 7.729084637006162 1.4477067497257807 -0.3237751644459908 -0.2815201124315216 -0.2551488215268444
P 1.8901177662801127 3.5094544114260366 6.018876266460091 -0.8176843388393272 -0.7547411623478872 0.4315115859927214
P 6.827881034065844 4.00828842115385 6.20253977194722 1.000258888542871 -0.11007869652666204 -0.7328209652360282
P 2.4473228869023247 8.517556316254181 10.11110755937287 -0.24787877022799246 -0.0817993899659946 0.6364917570849747
