# total energy = -381172.16063308436 ev
CRYSTAL
PRIMVEC
9.18899022238287 0.00000000000000 0.00000000000000
0.00000000000000 9.18899022238287 0.00000000000000
0.00000000000000 0.00000000000000 13.44901602781868
PRIMCOORD
 96 1
Ni 0.40100110180079096 7.1820136930559935 1.9297320576511252 0.8413228041938736 -3.9348335044231133 0.5801378037752783
Ni 1.0771885699289292 1.5308030731495594 12.515640864564592 0.5731760277454645 -0.4596507674310987 -0.11041088305510018
Ni 6.034042331304751 4.663384980066041 2.649321883382059 -0.60224312031475 -0.7071107049541177 -1.2582773183080267
Ni 0.6129295404137427 2.984528896162086 10.429752025666003 -0.2820101646940627 -0.5885998184997023 -0.36544271938810613
Ni 2.1777539310296055 8.119272319603098 6.619242255869837 1.795916586599462 -0.7179029104736152 -2.2602719585950815
Ni 2.793793025740722 6.887717902624572 2.0042933622603187 -0.6170945835052857 -0.007813582507147834 0.3384019132202301
Ni 1.2176055297934985 8.317276681304671 3.962349563428658 -2.1640970166337055 0.8162913151465426 -0.8693786818898254
Ni 8.667570178261496 1.2988729594801844 3.54147543243481 -0.4713767976187752 0.6368313998125806 -0.10774953417285313
Ni 2.315267169978187 0.9747037617770061 4.869014365869154 0.072122786108179 0.06139280128518458 1.9061102114374333
Ni 3.8681697646560687 2.457907865480949 2.9866634985949463 0.5232338914993827 0.6464126157431125 -0.3332802757229486
Ni 8.97056794245064 7.140442701208124 5.611830283331892 -0.13283784460004863 -0.23640933613581216 0.70782315764011
Ni 4.188893091019072 1.8272123313362882 7.156664944578643 -0.6415498883341726 -0.4390078943697665 0.23864825276865997
Ni 6.965420004097957 6.662688720625788 1.7733869021037316 0.610743187365961 0.053219007225140606 -1.2107044536250697
Ni 9.168269067474277 5.588753053241983 12.109224690815093 -0.5300259747205517 0.7562411439321814 1.398071282510934
Ni 5.63751902444814 0.9436082188032674 3.1251342303265846 0.929601888346941 0.2830689449758802 0.8877024198996777
Ni 5.611100677506798 1.2019291124432625 8.85278806004346 1.541248304253462 -0.5666873346973271 -0.19715990371688627
Ni 8.72496461130345 3.1578148741168035 12.777371792482825 -0.5702598825399341 1.0125474761022366 0.9164149573430217
Ni 5.1163194980088775 6.342369709833365 -0.035034863089826736 0.7330091699874344 0.5140105731289019 -0.1975985339162016
Ni 6.271642051952495 7.258741761563889 5.039117277604575 -0.012967873014577667 0.7454885334013678 -1.189352984532487
Ni 2.9185611352257763 9.24513497083578 12.518573071350325 0.7571415442592638 -1.4047723486801935 -0.789627432702111
Ni 6.232331551703778 9.001222413892837 1.2537145858424354 0.571753436366325 0.25255997775374567 0.16242892799360414
Ni 9.094702011609103 0.35215426748051903 5.673898236810146 -0.4154666167147167 -1.1617897302022377 0.7637757617463298
Ni 3.017030354642616 7.182859080158116 4.312009938957915 1.0417526369112833 -1.8625528956717727 0.7101497488907577
Ni 3.9308019221350885 1.1521431633204147 0.8301912689622613 1.0820315390359883 -1.4377161505960658 0.9384225719623646
P 8.932856326503765 5.68894061383379 8.067486846203925 0.32298275045168245 -0.2262133694394169 -1.422762871720343
Ni 0.13901471995387385 2.56921410426372 6.06226539592932 0.6967082786738711 0.8444911746195263 -0.344304137637278
P 0.9858775739094133 6.0421745876675645 4.053021924626462 0.2503930520094139 0.9069530405991735 0.772569962999192
Ni 3.288592583219123 -0.13339381462378047 3.027158459685658 0.8740637460703204 1.6228710594322762 -0.332983056197504
P 4.279441400848629 8.037867055062806 1.0527339102019757 -0.18853153861792693 0.6846495477371242 -1.1009566580752652
P 0.25921682018844056 1.767704430539027 1.3203678454506835 0.9162015557806349 1.9133668929998464 -0.2700797318050639
P 2.2550884728933718 1.6751712988175291 9.966796913865938 -1.5922291661767032 0.245730356426422 0.0028454398685950994
Ni 0.9357240651769472 5.386117440459215 9.890729533756334 0.11199905347782646 -0.7105027613548022 0.4488253946808206
Ni 6.798713343155414 6.742458344903278 6.981639490771405 1.9605728612616882 -0.3029515428324202 2.0382332893586446
Ni 8.529156418269348 1.393648204820356 7.896831676155053 0.8884878919154504 0.7300143490251686 0.17169749777972365
Ni 7.653978609786836 2.0188487228012177 10.882621301778132 0.2021553000489486 0.10013469794007271 -0.40842282249405787
Ni 2.606530593630255 6.107453174335839 8.327993800622128 -0.387888449986132 1.885988500986894 0.6810042376750529
Ni 6.035236900036011 1.842925504647486 13.019131369012426 -1.329983071483445 1.1130848087973668 -0.9740917432291999
Ni 7.924337080641841 0.8023918167877777 12.973283821106644 1.1898412370228153 -1.142203066319562 -0.9438350012271874
Ni 8.057402848314037 4.685374233711478 6.17288337934308 0.3053843206436289 0.7140927926989057 0.6418910737236752
Ni 4.543532980359637 0.22501356071537604 5.143132052631535 -0.4599443874121176 -1.075216830107 -0.9815044907535032
Ni 2.6186784387281516 6.7640800389390945 13.066768013318029 0.3536267005897845 -0.6173061852954593 -0.830746314229608
Ni 6.713081143104506 2.6060160101767886 7.002445202473869 0.09012873576729638 -0.2229357271294096 -0.42136164204291304
Ni 1.8633618189422836 4.117310857045838 11.966584914211357 1.257980098782582 0.9541911476505308 0.8792149512539568
Ni 4.986175829233151 6.0473112332119845 8.088695954577947 -0.5038842833281774 -3.4675943831217957 -0.5904389285909702
Ni 0.1524159433205702 0.24991572426704034 9.864879985310877 0.5818594144520753 2.62200071946671 0.7526804231641167
Ni 7.162735191531495 6.078461910127166 9.26186628426562 0.10067180139046532 -0.522742810795577 -1.49609716163812
Ni 5.136912025137764 7.556180186657551 3.061050212389571 -0.25611324232264276 0.020382677421410058 -0.4302702573864525
Ni 0.5023225837882711 7.807627715597676 7.9182833738714224 -1.35729821435863 -0.5747881094275907 1.480661029588708
Ni 7.497572806903856 4.28733474346519 10.955999064444352 -0.6002191479061857 0.21866872432293952 0.5338160378906033
Ni 8.032179070103957 3.5396266075984286 8.828028325840522 -0.6603176558599789 0.5848802035562701 -0.4563345585736722
Ni 8.898066809453358 7.271606347900542 10.365842598543558 -0.9034293437166312 0.4658193581356558 0.4461995270221993
Ni 1.566419599321608 5.335256379478233 6.152830245941311 -0.5460179792734339 0.18616509526827937 -0.403878140546169
Ni 5.851751142914376 8.406841769178499 12.490746971104146 1.9906915350239394 1.6762440757367778 0.14199354295738773
Ni 7.088322748564197 3.496263762653667 4.252525010636255 -0.35153279417523325 -1.1740518353990426 0.7251009708839512
Ni 4.295430243867041 7.611157915266261 11.27366429485533 -1.13184949099938 -1.489578900903628 -0.556807356579454
Ni 3.7646833565679345 4.881017024921252 1.0942846862713174 -0.016857952097603227 -1.3492385772789472 -0.0007379066072890517
P 2.415206627833501 2.7988194034022573 6.085760725075169 -0.682335812002283 0.12854641631354635 0.29946718382824555
Ni 4.831341343681289 4.134834261434407 12.377896063061952 -0.21322467048923277 0.3080420699814502 -0.08272884375879946
P 5.433716409904832 3.7745615210764365 8.415789088975641 -0.13891696091459302 -0.30990509133211785 0.7162080392696955
Ni 6.743221031093236 4.451826857759781 0.27192703148905384 0.2827074478714034 -0.014340070771755949 -0.021258138047827904
P 1.2966492238419915 5.208053187579456 0.4575115539816121 0.30333309454155505 -0.7819987125122597 0.807718485875867
P 5.015056825558937 2.952689044978869 1.0446577066796296 0.36706637103445816 1.9860632922233088 0.8511271918788051
P 3.4493080225248827 8.730367737564844 8.294801330075515 0.3830663460071403 0.07944940167657931 -0.09891265260751353
Ni 1.9923660529281935 8.119060972827569 10.165317696819026 1.2001575313471589 -0.47981464397348333 -0.071860790696044
Ni 3.3703194624178323 3.5414644056465217 9.578322243560951 -1.0498508405383855 -0.08539739172989809 1.6964966553382266
Ni 9.256069869221935 3.9528463097219677 4.145699323494735 1.3397841167342668 0.31229184639673957 0.2953367065996398
Ni 3.9218977905920767 0.5270951825775448 10.356992682042966 0.6652986540143381 0.24024387939055397 0.1111315632712086
Ni 8.03596493408303 5.9649962586378855 3.7607614955333037 -0.9172487660982267 -1.2563654459972944 0.1486257035619247
Ni 4.146660491873888 6.503875402299805 6.116773567136743 -0.7829438500343484 0.8405180489043912 -0.16798893857988487
Ni 0.8475308935460215 8.200411103426418 12.505379519163062 -1.7338560698232914 -0.08515313692957592 -0.19236556765203644
Ni 3.4099699553054457 2.28105655931293 12.318344055111535 0.34765814171117543 0.26098085482758926 -1.2449152951788236
Ni 7.349391150286091 2.3688665500508286 1.864154828800036 -0.7972942052187494 0.09668504882857543 -0.8436576229746373
Ni 5.319056189684291 2.6706238005575083 10.545911889093789 0.4617819548414886 0.7341378842752389 0.5902561231562029
Ni 8.743820419276888 9.014436181858626 1.4136664200592124 -1.6552337920336977 1.580406462510162 0.973560553316078
Ni 1.898702675407118 9.122379250213388 1.2047914829031676 -0.4645931990380386 0.3939559963364505 -0.1281322115942632
Ni 2.3267442187885297 2.8624623498077284 1.1195112211784701 -1.2968502934852182 0.125010635246146 -1.2778539548883734
Ni 5.7859212168316745 8.947659789781156 6.903259241818273 0.6066870150187165 0.06596910780195736 0.501790376913626
Ni 1.5637547921518724 2.3600083634590185 3.3121292628210544 -0.4849576216270035 0.1830139512338074 -0.698999388700893
Ni 7.594829079608952 8.76829988927749 8.55444819500721 -1.7865258894131812 -1.8852680778811017 0.7685212468511151
Ni 4.94875826097397 5.353680304910369 10.2531267686579 0.08268539211537372 -0.5570958343541502 0.9491502427925139
Ni 3.3250728744737756 4.19497620255826 7.463034149287013 1.262447133415 -0.3413154873225993 -2.2722070194697706
Ni 6.832878008869468 6.420687473652862 11.398283542698488 -0.5979552915726734 1.1802541075550126 2.6224979708181024
Ni 1.831558723720029 1.0142439867817337 7.539719948439803 -0.4681258947816454 0.9369097348622638 0.8483974516524678
Ni 7.856246662959985 8.258513088716889 3.596495430398628 -0.47402914763995785 0.8850454418928048 -0.11208544254404568
Ni 5.309968278336469 7.762289237751214 9.095394861473233 0.5782513853858429 3.5387110965629636 1.5364627099393604
Ni 5.387955238507309 4.576705235127721 6.260490293396664 1.5099816329296962 -0.27889578743479715 -0.7929169020866602
Ni 5.139778990092789 2.493662226506604 5.191629705322669 -0.3213778678584078 -0.19053519931151702 -1.545310133027661
Ni 3.260143469434639 4.2383482364932625 4.537469165699953 0.4863053939041496 0.06776759446327685 0.9270341276197648
P 6.918749122666628 1.0261896740943401 5.000559355656553 -0.23279565064262486 0.10083275244836182 0.4971125118219826
Ni 8.753634260853705 4.376357680914829 1.8108154971511998 0.213956920669567 0.3381183205415403 -0.7232428346292898
P 7.192654543754454 9.228778568207748 10.892156716950662 -0.21884613044106827 -1.9607227565759913 -0.6451890277486565
Ni 1.900751820230742 4.717783802289604 2.7242728011774484 -0.05623311146111605 -0.12557113573530632 -1.4109301407514734
P 5.061470415263533 5.674320930361207 4.196012720657386 -0.7250230664581643 -0.17215952501780674 0.824518073931709
P 2.868655729229803 6.151753296285127 10.699163111627218 -0.39131521627949384 -1.4877084233537927 0.017770693719859718
P 8.190248080220462 7.399167910418699 13.567501820693723 -0.6206056819823377 -0.6696960117510853 -1.419551306761581
Ni 1.165559089071496 3.7188211062777663 8.141227573984645 -0.4218059286691832 -0.56863237423884 -0.6430311008653893
