# total energy = -340862.40615062317 ev
CRYSTAL
PRIMVEC
9.30423974372920 0.00000000000000 0.00000000000000
0.00000000000000 9.30423974372920 0.00000000000000
0.00000000000000 0.00000000000000 13.61769535191721
PRIMCOORD
 96 1
Ni 7.631653782732808 3.8273641486497993 7.426478548731209 1.3803211576163648 -1.1481505421522484 -1.2394005360081817
Ni 3.9217463566197712 7.905040259150559 12.35470824845915 -0.9619257972906272 0.5471207254193093 -0.08634792856862548
Ni 7.077586305937481 3.633966221317009 9.6953220625898 1.4221437500791057 -0.23572773668775532 3.5871941317650156
Ni 9.629795093339986 0.8452752940200274 8.951088020925006 -1.0255060931454338 0.632863159193452 0.9504699900452017
Ni 9.77652295411349 5.73525433373364 6.700995341423858 -0.30920215172782234 0.06444470073763095 -1.118289750037074
Ni 0.2627005570709937 9.732048688133949 6.8714620394819255 -0.1310442430347356 -0.8080768976565503 -1.3420896249389918
Ni 4.85104451807805 6.313066230357375 3.2495634171137584 -0.16563149409130182 0.8794106122045305 -0.20818068030742212
Ni 7.864520295062505 5.781635968860839 2.6215560774914817 0.26856638048433096 0.004168529555392821 1.1816820982507907
Ni 0.7596725666731302 3.643168114424492 7.6709837345575185 -0.0427193932453974 0.14580134673925213 0.2521995090905334
Ni 7.212441956796783 6.455058233100842 7.119902918720231 0.15895253940922946 -1.1964199186815976 -0.5811793576659152
Ni 5.771996776485357 7.612728959092142 8.4714460882713 -0.738167317149606 -2.3492041029511155 0.7218143297128794
Ni 5.698577020660135 0.40241116022906726 1.8087972405311403 3.359820166358594 -3.316934422738662 -0.4647464367864512
Ni 4.337255095137416 4.801741351671024 0.21565832092192277 -0.3431839079899057 -0.9874010587435963 0.9415960845943396
Ni 5.034961425111018 5.857651607574825 10.165814205878593 1.9866734150034817 -0.8718425700492856 -0.3147552203355676
Ni 3.843079009578554 2.62207432364526 7.033253464402058 -2.629060454526969 -1.3277708943234745 -0.8439980370331917
Ni 0.9368438998912096 6.526775313052789 10.586328625378872 -0.6452227092000694 -2.0510533239414483 0.896125096745734
Ni 3.008684093515948 5.582311240810692 11.685398458186292 1.2973663138896883 -2.0301775089337037 -2.125810719458997
Ni 5.469376378789841 1.3733988287113064 3.827675840681246 -0.3743557056070198 2.1213228588909727 1.5693702593006587
Ni 4.29804702885336 9.56661930547365 9.388611521102524 1.9565421428357403 1.0258740180078139 1.2568894368215644
Ni 6.211436019626302 4.165498829450737 3.677377012693734 -0.1516292662749389 -0.8711969660454867 -1.5713520656173778
Ni 5.060566692888361 5.714654746938932 5.703894393674218 -0.9163329391521767 -1.2253245175310896 0.658440493441924
Ni 0.056866582895472084 7.857644461891192 1.3476149195308662 1.5989459160752462 -0.5225798028551516 0.37694454938011857
Ni 8.83575266505003 2.320607651678083 5.59202486710413 0.12424341806281827 0.5506747613191549 0.5456168871802732
Ni 2.35307014414725 7.120739369873277 7.555097567689657 -0.15226664274862162 -0.9113467987914949 -0.6675825649525083
P 2.682105278477896 3.734210100326125 1.054592775555955 -1.5906535941594668 0.0743295639515107 0.9646897331890095
P 6.099180367106813 4.960192554522819 1.4515376949350265 0.5138154263989603 -0.6721095062885845 1.0208590812917258
P 5.044088884300544 6.122440966468497 12.451788685955078 1.1418618809300591 0.5078579232639447 -2.0527695353016067
P 1.536074156407184 8.432990734982589 10.36949331812925 0.5156457947394797 2.766284086899539 -0.7522225096910916
P 4.12348088276379 8.453329803064445 7.522496442048295 -2.941242771929038 -3.5799508199390413 0.05153519176481446
P 1.2304112723151588 1.2674700592181949 0.0032174061037082164 -1.2589887425527544 1.1424884587704645 -2.089339621116156
P 1.7297884278912936 2.0052962709708306 6.61651098369427 -0.337617983866354 -0.22990110270364922 1.251388304497677
P 3.633277707575903 2.7916813099509197 4.589803796222996 3.0993489041775724 1.769848171647184 0.4685526979064188
Ni 4.979070856964762 7.366966770476327 0.8406027048202523 0.7209393833070938 -0.538998353422491 0.6654511204318023
Ni 8.065566307465417 3.374461670598311 1.584201266910484 -0.7611378099028504 0.3325030312372919 0.6429064023620669
Ni 2.1980335972817495 2.453825756342323 9.079107846843897 0.6225448079865795 0.12256063104375668 -1.2210618855999937
Ni 5.14391407252115 3.8428557078246817 11.401551225023603 -0.9839539807352602 -0.6824036891257409 -0.056617748494044426
Ni 1.1939944779545053 1.5198661707719623 11.121912299497431 0.8357476240989413 -2.2952718717090344 1.325076635320763
Ni 1.4359605367544934 8.703325420764086 12.430899737304312 0.2618815122649877 0.810529472962101 1.0722952855848307
Ni 6.617221827610763 9.513399054134116 8.946308432968166 2.4780636796297064 1.6746661897266966 -0.040087097828872896
Ni 2.6754434428207094 2.6739547644615618 12.758064719446276 -0.05766007371562972 1.258429784725491 0.3343380275635016
Ni 3.90137937581868 7.729599514524989 5.435435442625245 1.0829201122885286 0.1039378737362468 1.251854445500818
Ni 8.583524029811667 0.95894146928481 1.5099031908533653 0.07428405542555594 0.28817772695735533 1.0351945240777913
Ni 9.024535689469461 4.676068985439714 4.46129363686956 -1.9485385558049735 0.6362372178720075 -0.3696516152631311
Ni 3.559848647510937 0.7784094446709544 11.561382246629535 0.4782295588745506 -0.7317894386477204 0.3105913187658651
Ni 3.1493269814964377 2.158006757900163 2.5659548712012854 -1.8305424042034475 -2.0787749582264325 -0.3618316049980801
Ni 8.499115966847985 5.501457397429475 9.054433003041023 0.34264886142204215 0.4058491482296107 0.3553863635933686
Ni 6.871897477901976 0.02675620223375858 5.3229257843607245 -1.7136024617805778 1.0866772653381156 -0.8362268777282049
Ni 0.6693842241908152 2.7428061385721483 3.110526440913199 0.38173400034896193 -1.6885200648906533 -0.23549479474134283
Ni 7.713456658567981 0.7843836970110095 12.966783007942649 -0.3768105949054155 -0.43277374053459655 1.0547045690862609
Ni 1.6454361903660806 0.4582840503198082 1.7918979498828893 0.29487725046471797 -0.9770109737585239 2.0020545254452426
Ni 2.4170647051111165 1.2095511668076002 4.696170795408081 -1.527776495019272 -2.239560437079343 0.45551797620964773
Ni 0.8355951629896688 4.659032922467216 2.0482371982404497 0.2563161023620682 1.0142672870068208 -1.0458460902543665
Ni 2.7206248310208454 6.118784400248841 1.825275049118958 0.6631972914006191 -0.5669907248703591 -0.3519014903685617
Ni 5.4290518037364235 2.3705621148672367 8.722692195792625 -0.5903589672826542 0.3257004064931617 0.5600973401846354
Ni 3.771203757550948 4.705451774553394 7.672454734861152 -0.12927738094229993 1.7209910409351654 1.4391839933908441
Ni 3.4168890038340236 7.2397778131666355 9.791259009021106 -1.8617743656345358 1.0790580582299611 -0.31195580321355953
P 9.192523738059549 5.568568878707808 12.680076581906421 1.7442158157910606 -0.8516761224037397 -1.3573912882930685
P 2.5629830970268364 5.453726647539298 5.989075854816291 1.0433168960746098 0.7653533906460949 0.744239491485615
P 7.334681058562309 8.178566299164482 0.9034342358160348 -1.0828815457411092 2.266289111323439 -0.0980140520526441
P 2.0966266883045495 4.946989838325128 9.573199263821081 0.4281987195694045 -0.08870280195404724 -0.6301953825533018
P 9.12512382534913 7.318594028043767 7.978675873337858 0.2647871159475569 0.6974492706049537 -0.5636788868883066
P 5.533073204081877 1.0505789265301027 12.69954942526805 -1.6114731020079796 -0.3629901440825555 2.974400232517613
P 0.05355241269841926 6.989344896198993 3.8882473718430477 0.28852174056033536 -0.1481683043095319 -0.022137712439303812
P 5.245069767025243 8.608766432238966 3.5819573819922312 -0.21524324358115832 -2.124689718480676 1.0542895930360294
Ni 8.986853518503532 2.764950229164472 12.954677261610852 0.6220627261438384 0.5065826560959469 -0.042807324973513375
Ni 5.723400732298925 3.028985944638826 5.89077004894599 -0.1383842283395746 -1.2116981849969068 -0.5484589846147587
Ni 0.1389448642270869 0.33875992571177904 4.0389127868765 0.31880445070427677 0.8761939050394459 -0.236142969848303
Ni 1.4985036363181912 8.252088401626894 5.540550091140697 0.4791926941187682 -0.8491654401667439 -0.4497782455123931
Ni 7.79463615034026 6.185858664568194 0.4562408392718778 -1.2341035492753003 -1.1666560571556035 -0.7184227875328272
Ni 6.993308502330225 5.189514151509795 11.914175757148206 1.0979525811416189 1.1678876155698596 -0.8257648018546166
Ni 2.8447433892147944 8.213085028617222 3.575911487006142 -0.06332601375215546 0.5873574614521692 -2.5224141807206233
Ni 1.975820439459704 5.889397673583652 3.9756858256915693 -0.32310179252805 0.45222979237667926 0.6745055173245867
Ni 6.426029005097461 8.07260031271239 12.289384111635771 -2.4369288572626098 0.2757562133645509 1.5157126218762025
Ni 3.9361400155047814 0.7410380353124975 0.5926363418089241 -1.9810545261548076 -0.6002330318632566 -1.8545824758717868
Ni 1.6155137553472094 3.674355926048638 5.045669674633164 1.6306674155482435 -0.6644699874654556 1.2416939600280485
Ni 6.539159256152949 3.3136212469078883 13.23885107358858 -0.08995724318643862 -1.0059004030993643 0.898764077030478
Ni 6.7603861645620595 6.823980643216906 4.65983960005308 -0.4930200869201638 -0.697959634582469 0.05439760091427406
Ni 5.121286161462103 2.427922752893151 1.7030833989761307 1.627412141835739 3.840094266467 -1.2864419536677005
Ni 7.750906223540293 8.262685930696078 3.1946162988776123 -0.8675061474574607 0.9644840449361065 -1.626020146584219
Ni 6.498146167358428 1.3877180536783595 11.02310220383297 -0.23055082047250616 1.7027382653725645 -2.3911549934616043
Ni 5.130599705446521 0.7017192485754802 7.0665896249832505 2.5638421088481067 2.1713462419969507 -1.8161395985145559
Ni 8.48672271950808 7.984954374317564 5.6408172307491755 1.6837871781913585 -1.5757530228985508 1.193321996482564
Ni 0.7147107585309683 3.617386066092 10.768437718629452 -0.588622958428154 3.498910676736574 -0.17387187972322315
Ni 8.604970302423139 7.687311744885447 12.149108741125195 1.010344812023963 -2.2618133349402725 1.194731218125265
Ni 8.476199624356854 0.08611353010887984 10.81367586269203 -0.00154754699277798 -0.714665120262608 -1.1096001926828762
Ni 2.354261086834568 -0.03176653533626545 8.559293928668588 -1.3368427747177556 0.35754429047663583 -1.1835011537374005
Ni 3.733586716263232 4.2550149200342435 2.9497017265025374 0.7108231208086984 1.3796171895708047 0.6650921944304868
Ni 1.973857244873578 6.607824545468643 13.225682783077941 -2.2369901052490055 0.1420295384016457 1.5257553508241852
P 7.43547388771636 1.273917897361254 6.985591565885993 -0.6546825690613886 0.34352560760004064 0.968861348068196
P 8.498306497990198 2.1396867098428998 10.29868154070446 0.15292947314360114 0.56646467716356 0.16552119376568267
P 7.076990834593821 7.546696769624192 10.398703978807653 0.6885972195309624 -0.19781656346427867 -1.734592947989316
P 6.999523734479667 4.6464908072913955 5.563808829654433 1.443389289721443 2.248514818059154 -0.16069754712479423
P 7.977976194509058 2.3055533917712006 3.6581079321825145 -1.1456768838007754 -0.5529419600867768 -1.4381810060476263
P 3.520770840583307 2.676476213432368 10.63415334809047 0.7618996277695395 0.08848014442027988 0.15549080611287414
P 2.8538615441645754 8.039244613227735 1.1346017939683544 -0.028457998230376796 1.3023372847417183 -0.5581317318178324
P 5.979397584633882 4.659442309015982 8.366820842766417 -2.6218418252913427 2.3493018048712444 -0.5899357637023065
