# total energy = -381167.06399367645 ev
CRYSTAL
PRIMVEC
9.23980231617811 0.00000000000000 0.00000000000000
0.00000000000000 9.23980231617811 0.00000000000000
0.00000000000000 0.00000000000000 13.52338466325512
PRIMCOORD
 96 1
Ni 0.719488626493549 6.253008531235133 8.456307779752153 -0.8727936211086452 -1.888978436853153 -2.637064555778368
Ni 1.292768468320807 8.401114744303928 7.310809749389398 -0.42824371387472693 1.1724055580448711 -0.1313481474283996
Ni 8.468750097617118 3.2945346915297264 2.5101022661519674 -0.1141747209729066 1.7517910570351574 -0.7911577533037084
Ni 2.218374910056065 2.2207033402520926 0.4998354247670734 -1.0822282284278264 0.09390311520806409 0.09210848520148653
Ni 7.0077525476333 0.9853602436309408 8.735605753706402 -0.09243090153791178 0.5809826682740769 2.3781608951947817
Ni 1.5102826557997409 3.122988520817611 11.17590131298936 0.7331410675796083 1.5565826206176872 0.27815608105529516
Ni 2.235274508581997 8.841058694120077 11.722732220546263 0.23951985674033588 -0.5289060021834955 0.1277573447533477
Ni 3.1111523339878033 9.237852766890791 9.445583851625463 -1.325896303008581 0.6008691227853586 -0.6792481742158947
Ni 1.9862433552354002 4.424950592491783 1.4257837391898434 0.1974769207366728 0.266378885914709 -0.43003320167498194
Ni 5.670383553295721 5.751740013121219 12.51344493959164 0.2162544584544921 -0.3788471657194701 0.18620263337443418
Ni 6.2824835007800885 0.6877591451714871 11.314515904091703 -0.8647658657081623 0.24330014971837455 -0.6905461157272171
Ni 6.692231776466797 6.770844014989832 4.616599801209841 0.215910444851512 0.08340864343464345 0.6024678347310464
Ni 0.03212771680400161 3.601018935983073 0.4443956865956978 0.026130121428148544 -0.5007267115358022 -0.005507560081790515
Ni 7.98458445368117 8.930749455678976 0.46152720416099624 1.0152620468199225 0.2860966760586105 0.5895513837796943
Ni 3.7637041362269708 7.240604807038449 10.158983448360349 -0.22446913305480054 -0.947669287371613 0.6495097666111975
Ni 1.1506972671536477 6.325217586719091 6.182810056745839 -1.3102976772393757 -1.1186525326931314 0.1715054363735756
Ni 4.3346407641744165 3.648881112234757 12.913939553209612 -0.4116518709543169 0.12731434367865815 0.8717980899645954
Ni 1.9427608453048169 2.3613423720526474 3.0722693976746114 -0.22772954897362718 0.4244911888108302 -0.13357652253828609
Ni 3.1140351523257426 8.96282080968855 0.42128971282106753 0.8676822680240089 0.8394929500739865 0.8816976084664945
Ni 7.125707864627313 7.6796617358275405 12.266034447579898 0.9513066270138842 0.8868043335654405 -5.397285467202963
Ni 5.17727378067027 7.9408339894819955 8.24227330184395 0.7167906512460429 0.10429088620029135 3.975924360926152
Ni 4.625297227176194 8.383956431311772 11.979771510602768 0.9421298456106225 -0.05229006765296801 0.04969762433544345
Ni 5.616949776217829 3.3723245876422596 8.03917874993613 -0.06695281187146533 0.0755904329418053 0.4953091400646567
Ni 6.69188066397692 8.174185198214866 2.6986321175915373 1.020789918616687 -1.1858166892444544 -1.3457845572920757
P 7.973459731633482 6.798156870781334 6.523275522357645 0.5509688955208059 -2.714693873527073 -1.9981616181487394
Ni 4.094692336552802 2.075204172407448 3.8166371160166706 0.4626147351554291 -0.3792045490588889 -0.572299281567466
P 4.704824206133382 5.2292661485791925 7.246694760777346 -0.43183348810851435 0.7981439548135544 -0.5056123217628776
Ni 5.919978334586595 0.6316291937634319 4.0416660347592135 0.06276988413836931 -1.0241287531819332 1.8129426888438132
P 6.377163755616189 7.842522492316376 10.113679773383588 -0.33274960003045917 0.4924223054351649 0.02471164381406712
P 3.1813009135443244 0.018593254299471524 2.861345037242531 0.5458752830479825 0.640471053447697 0.5348969296596078
P 1.792761893708325 5.1895257586065116 12.601238769724965 0.30978630636606647 -0.6923633714416141 -0.007811011403986548
Ni 4.820423373524273 1.2809877203051898 8.55235090543712 -1.8085936678464984 0.07015486374853079 0.407421120702421
Ni 6.697128871720348 3.4677625062723054 0.9939726634155343 -0.9810375784194137 1.0248129237331511 -0.27374818179558663
Ni 6.837259714390817 4.459766167803818 10.269752971054956 2.3993041049313 -1.3044062514556052 2.1056830954711865
Ni 9.153290095644573 1.034340435968812 7.9996638111411595 0.4150285007360336 -0.45861229886425536 1.003318758415117
Ni 0.40176323848271184 1.6331997466638615 12.564441256805596 -0.061475590806978 -1.3268409263100376 0.49893285286017297
Ni 0.8694312152956132 6.667635422570661 0.4450480166426802 -0.346415527553326 -1.5060254764954255 -1.9732805386363435
Ni 0.8381526363289726 7.084027116157942 4.1262822968591495 0.23628052386743176 0.5806810778732581 0.6340060145486436
Ni 3.7675940930227156 5.0538485006760645 11.225139295813221 -1.5886712736221156 -0.08987136834085167 -0.3996062526436925
Ni 2.333179454443549 7.407281601904109 1.949341432549305 -0.8283356479055862 -0.011751226998657181 1.412617041535593
Ni 7.71708293540656 6.002055498996577 0.46795533466645883 0.9250548924062069 -0.25546506721568263 -0.7390592328362562
Ni 8.670833815146185 2.5149078873621025 4.522274354784563 2.0393969706494426 -1.8416164026294217 0.7200320410014761
Ni 6.789323619720212 1.317457220240594 2.1319079155423815 0.9433331218901043 1.4766555079737407 -1.0039767037140905
Ni 0.1801290231291395 8.362307574370131 2.3335407307160274 -0.723151303356748 -0.7447334004028981 0.6443608754204064
Ni 2.8522253523080883 7.621608057567053 5.494469728005582 -1.0249144823080218 -0.4631207282575701 -1.456054029673305
Ni 6.467122471443677 4.410360944557148 6.07080979237619 0.31230444480222985 1.4906124843744653 -0.1836040194093225
Ni 8.407407049714623 9.191496678424633 10.74649258583 -2.6724768738393907 0.17766528532738435 -0.5640825500846285
Ni 0.17587594210044263 7.6728242820773 11.974511291116267 1.498118562943523 -0.4178394878222675 1.4269146891051878
Ni 0.7212173935160759 7.972711307641902 9.634234744476016 1.0341622261585353 1.9705667392496062 0.643254529730105
Ni 1.004883946028587 0.9712603052216611 10.30165431270101 2.091763657176617 1.5031607533531208 -1.2969035153206565
Ni 4.266645058568985 2.4263259020870276 1.4596060357476208 0.645089783166631 -0.5382357642248538 0.6310867840193196
Ni 1.5945681329750028 0.11433239048662264 4.440944690385926 -0.3062284138114791 0.9254433860938772 -0.13033333301064004
Ni 7.731108955396917 5.317155148676879 8.381631697036688 0.09901086874827464 0.2036187719683525 -1.9159901895553066
Ni 7.715549128213938 8.089206735862215 8.049835014003904 0.6763127457366546 0.07485355477578076 2.0764923328398432
Ni 0.6526109369743048 3.92790466405876 8.959621066129484 -1.4714019728842853 0.2973221124607847 0.5630659358946561
Ni 8.405429732008471 5.158156629576692 4.539610995962369 -0.21969330893271197 0.02381818546552027 1.0062927534417767
P 8.197940730095768 0.43503114689857786 3.6010475793704058 0.1689685288843348 0.13610674515930754 0.1313394056776512
Ni 8.05245080205349 6.433776024707707 10.561695614545968 0.2805055551240782 0.01941979928750849 -1.5836329398672595
P 6.261915700715175 7.594590875451237 0.3871227716350685 -3.6260530136137428 -0.6118729300950301 5.196593124852785
Ni 3.614499807633885 -0.16900984496287005 6.937307370420856 -0.19902292506755404 1.5159751315089698 0.9862582033884046
P 6.398415301056125 3.544388187286825 12.356235246229355 0.92057448803735 0.6976279622746631 -0.21831159809383693
P 0.798727323616944 4.092687299439556 3.8085772364135155 2.1238242851565876 0.7022711174736294 -0.6323368543763367
P 0.8246320335279903 1.9275983296235404 6.398873595253439 1.3002582907255027 0.3109659284964644 -1.4791517920330333
Ni 2.258484892123354 2.515037244595215 8.178158313231897 0.6824165446415473 -1.4453811233404914 -0.12001343914187074
Ni 9.49121738754666 5.861397987591292 2.371177217690155 -0.7690200408644046 -1.7613085096072891 0.6495377916356555
Ni 5.227815499607858 2.943468400664338 10.679904102124786 -1.5485813475797654 -1.394550156731553 -0.917839348494374
Ni 2.9648677829421177 6.853891358648158 7.808213258173954 0.9817466886712963 -0.2802983242092785 0.1413944759208081
Ni 3.8296763251144266 1.419418439340464 12.656454904679103 0.6563751262724631 0.4114569813346914 -2.7129210978973664
Ni 7.137544051457121 5.3525343519331905 2.5075058816873486 -1.6036271236009993 0.6750328505829665 0.8272311019874979
Ni 0.1335123722362837 1.4098182846830318 1.7925918813448054 0.05796500655055824 -0.7655066283945074 -1.2063883427482192
Ni 4.282435880811094 4.297385881037971 4.889163807200339 -0.15135055869225547 -1.794561615233464 1.6175977268484787
Ni 2.72795925029865 4.404502909857617 6.648528435259685 -0.8459111948955045 0.07905962243732836 -0.8596357435704486
Ni 4.985169049695608 7.355390871821202 6.245653648552441 0.7983658410163734 -2.20691951111587 -1.4115243226920464
Ni 6.15358825778569 0.24003528176384786 6.843833833773649 -0.4168601546281337 -0.4038753123326915 -2.3170848538190674
Ni 5.493201103140841 0.47091853928497523 0.4493870278333733 0.14707507124535316 -0.7740195509615251 -0.25073243762670366
Ni 7.364880148850252 1.7296632833564436 13.061750519606028 0.6644062241070557 0.6805892616248215 -0.012763470313255438
Ni 0.22660892494699053 4.100300896588472 6.4842465971670835 -0.37932487668683706 -0.5753594085500284 0.37338100039857636
Ni 4.271292679158675 4.825431346406206 1.4317341719130257 0.8360672122218892 0.9155430962610297 0.7682204277812447
Ni 3.3846966830092486 6.733727728888865 12.9885352496445 -0.7126362627580372 -0.9366575096421417 0.6914426593995575
Ni 6.548885482573241 3.4334181608808945 3.7380803163078267 -1.8961590137619928 -0.5366277963077856 0.6016188564671897
Ni 1.4202500215533314 5.936360504180076 10.47006172254967 0.8484051649619517 -0.9366595665246706 2.097031076223143
Ni 8.538833998557083 8.695485607856511 5.609338027029385 0.061212824063894576 0.7905895395050643 0.08680352804880534
Ni 3.228922854934513 1.8984929521731926 5.976050999219987 -0.7691578519938496 0.7444629203503308 0.22239502413459117
Ni 8.351256770741365 2.4062016125356442 10.444502581247082 -0.5323916467392509 0.23522791423320133 0.5098703257082832
Ni 5.192676531213041 5.466294798653408 9.388015262989146 -0.4625142050218228 1.7546023012317076 -1.275686000702777
Ni 8.96257133502469 4.662034681380189 12.043439292780347 -0.572795247367278 0.5388759689120138 -1.282170065765224
Ni 3.0401629324160497 4.706736845222977 8.859967025680202 -0.3240567002421516 -0.31696559772332505 1.7236763010768121
Ni 2.852955296694938 5.7309042587877155 3.449288445423345 -0.794776066782586 -0.8757429335449562 0.5974256443214484
P 5.411632127860945 1.9158637806197494 5.6665277837687285 -1.0108163523437432 1.1164454977394838 0.06648718508895647
Ni 4.536844599134231 7.579539237398343 4.004584859907234 0.0006890556472246198 1.0849122030178926 -0.24363645001187076
P 7.722405061568908 2.98155486601365 8.38333551659283 1.2048827047369701 1.3419872950331726 0.5840697918398328
Ni 7.44452724523819 2.268916628993653 6.297042657366918 -0.2238556678405177 -0.38304423451995323 1.775672234528129
P 5.021352115757692 5.467514452565613 3.4704790081676715 1.9121803288909136 1.1249303952820433 -1.9836796224824806
P 3.206617972024945 2.1653476842822403 10.218553378188966 0.2659644240851097 -0.8157189875828402 -0.2944584177597445
P 1.0608032299427157 -0.4715403779841525 13.929762501258347 -1.2653756199157047 1.7211154823281714 -1.1724420677097613
Ni 4.529415798032619 7.4599854345951515 1.771860536778029 1.6214451256190268 -0.255437813522173 -1.9074384433305538
