# total energy = -340869.38602623384 ev
CRYSTAL
PRIMVEC
9.28746128637086 0.00000000000000 0.00000000000000
0.00000000000000 9.28746128637086 0.00000000000000
0.00000000000000 0.00000000000000 13.59313838357631
PRIMCOORD
 96 1
Ni 8.735033647875666 6.384089326367632 2.047941831118602 -0.3788898460319475 -0.2120486479032606 0.41378948612260996
Ni 7.933414303433455 5.269816890683153 4.568708308005498 -1.5852414220049602 -1.207060172004263 0.33401946788181835
Ni 2.618655388376451 4.487301853770805 0.6985675333144208 -1.3948152374674818 -2.334400719389696 -0.9087317297661511
Ni 5.549657381778114 0.5492697382711192 5.978357299751374 0.1839644880725348 -1.0796784654227793 0.5346747863464728
Ni 1.4700936462261194 8.950920681678141 12.245949357523552 0.06100302204593365 0.7318580871021266 -0.10755978675955025
Ni 2.1708511628733267 6.65649984856425 11.42121259360026 1.6049350437791454 -1.0938730117556064 0.25798166298994923
Ni 0.9669361524303405 4.707098908706032 12.255859078541716 0.7953273113003657 0.5208607632815159 -1.6147458592219806
Ni 1.4936373601727433 7.675111434682565 3.1253476898756167 0.9354853437109115 0.03722340312783267 0.2565246188284485
Ni 6.060857816906348 6.943454534879374 12.216126391111715 -1.3141021385871303 0.40320374018696364 0.4307520821188775
Ni 7.314711505807321 5.400231419771315 13.466287385470212 -1.040256254871415 -0.3949355866409005 -0.27713561021058075
Ni 0.19626820092640054 6.684752305300199 5.399996447004906 1.9847186052699561 1.554439606132755 1.5237671167495628
Ni 0.7119972020981755 8.275174297834981 0.8914448821848401 -0.05052654799464202 -1.9396926753785693 0.5112381525900872
Ni 7.098852334388216 9.25901362950905 8.515503143074667 -0.41005084501578415 -1.8448526501785323 -1.3109178273218778
Ni 3.911655725910568 8.390543139903999 11.49036145664491 0.665744483302505 0.35228535607054173 0.337212006677187
Ni 2.153372161039975 0.7533069004268496 1.1733230422501717 0.8642889260717437 -1.0268908893081024 1.3670691777024648
Ni 8.8673799688774 3.888409210719878 10.460382018112131 -1.229433911713773 -1.2258276824197534 0.5407269060778236
Ni 5.4144133729060275 4.812892378357311 8.511438950087273 0.7013630038370631 0.8343263182713825 -0.6948324018073969
Ni 4.4999235134368645 6.149125847418662 10.28882310750328 0.0687492416502558 -0.04178839679069577 0.22018387541588533
Ni 4.537927804351888 5.700337151036506 1.1358184167435614 1.6150065690825346 1.3947026231490174 -0.02458026044252541
Ni 5.137925655276444 0.4263148979568923 9.720874427421728 0.07052330283154305 -0.9697015845813042 -0.05778554354990048
Ni 8.501379700945028 8.560782302287281 11.069952455216088 1.5260445999298298 1.3848244448033569 -2.318793608980058
Ni 1.2825705186930683 8.131200075507342 9.955206359014339 0.13882722941426412 1.0482037918532658 0.039419896558519206
Ni 2.8775433671780855 6.05937182312668 8.349055122321765 0.5229685536531381 0.9715962305008558 0.03218892602771875
Ni 7.6076751794689805 6.670774676310192 7.089705113928242 -0.3532027256784885 -0.7656102438519072 -0.45314073422672285
P 2.2486429372389765 4.778779533652796 10.11977831262041 0.7303671043788971 -1.2370050391928116 0.39288641742135566
P 7.507147700274402 1.6026814412170476 6.290306401440523 -0.6939070617796501 0.3870075900430754 0.07039294790126586
P 9.151808465767086 0.8503255768091861 1.0236908986064448 -0.8272069336177817 1.033142269534453 -0.8431603716232446
P 8.624438560823833 4.313793505072253 2.7711787186677457 1.0319402788065517 -0.6145864723714511 -0.5229335866501446
P 4.101435706496491 5.900296189013159 12.523997368621787 -0.2469984245055681 0.018976026881870545 0.12128613520670725
P 2.8121503534115453 1.410440283433549 12.77339077591745 1.4256700180648092 -0.2063690810199801 -0.12091255391737242
P 3.746116018855489 1.7686297965615356 7.954650083291031 0.5768889578206775 -0.7264212323572715 0.21705587130986492
P 6.5874940124208905 6.675817767699941 1.3737362370757351 0.5913413858005816 0.9007109163442035 -0.5521498032027846
Ni 7.916761885640044 8.268217989453907 13.078012999526722 -0.7423710708183086 -0.47664550221688234 2.072156938689283
Ni 9.205369254063015 0.26592694558670177 6.495535144858326 -0.054514586108112564 -1.0058988604374675 -0.293949596444126
Ni 3.030127065966679 0.20478201653778919 6.028978606601896 -1.0127017422919138 1.8082558248911051 1.9214090465780331
Ni 1.2010358974948783 2.51168241116256 0.09919101353898954 -0.8111843329372804 0.7888337331562221 -0.7779209428984603
Ni 6.883216062036059 7.518487690305498 10.054571976822439 -2.01331364329883 -0.7581586726698685 -1.523323601454241
Ni 8.776288550183716 1.372733191274459 12.233701982540744 1.057392400331069 0.37734718413517593 0.5612044572058851
Ni 3.4344659734144978 3.8700943373854626 7.860123232727975 -0.856243687169764 -0.22497281216409643 -0.17311983204854703
Ni 3.1974221031739916 7.730864063803505 0.1799129818889233 -1.1039028851877828 -0.9605867667642295 0.49515050299960534
Ni 1.0336201232929678 3.5625957870664204 8.590360079725471 0.12368317468397406 -0.1298311965632409 -0.8579925515400708
Ni 5.521256325664198 4.135604275967745 11.844176575583997 1.8693537206436903 0.926530962731101 0.1865600167138529
Ni 7.737950396640301 4.308286040626356 8.26041373587231 1.3186218808343548 -0.24572469999946714 0.1513173914614749
Ni 4.312604710048518 2.7836006979196624 6.002458261365374 -0.20085946405566055 0.06379575429972238 -0.4549135098564294
Ni 6.384330800356827 2.407895033113833 4.587520989256102 0.06832938050401781 -0.035228484184990944 -2.118740699986093
Ni 3.6050859217038185 5.69200629840924 4.00727106691723 -0.9262432562873533 -0.24758206492318005 -1.8086923982078913
Ni 3.9381342775720376 8.046860641050028 4.708269128807522 1.9722135308244098 0.16389728500901452 -1.3444311285879749
Ni 1.1213123312156592 2.5225115908318947 6.179386253249388 -0.20446132247430596 0.48686409462109703 -0.16648587167179715
Ni 1.8686743277777222 4.781045674166791 6.075956442453894 1.4615027114927022 -0.0054908479112421565 0.2746935764279914
Ni 2.9203121256491715 0.9968510647072935 10.097024032869234 0.24806234699370827 -0.2846686853628323 -0.2604715192913385
Ni 5.223760370974549 7.512348678503241 8.049897640837225 0.35849559864631164 -0.09457031647841777 -0.713159482251359
Ni 4.976751054949141 3.4805410680453464 0.6077965320294784 0.8448953520364805 0.8177432171017206 -2.3284488726816353
Ni 5.487292080337648 7.098759459776986 3.1096073007644773 -0.049332527686540846 -0.5799650256428399 0.4315182708609407
Ni 7.6210491234859985 7.706948851411964 4.3989028700566575 -0.21000770621383186 0.8108027812281456 -0.6381002392226753
Ni 5.251362705431893 8.678575171709385 0.7514698406167343 1.0559795791439428 -0.7037129921264784 0.056834235380224696
Ni 1.639970597625606 1.1772599970201811 7.897925985736633 -0.10055533041725907 0.20361414398266225 1.981653593191387
P 5.856422222668445 2.9336024825160822 2.4191031411969828 0.5186665838436745 -1.6177648485539622 0.5234033271977115
P 6.057040670384825 9.214591702958083 11.807190190408047 1.1847784777879273 -0.8978924730588022 0.2865700161506033
P 6.90262685578298 5.188523743474159 10.06507981033692 -2.2686717526230025 -1.1391946185105413 -0.8561249022037127
P 3.800772727563924 8.857851033765273 2.607340474490387 -0.4332468235162732 0.5298704229792939 -0.7995251514317971
P 5.978134400684423 7.371039957517883 5.7408852775531 -0.966114124340362 0.8004366075024731 0.44059143680680246
P 5.449046315433428 4.882000376573023 4.7104303210108265 1.9426610139782738 -1.1099249230121464 -0.8418519372244663
P 2.4232472063500334 2.929209513404937 4.469206164518891 0.4826960792863365 1.6704963746197232 -0.11223662340992928
P 9.495407377470952 8.916882136662608 4.4228812371838355 -0.15431709751974712 -0.5316015467377878 -0.29020169936591955
Ni 4.398671612274697 1.530861504353441 1.4427485744418806 -0.11246390892938697 -1.4929668435392545 0.283494462549073
Ni 8.037731066766188 2.2365506628569234 2.1811546722431037 -1.1320973453441276 0.5961328936519539 1.21084920673305
Ni 1.090431522981922 5.268618808198294 3.82967623532459 0.5735159275833865 -1.040634207036124 -1.6556803926528132
Ni 8.272805995248634 1.6940421962832963 8.291556450509715 2.2342351682116877 2.9811997719379497 0.9388203216214154
Ni 4.232435345635398 1.4684869154518527 4.011077068485407 -0.7374702910825816 0.7161044238122958 0.06521217503127479
Ni 6.875154545781357 1.3020277497456039 0.31771475755426387 -0.48077032301853323 0.26224840868610316 -0.8599329630958933
Ni 4.1432942937775294 3.4334815025354675 10.119194131315776 -0.6549391651568849 -0.6374775180370118 -0.8222717010996936
Ni 1.7123292072343426 2.6509014533952593 11.282263816486235 -2.73442657606931 -1.0622211891782805 -1.9677305553523918
Ni 7.607201518951712 8.586870780581586 1.8775930766940705 0.4256556414325766 0.4737257574669261 0.39603884700740827
Ni 7.0136770284298375 1.6997168350294056 10.733209547313168 0.0378252983778897 0.011854328235424746 -0.06523505784941024
Ni 1.0792958570955304 2.741175575510125 2.452868634855502 0.4142923939009575 1.1119429818834399 0.5011416875860337
Ni 0.6303901387032267 5.856450085051813 9.23365607440512 -1.3450600204212255 0.37443335292249064 -0.25739905101360183
Ni 8.966012806002901 1.7402937526754805 4.450760337982642 -0.9405020801992126 0.1036275415846796 -0.12988904638436985
Ni 3.225739572137801 3.7150123115548013 12.244562739577898 2.209922302497936 1.294632459898293 1.4988868085681153
Ni 1.9536638845136416 1.0146458402188245 3.867030403961009 -0.7596026042052466 -2.2877382823361505 -0.4231485587400068
Ni 1.5248246546235373 8.134506411667106 7.785850477381803 0.39176618777398337 -1.1651252223333741 -2.387453633350617
Ni 9.27052079384036 4.513269595070513 0.53535619276286 0.16785472699486575 -0.5023673324630187 3.165458908432768
Ni 4.32824479457953 5.743105909507593 6.261815256953715 0.48665403549281994 0.30280781816570435 1.841398887301977
Ni 5.9095929375972105 2.4151206778674714 8.756549909059157 -0.33233308131833084 0.5209193844335932 -1.619921746995965
Ni 5.854295394071294 0.14898480760345884 3.22238958491076 1.0322117873003835 0.3392398357404932 0.16118142873974822
Ni 8.200196624189578 6.037276953115232 11.277574577365268 2.610957574278671 1.2107898142500244 2.19434296000244
Ni 6.594831106708004 3.7971877675704735 6.313047678746126 0.07503044667327723 0.876404221278039 1.1320628925617664
Ni 3.739670520836177 3.5810778347010483 2.6773317102588896 -0.6352339734184738 0.4259148086312342 0.9000683976641982
Ni 4.865765894530145 1.684968346766195 12.01112797672976 -0.8995703749818572 0.3981733768519078 0.7678669010965679
P 9.147452646500433 4.652934435437112 6.574334608755813 -1.7073590519740272 -0.06852915521964971 0.16499231784540616
P 2.577920583891286 6.053483572774743 1.874466917280093 -1.084780562536035 2.315885434194328 2.6950938399079587
P 8.70710625227902 7.610219943816664 8.631262058510849 0.20363445569763639 1.361812557289216 0.8490489691935377
P 0.7582515447286968 1.015890360009297 10.197341615442435 -1.7673130639301564 -0.09450295357559207 -0.5745333131043072
P 0.6395243567176269 6.891974137874981 12.854065378215656 -1.3797532009280367 -0.2802633572062851 0.02073080478944817
P 3.5462127056455746 8.110321862902998 9.25612522909982 -0.6406533446618321 -0.2670471156263272 0.49473449850810924
P 2.5294957615963365 6.832766573216311 5.573417493568901 -2.233712205828682 0.18384621732711565 1.3860860851246
P 8.087929794135617 3.4164111489915245 12.640952509050603 -0.255331884071928 -0.014514134455775 -0.7214777723090671
