# total energy = -381172.4391565645 ev
CRYSTAL
PRIMVEC
9.22517500076520 0.00000000000000 0.00000000000000

0.00000000000000 9.22517500076520 0.00000000000000

0.00000000000000 0.00000000000000 13.50197610859567

PRIMCOORD
 96 1
Ni 1.5503644347390484 3.922055411441301 1.598782764932957 1.61181840116254 -0.5295014696756495 -0.45267227923073655
Ni 5.7353742300704456 7.989665631646913 5.853241521561065 -0.5865632476856478 1.3283108259873444 -0.07450157075300072
Ni 1.6940834337084494 8.746305247570357 13.221904360568905 2.143194205042767 0.45878379144511316 1.2965332764654316
Ni 9.091123833068673 8.855771172326175 4.00511796326238 0.28720507863144085 1.0841470427170943 0.5039768430419836
Ni 1.8072025277043926 6.3804722568970895 4.732820973237603 -0.3111453914971222 0.7071294740071951 0.02210891608389741
Ni 3.3317272476919615 1.9226832664616276 0.801699059954905 0.2567020249465773 -0.9474268323435038 0.5432573858091612
Ni 0.960137747913046 0.6259188883159963 6.617453161000399 -0.2596834761724044 -1.045922709128573 -0.14114045092847305
Ni 3.8304494251927514 8.562392161784748 11.10131065052359 0.2854796112999019 -0.7918025859765588 -1.1229161930654918
Ni 4.720309791107666 0.4429098696655705 3.854085245672853 -0.2959681695360516 0.6450715283341859 -0.4980255105545552
Ni 5.89363210460155 1.8349149529501774 5.389381279813877 0.8867331140078729 -1.1232792328318655 -0.08891800328864687
Ni 0.7168818798775847 5.664866218701094 11.040146818758585 -0.46253194563363564 0.26399033107787434 1.3190448273043864
Ni 7.413258256744409 9.01028362586867 10.817121759166534 -1.2939434042510682 0.20879260285980816 0.312454597226849
Ni 4.6082146915199385 4.379762461564341 8.297976510198604 -0.3289101716797109 1.5630438028619984 -0.21737905897723855
Ni 0.5353461216505118 7.658915437793012 7.793502436179589 -1.6931570494420323 1.9982937728512296 0.8052183451618325
Ni 4.142703143474816 1.497144401036341 9.698671708190776 -2.332527927847015 -0.19595945565088185 -2.7458656711441876
Ni 0.4871870188698543 2.764462021064614 7.611685310119627 1.0176817120050088 -0.9857483536315217 -1.7759375723743738
Ni 8.568923585577696 2.579534166045639 9.518339835281472 -0.11518207919149841 0.013455354173957473 1.0766934146525262
Ni 7.514393848611765 8.507576172833199 7.788979332951224 -0.3244595921075251 -0.7450838417637813 -0.2633259580209982
Ni 1.672514974911963 0.26657065243082473 10.961727297438907 -1.3130284459069772 -0.2879764095798266 -2.0817942046687308
Ni 6.0326923902723095 3.09219558274296 9.63777817404884 1.3015541267187907 1.5546946595663549 0.2045687945864477
Ni 0.8060764054206588 2.112242159254699 0.4757339642950735 0.07144170088075438 -1.4829917346044137 0.5947354990837951
Ni 5.965929799891568 6.0095187510521315 4.400104894623422 0.0757261871887212 -0.39173996252173826 -0.4091895254567533
Ni 1.9257829252108232 6.193136631242578 7.505869787051477 1.4348455139164902 -1.8908239747023243 0.15191105918141581
Ni 8.878714182175132 0.21732390153549416 12.563521159442509 -0.7174691653703062 0.8962999317607016 0.47096747799549854
P 4.510953673089077 9.304142345502234 7.79361037072532 3.1588879400834693 -0.6656431818379503 0.49530142675517275
Ni 8.150229799890218 3.236274363531464 2.0063399195429694 0.6910716492133839 1.1810262098343467 0.3762765767788165
P 5.587872909413038 5.48904361125788 0.4167112956124732 0.9763229465525637 -1.962938276170071 0.09175547273744199
Ni -0.21073989424590808 0.1804684054970671 9.373355142322815 1.6745216937290324 0.6218745213924323 -1.6248562081831048
P -0.04412770137173335 7.608379929971304 5.82322649267302 0.13455739839431666 0.6915287913554606 -0.19145051203693478
P 0.7210636516365442 4.996788281326097 -0.12877790578429038 1.1001539596683119 -0.43038004349143943 -0.30678248654273615
P 7.435444802255764 4.755826714275532 8.219449054333191 -2.19494999745882 0.07296122284907434 -0.46019224175686546
Ni 0.4322547927152105 1.7698774702661617 3.243336234878218 2.4604169130822204 0.9802289664751893 -1.9609415574550162
Ni 9.446948052161606 4.7339999505832795 8.56299364318489 -0.5068035138575013 1.801408977172601 0.6468784996359375
Ni 2.70562385587899 1.7489547737090914 12.063070184175057 1.2974192786148107 1.6411531455709156 0.2459692119101054
Ni 4.284226550830204 4.025672575342984 1.9254628116435701 -0.5191226975444866 1.374527690863039 -0.12136146852933292
Ni 6.904416062434489 5.649358699780266 2.350585621683176 0.22624216579482329 -0.8896304901603259 -0.24190686891527372
Ni 7.126410669995929 7.33612656983362 0.6735337057805747 -0.398251795498327 -0.13664924792633887 1.1589669160414622
Ni 5.832026386961287 3.470593804690896 12.976722276025015 -1.2042684681917388 1.0928934214511565 -1.1834507601154391
Ni 3.8881528938719736 6.699903161211519 8.640940835552312 -0.6376878342756049 0.4544090594161852 0.37074921920268405
Ni 3.6898762108467893 0.8358838678746053 6.01525219722066 -0.2822873296148493 1.1174590266056625 -0.40962687010448806
Ni 7.504421434600216 1.3077792369150945 3.357306812512705 -1.816548918137833 0.5760037270022467 0.7385851214133151
Ni 5.932156434770124 3.375288523327979 3.6595078577620366 0.40423783787843287 0.6222033654867607 -0.8127115682150842
Ni 2.8912159234870782 2.841141674407811 7.865738322798121 -0.7621333410469003 -0.7017630674889592 -0.36287675843314277
Ni 5.723418403466406 8.111004356433135 9.566663146174438 -1.0389959001017524 0.3958113043776344 -0.29002917834379727
Ni 7.673445088179866 4.534376392030171 10.95042645824913 0.11354891446344961 -0.9306776379096231 -0.45381564880656033
Ni 3.960801145806246 3.2072704138068477 5.092715339473823 -0.24861256307022342 0.4758510313400449 0.7256414167684534
Ni 1.5831691565013686 7.499033932488519 2.580970525769596 0.4001600682646334 0.10264512306675225 -0.24184104867434478
Ni 6.423046438824286 4.0906085811036625 5.814099104677621 0.2227182118019648 0.4071105314405376 0.8580974525490511
Ni 2.9718439516655604 2.428850160065396 3.074710186334551 -0.6082273629226428 -0.710172374598577 0.5828400331977898
Ni 9.473701059223114 5.598371158390968 2.1719410332537157 -1.3274435928910429 0.9582964280681561 -0.6304527499797465
Ni 4.211735126868361 3.6228645407451316 10.90102287938137 -1.049510169369515 1.2891372411116766 0.3174836750103242
Ni 7.548360942405034 2.1082753340697162 0.11730824589478163 1.605913605642331 -0.994366691428152 -2.332919249748163
Ni 3.1803144528986644 3.866280004305477 13.070763708433647 -0.4642296450510328 1.2238379056832343 -0.007104729365581312
Ni 2.5755488905109587 6.494375490755181 0.43829174713626295 -1.1013052996639354 -0.6021302488859694 -0.24150809081495825
Ni 0.5468997306311446 2.9756354985284155 11.817131635293565 -0.34612422156515227 0.7097774531530034 -0.7446979191792723
Ni 2.1669843468074577 4.617550568466921 9.482613500644538 2.4973130147776215 -0.5218984605174108 0.7127367928916435
P 3.266643639133702 5.946114124316354 10.974919297472683 0.9029765724499286 0.0887825061520471 -0.09275383209496929
Ni 6.641277175047417 8.394401727788164 3.1974299197956366 -0.3709898744585804 -1.523978975650053 -0.1031536872720546
P 8.085035489233773 4.2934609508538495 3.893712906753344 -0.42609092919778235 0.6862055793703342 0.8870907544576077
Ni 5.987424457289265 6.613103491059192 7.787845558962307 -0.08829348233077053 -1.2264676299965975 1.2144613495643406
P 6.974425914362007 0.4558288045238252 1.4435636629970459 -0.7125244197705213 -0.8344965253006595 -0.7702168893859833
P 1.6293411566195954 0.43219390656120843 2.0056507989817645 1.9433891503935499 0.7983578705965735 -0.18341555754760022
P 1.7904772857035245 2.0805075577748386 5.3139728555648444 1.0499534275545208 1.2942341960186097 -0.4244665062204818
Ni 7.747532467390552 4.976843453302999 0.027416297133138427 0.3636871701495801 -0.4232819989940775 -0.07448948656814268
Ni 7.313967699846811 6.6200131470209405 11.717081846505913 -0.36891525131773883 1.5423633916945116 1.0657721397543323
Ni 2.6183260262848282 0.09999259270359054 8.414120539027467 -2.4606544830143235 -0.05418368513125507 0.7592367362253958
Ni 2.138081874006178 9.406541786323876 4.2151816521918715 1.1774210089815915 -0.4238820944719216 -0.2528091176500743
Ni 5.5755111751156505 5.816500417690762 10.172037570102162 -0.2330064811018503 -0.973398059596285 0.4813706756066936
Ni 2.8984761360930817 7.904083684574628 6.232363919734632 -0.20790968603422258 0.6732677882627437 0.3766779259822932
Ni 5.887995522768935 2.3873645487703583 1.5515120464902385 -1.2810768327010453 -1.1499706260801228 1.0010703287005727
Ni 7.984776288977052 6.776859569800179 9.458444465058175 0.06862145782313989 -0.3272654369874363 -0.28056083384204583
Ni 5.268801786917712 1.468979942222965 11.43351380941618 2.1787721021473767 -0.294529380206996 2.8750795458384033
Ni 8.43030610829968 6.811638478980142 4.026882918283146 -0.7908492209243541 -3.0550063735064548 -0.715079067871575
Ni 8.992912621628387 8.846813527547996 1.5050245453921829 -0.9283978407365108 -0.1444692581913899 -0.19350070969774416
Ni 1.9224803126149541 7.421302609212559 9.730617566174674 -0.22849830881885164 -0.6206041393204409 0.6742275810728517
Ni 3.6540364065592152 8.662845090713294 1.6364934346798674 -0.48211886662662784 1.0186278779683617 -0.16869342084607722
Ni 8.846758176498902 2.3843202410702555 5.217811477975959 -0.9907110969534357 1.6228849433893469 1.3607632900890954
Ni 4.11155895318528 7.3201854676949 3.9696619262485155 -1.0200005899461724 1.0649637849204239 0.3464913750965839
Ni 0.030482745252878394 7.096760958031897 13.345865802564639 0.7175097888002546 -1.1785121851632412 -0.6103762909448456
Ni 4.5736295110118 6.617300945615394 1.831016394059076 0.23324919324027574 -0.7356026417462235 0.7417329230136774
Ni 6.238063232756218 8.835309734511545 12.823906332137216 -0.5698125105898703 1.6397673209669823 0.23379940931679088
Ni -0.07238441193359714 4.88991463070279 6.224451487266818 0.6033659210652835 -1.1086545409401554 -0.9182180719900316
Ni 6.586728716166483 1.0349446907619368 8.951242506836373 -0.22821703013300698 -0.9935040863175406 0.1745398523245252
Ni 5.118680516603246 2.307917342972522 7.523868103181479 -0.4630716201871896 -0.8145023415669198 -0.563385524017604
Ni 4.701868666584921 7.042738334117345 12.868368907355961 -0.6708056998754963 0.10056921437433002 -1.1432001401255085
Ni 2.236256184747071 4.507715636717149 6.154268202052144 0.5648651938869239 -1.9188243165699923 -0.1616390851024571
Ni 7.355554788065186 2.5581225352215817 7.375102933569786 1.0731113537282229 0.539954032467541 -0.3668671105394585
Ni 7.426145826008177 6.218293683055247 6.212029789332914 0.04181050827788283 1.636497649076775 -0.32951078137818735
P 9.362722205792092 7.935264775563561 11.021230597731128 -0.40062518082651005 -1.3227405309884188 0.377307332036176
Ni 1.1230727860924903 4.2589956976187455 3.955147036141419 -0.0511613533651635 -1.1806932519749602 0.3284728270319762
P 7.402962961613151 2.284439272982335 11.309876171057638 -0.1982693347309811 -0.34937769550544345 1.1180166988813454
Ni 7.71833478899411 0.4394864072791821 5.8946118181704925 0.07592004836708215 -0.35567689825059384 -0.7038492605940265
P 3.6779111590679006 5.1125550005036455 3.912535030997343 0.16567725972757272 -0.16990723864852028 -0.019893396489817354
P 1.6154941691715519 2.3471704619541516 9.607708716629187 0.08694185339888252 -0.38733154904139744 0.7284539465165841
P 4.001410365490648 9.347500667291579 13.018672836132433 0.24019091466543152 0.6378775816889078 0.8771151313021346
Ni 4.236827602457088 6.051926879832051 6.089593268739686 -0.11025687397573915 -1.3251445124442212 0.3218391237655425
