# total energy = -340887.7448669154 ev
CRYSTAL
PRIMVEC
9.09461219683751 0.00000000000000 0.00000000000000

0.00000000000000 9.09461219683751 0.00000000000000

0.00000000000000 0.00000000000000 13.31088424756559

PRIMCOORD
 96 1
Ni 6.792647483699169 2.068260285897238 11.303336764073197 -0.8282965671375347 0.5048867564507628 -0.21903664918531954
Ni 5.076003087507841 0.7206479614196506 6.124737358429399 -0.16717621287060241 0.2319623561080521 -0.5002194328820805
Ni 3.3432703226628013 1.959597861547587 4.645418681679734 0.10268934604112638 -0.8744380986906037 0.3255399696558974
Ni 3.6712765995789804 4.705579540155875 4.600028382576397 0.08036162907820353 -0.06680265944684624 0.7389203932655467
Ni 4.046829508107143 2.921789623461243 2.2133075245334344 0.08093832751727997 -0.15619760237191163 0.17731175864270754
Ni 5.51708267560072 4.545341571071803 3.1347927125312385 0.7612334549404502 0.5168359583928389 -0.5148603227237067
Ni 5.633939345375465 3.2537793404397877 0.15245661904443733 -0.3278519056185257 -0.895107197004181 0.43050859864950375
Ni 5.391640692084254 8.290420947148727 12.216276654622142 0.7101417784709576 -1.7770943116866362 0.576847820170097
Ni 2.119690316839427 6.510041509959544 0.30727601829025053 0.4282755955539269 1.14855754778268 -0.6262618518268505
Ni 0.6073409187141772 0.22961621683694425 13.397404830484078 1.0556137111640915 -0.08127874157583422 0.3391547322258546
Ni 8.341350774430115 8.700969922708815 7.029437530493178 0.2985261600712149 0.2562644231885264 0.7065106094762735
Ni 9.11889462861269 2.591982613366186 1.080059752544418 -0.446464864868444 -0.9819222950172121 2.1854217462534105
Ni 7.1333953120477105 1.3885289839309756 4.741336826213419 -0.8453612359293053 -0.07117327771071613 0.3487228355302639
Ni 1.0473628034297657 7.481755330652416 2.4412430570700927 0.9021484201216785 -0.1458586823397488 -1.3165837673584035
Ni 7.986979217283803 3.946143058494238 3.834013768044647 0.39776457144926336 -0.2884453787964451 -0.41558077369507784
Ni 7.805359815353562 4.110555454492982 12.779859757089593 0.3299357847307479 -0.19241776104621056 -1.2960509375123745
Ni 8.156384555278526 7.368645641027658 9.250012559487425 0.1261879433836988 -0.34127254989980577 -0.4213043064424163
Ni 6.6817659740179725 0.6791265102672961 0.06762571601767106 4.158059766209749 1.0601977309903483 -0.4168537268702305
Ni 2.0400124209800956 6.6916154388297135 8.809808782531547 1.324636462459551 0.7559639790113948 1.7499282927948057
Ni 0.31013536430762 5.022299403562019 1.0412321254707686 0.15844346098329487 0.6426428642880352 1.5563252531912424
Ni 6.845405327995481 2.5363872501213405 6.974677052631267 -0.48843478154232656 -1.9969215750940512 0.8278327401272388
Ni 3.499879541553075 4.306062328969417 -0.07989707600888164 0.18002787202228995 0.3073576423199158 0.5666695940855144
Ni 6.2694617383390785 6.48708670923486 4.899403911409622 0.3868073011068112 -2.2360022874144394 -0.8244005745172382
Ni 5.781817736731787 3.2134447361553304 9.135393164268256 0.05106827943072495 -0.5874443647390205 0.5695808541950383
P 0.2894687679657932 5.942846937061123 12.318623780388902 0.3538434445862809 -1.804480159898757 1.365733489610177
P 4.105944486201613 6.211301694506135 12.451772538126484 0.7461238529925215 0.9567848765196361 0.6211006193408851
P 2.5961570402808576 8.751726952361928 1.2217820010281009 -0.7804043714419463 0.3692163274979254 0.8293723167002168
P 6.762462466422932 8.396682393926541 5.800005141838452 -1.0625978557914089 -0.5476814830187858 -0.5206355346445872
P 4.833558920424397 1.3936492504951579 12.45391613817831 0.25999020877954576 -0.116666891267141 -0.5954502657626325
P 4.07809678421311 6.595012470011334 8.078255471845269 1.92295068003354 0.3085184953972364 0.33665433440150405
P 5.243498556979511 1.5735497707546529 3.5744644546842674 -0.7349410969028246 -0.22104390942333546 0.26539646739678163
P 0.44934568095288874 5.544621160780728 3.3648318288268584 -0.14072341799571247 -0.3959915387092406 0.08279337844814774
Ni 0.21821975852153183 0.3868766099474584 4.974663644752292 1.2547937306348003 -0.7799333453427987 -0.620146482957732
Ni 2.0452509175004674 6.629826644802969 4.361403952539057 0.906196107828491 -0.41545376119891025 1.0575325254533594
Ni 6.089861340276063 5.888497535662269 9.215417564845342 -0.8446703805098678 0.3608772115046108 0.45073649566060436
Ni 8.907963292159607 2.482292497858893 10.039467627025436 0.49152164799776643 -0.024817830374628223 -0.5267521890652863
Ni 2.924408871721429 5.420816207426879 6.75849448720099 -1.9731458128306922 -0.40987858110397796 -0.190999026321813
Ni 0.7666303197651337 -0.06313570606609568 8.787286885338755 0.1560279095632668 -0.4432736116246559 0.6673128562308894
Ni 1.6135751582306164 1.3331246075384349 11.191937770968371 -0.8897559599945967 0.2925018082540059 1.1355431378008831
Ni 4.429649011634917 7.476080292755348 1.393835690041456 0.39576888117547326 -0.6740787141998132 -0.5047674572640791
Ni 5.8503729220973435 8.332110648623349 8.029817568255861 -1.2388647181093697 -1.014405355246582 -0.2637512184838748
Ni 5.504823138605128 3.209042943940296 5.207510267776799 -1.098610783550908 -1.0102933899607376 -1.370744055450891
Ni 1.0284187266034917 7.202896337062779 6.561600684392339 0.554260164677568 0.9780520134285283 -0.12841323316979172
Ni 5.250137623750121 5.015933175151845 6.712838625426829 0.016822213763661352 0.0678113032170187 1.1737060220238495
Ni 0.8234670975499634 7.390463615250526 10.951982799193306 -1.0978147700121739 -0.37527230388401817 0.162608648104578
Ni 4.880014198594636 0.6353241304216964 10.21742099085262 -0.14241597520678698 -0.008332174014779198 0.20425280600792567
Ni 8.585950364561004 7.198403598727599 4.483691015147681 0.06910379677619712 0.24417663878605694 0.42467322291464926
Ni 7.177395044974026 6.354496360674971 7.158020792999464 1.546759463879678 0.4630837043720476 -0.712047994354735
Ni 3.038509874055771 5.389003254600039 2.3183966758225747 -0.50274579884836 0.09515344267539742 -0.865375217157387
Ni 2.441530446809752 5.380508886978465 11.236529563136832 1.0466323336010876 -0.1711565376745891 0.20074453574435105
Ni 1.9222190061678528 3.5724909238771136 3.476602791563077 -1.981429392995723 0.7619495071708684 0.7507572379994748
Ni 1.7731765044736716 1.2445248972928458 2.9101321497810133 -0.9980945339017003 -0.7962976456334351 -1.1757351366387365
Ni 1.2425786503217355 3.7725996720329023 7.9691992507953895 0.10847021438896158 -0.4063078330335841 0.04682133122891291
Ni 3.819664289208115 3.023085412079121 7.234265472823308 0.35065321978375735 -0.3977614861254698 -0.058615495650363565
Ni 4.288782566141802 7.3188708294721145 5.793109607009032 -0.7586081015024612 0.2829416753693965 -0.13390793773577583
Ni 8.336521535450398 7.444585651349017 0.2379705274334951 0.8269631930380918 -0.5290024185520439 -0.13633377356844908
P 0.29585773290600326 5.887506222952685 8.155352316814875 -2.1597904188385515 -1.0535167194257469 -1.3403232770671885
P 8.893693845908802 1.6746454779082114 7.906731998712362 -0.07096604679591649 0.7027079479007317 -0.17085314750155736
P 2.207298714375432 3.412016494880663 9.909500164570538 -1.1520779022311125 -0.16587574889162401 0.9671927021165214
P 4.41507034857562 6.485131367651736 3.513407776924694 0.877333675070844 0.9292277928369739 0.418346509365673
P 7.403487099655338 4.081043438505819 10.424498940195146 -1.3616834879105193 0.9983691277193256 0.16367437036493102
P 6.386382070397926 8.056944067511612 10.307615896045558 -0.10840722236151006 -0.6183207426029028 -0.5424145781928916
P 2.4725612630033416 8.62447514105457 5.238152744037368 -1.0186785287006392 1.3018734577314224 1.9984837773748485
P 7.045986995976025 4.26268102966009 1.5436103080028072 0.40036627073816855 -0.05974009617311002 -0.7126383196405662
Ni 2.808561703880296 1.880738480769564 0.05999715545988004 0.0008808599430565476 -0.3790127447630569 1.3131037792296032
Ni 1.687632583864966 1.265124193505765 6.663002879970787 1.2888582764186771 -0.5515214255901663 0.3857274377790712
Ni 7.227178951141584 0.7782341352344777 8.96168607479066 0.009858380851318505 1.3210472024463957 0.7651127353901984
Ni 2.6470413945021742 1.3414188936956897 9.096977523118865 1.1555062111863714 1.2761464852789637 -0.6404461137470325
Ni 6.890969334188295 2.2643674047666322 2.189813413316289 -0.537462633504255 -0.9373388519798824 0.501976010561871
Ni 4.0128611322328585 7.278436184455496 10.500344366551554 0.8123585557510397 -0.8688629185956713 -1.236955674012115
Ni 7.277181127997491 6.265396446768582 11.575543958435404 0.5086549652439434 0.27517051606440995 -1.5880331258174845
Ni 7.778448858402555 4.1652231673123445 8.23672181050891 1.696149042190821 1.1628407971745713 0.36344548645241925
Ni 3.1635426000315827 8.908990983317247 12.407087980915476 -0.6477336485473812 -1.1846414379894308 -0.38133239403516905
Ni 0.4253686458377716 4.9329357459072085 10.341811637220205 -1.5655570562021552 -0.5277235518396203 -1.253419733105409
Ni 9.071493510792939 2.634927371298815 5.985226010126448 -0.3450006494836703 0.9708544672388247 -1.2944956772101126
Ni 3.768998205675147 2.837719029998892 11.301486010528238 -0.13611214447594622 -0.016884691570480597 -1.0969827610291816
Ni 1.1588991251760095 3.4410555910430696 12.61111741631073 0.2774616260914318 1.0388164371010948 -2.0547168888359644
Ni 3.298524831551295 8.691948067590397 7.634976806567276 -0.058708826695118246 -0.5197284494492855 -0.3307973614000948
Ni 5.988301807909763 8.486400741449916 3.709636763595083 -0.004002693401489881 0.4251933570841774 -1.5248161268393676
Ni 3.509610776408626 8.617826979671946 3.4225080393006295 0.4037732395371885 0.10162002423634757 -0.725952520250969
Ni 3.903098259829449 4.516511650985731 9.136857396802597 -0.7782628996189113 1.4523048470435183 0.21129711444921676
Ni 5.370513908374492 4.555718523380386 11.420658168521886 0.5040223515679384 0.7759941581893925 -0.45163895287021566
Ni 8.412206896635348 8.891247395276894 2.462619942610255 -1.4844330950366305 0.5613618087193557 -0.31896103088679906
Ni 4.866017590704268 0.8529199985590313 1.2679899057515447 -1.7789395924254912 -0.7067723477780925 1.932586403351091
Ni 6.156997766167353 5.864660557572176 0.25923736816828113 -1.1317103943183542 0.558556992280709 0.71081437905795
Ni 8.219564824943493 -0.08037909044565193 11.080951673249007 -0.16248729203536533 0.7764700693845465 1.0841208174648491
Ni 0.11951957217260141 5.042325739218022 5.913679606869311 0.49588172473867503 0.5347678602809113 -0.14341870543968846
Ni 7.44324874338288 6.075837448549653 2.5255937645824917 0.3678644414557213 1.3868499598738182 0.05008791779532665
P 8.68292621247198 1.7171445998521284 3.3576570894085926 2.040709518813279 1.0109965866753492 -0.4770861892987267
P 2.1350784003680183 3.493722489219236 1.3678660254339545 -1.1257246090485644 -0.02278254511215431 -0.5016435669231167
P 4.925159852634782 1.4605492164740692 8.194460057938574 0.14391878500455857 -1.2809284800486391 -0.22787918717761402
P 8.605330982763975 1.830627168569482 12.410030087902177 0.6759638470376681 -0.2611050391102794 -0.6588187027169493
P 6.6733352686805 8.042529107468576 1.307314098641188 -1.8795969956382532 -0.7547797288953065 1.179289172538582
P 2.2633669974450337 3.445357342525944 5.859623961438527 -1.5999761571119735 -0.08746044490651389 -0.29375830636892636
P 7.156049990575915 4.352362998735408 5.818027934467653 0.6358260984765178 1.1089309345299934 0.6003124789509403
P 2.324328181778454 8.557784351151993 10.321845326003498 1.620591776479796 1.9556638539958446 -1.1983775566286008
