# total energy = -340889.6356375421 ev
CRYSTAL
PRIMVEC
9.09257962401885 0.00000000000000 0.00000000000000

0.00000000000000 9.09257962401885 0.00000000000000

0.00000000000000 0.00000000000000 13.30790937178413

PRIMCOORD
 96 1
Ni 6.312959723418932 2.1149430714577417 11.370224223663017 0.5556724716440624 -1.2707376555585665 1.4512800053234296
Ni 4.703254921395204 0.01953995322703981 5.879527372376999 -1.0008343014303664 0.2743277084481404 0.618667070198728
Ni 2.4418576728188346 1.76949779318799 4.450550316431415 1.1535367461648263 -0.8331523525679393 1.5410603566123717
Ni 3.387722342151568 4.3501173209150865 4.686500025252131 -0.29984102222789655 -0.052570317897548166 -0.08948673130792331
Ni 5.063939362814568 4.77393154142023 2.696994542784128 0.4483996199973116 -0.4807680090256881 -0.4435140097702362
Ni 7.478710241467116 6.4076134754400975 2.5287154472239632 -1.1344151948440269 -1.7175264794253324 1.3321438265801895
Ni 5.3486734881308795 4.715384422374669 11.741834308543346 0.020469066487629264 -1.4911845548278513 -0.3924434163466661
Ni 5.854157257209905 8.076292747743297 12.583479832278902 -1.421341051672152 0.03914607407184226 -0.4668943363673894
Ni 1.757850198919103 6.634755202552561 0.4009818442611135 -0.21441483414259202 0.19128364744176735 0.9920822662693495
Ni 2.7606798784739883 1.7160516112110054 0.2597613558709571 -0.22118223477341262 -0.6639755643275403 0.7755989796335029
Ni 0.6630772652755705 9.06127369384789 4.581274331110406 -0.2571763934798345 -0.12144271538922956 0.8855324088315523
Ni 8.681076576939818 2.5220360383637566 1.250877974584952 -0.03640939186696955 -0.1623888187842881 0.9293584048775672
Ni 6.740183661215905 0.7464953168767018 5.081119791675664 0.8827052237954023 -0.3189630877693281 -0.9934534355852631
Ni 0.9711693179278246 7.3010594242731175 2.6753287444828757 -0.1974805202810986 -0.1634537697136927 -0.2629361787817472
Ni 7.597141088736635 3.9960613699110366 3.977560698514546 -0.3815884759100331 0.40183899862895306 -0.181041657998785
Ni 7.726746716143905 3.768810531845236 12.516154737037258 0.4053338991560891 0.9872017982485966 0.8308208762212853
Ni 8.188586103887522 8.496215344246032 7.02559154666908 -1.02995333028351 0.8653518201186193 -0.27374458225116083
Ni 7.007869200073071 0.6950695060523687 0.5189526070107204 0.5680960421193959 0.704825765574683 0.022034354092220116
Ni 1.8208890522104324 6.513742062720698 9.235422958697665 1.278691106077688 0.7081985387016577 0.04453767740105878
Ni 9.086414676012973 5.022759070508722 1.4790680761074084 -0.2555054335353148 -0.7240745865019659 -1.2384829092899188
Ni 6.566479023500983 1.5598865592452495 7.372834427895084 -0.9404007787346578 0.09320634625135561 -2.108675602440607
Ni 3.5910687888567883 4.56059234990509 0.7165361768637779 0.3962931291100594 0.08291679139988946 -1.5077470871722227
Ni 5.65876681751895 5.73584461347317 4.866582198189689 0.2448350983056622 -1.130982257903078 -0.7057287370049266
Ni 5.287389502672411 2.5423943237408357 9.374823112682957 0.4561052161716854 -0.15054194674803104 -0.550181366622504
P 9.06522896590641 5.740081755494482 12.524485358324656 0.3054987347343061 -0.41368715621679075 0.952716105766901
P 4.189796960143022 6.28730046422549 12.566099366670022 -0.33096448310557836 0.8231949842449113 2.027352637890399
P 2.4110974765568174 8.592633056679503 1.320654429244935 -0.7368141455558214 0.4509550394293137 -0.002597328413531011
P 6.479235723727391 7.461607099531303 5.6432185066682115 -0.09821665498175343 3.4003870320373633 -0.06139897193277168
P 4.545671427036048 1.3481385691329635 12.47476713392007 1.0244223731629518 -0.820509209882632 0.4807034743363398
P 3.9267668219616323 6.255967435458446 8.33826996522497 -0.23080741656800252 0.1292943502231644 -1.386817821084302
P 4.696444579390992 1.315896282421431 3.866972201016235 0.03604095278395729 -1.6881963630026473 0.7062498996157192
P 0.31295476413937423 5.344654568016244 3.6560416337960433 -0.5987762448120719 1.2998733965822582 0.5416183075438414
Ni 1.2809080367175458 0.9408091951613817 2.4433988650347414 -0.3341184553535278 1.1636080143578993 -0.783638819218844
Ni 1.8496125106767975 6.500166841609497 4.846820386024194 0.42814498351333363 -0.725642188099402 -0.5583834428173222
Ni 5.877261501579335 5.395018365561415 9.19919903144722 1.7250729243140226 0.18515490883621016 0.44764474410915805
Ni 8.660600088029955 2.5998321480941207 10.139881839754318 0.1397199164318626 -0.17932570374894277 0.15537819179440981
Ni 2.4803374690295525 5.04579966682204 7.2091870923041395 0.3345912812248883 1.0454524543603736 -0.8019661567731221
Ni 0.7551869135680593 8.869065656962642 9.013513101797786 -0.9854665607250449 0.14540488263178186 0.44599769542403833
Ni 1.2720518643382361 1.3867365688764648 11.252741732429602 -0.1220160713941963 -0.9494544042964939 0.6370057206069158
Ni 4.060682332025775 7.1947762631419545 1.3894252446183146 0.2914134602858336 -0.7784822147185688 0.5040868862572866
Ni 5.845619325111166 7.746941335090976 8.133501439094571 -1.1534477859954457 0.6838586764047127 -0.6809191341604144
Ni 5.188980515340512 3.0404858257311758 5.114907816892824 1.2706785201858568 -0.5377534252717965 0.4063541128904873
Ni 1.0243700002597975 7.252832382897491 6.971614358052515 0.03199352218746103 -0.6242792741791829 0.19664054087830649
Ni 5.0884802347362905 4.702327478291826 7.143193150693225 -0.22810338737327812 -0.7202526416527144 -1.2020339224342653
Ni 8.001278967323064 7.055814371485906 9.26535209319842 0.7930775960342407 0.5731341187639356 -0.43087240974682567
Ni 4.526476991827913 0.07245149153266571 10.632553255137568 0.43891430621469574 1.0580089508691455 -1.3092157570291068
Ni 8.606999332202408 7.0049595746507105 4.902087811663987 -1.5156722555565703 -0.188717686486804 -0.027336483031423886
Ni 7.145594500924617 5.962313489706712 6.897037021445637 1.171075269269222 -0.9596341730429732 1.1399890893873785
Ni 2.223744877095135 5.127178252853685 2.49800071385917 0.23653711996292812 0.6431761110836859 1.3236080211950365
Ni 2.4111884023512657 5.420513958324849 11.8750469622164 -0.6345778278917136 -1.507031806272753 -2.076314669611398
Ni 0.8031166275958374 3.2537977395079807 3.6632547770696635 0.003599544425800252 -0.5723584169401755 -0.3145009382329164
Ni 3.70661728844228 2.611561575578012 2.578074514740476 -0.16962261752856592 1.1696405937052243 -0.9916513493795179
Ni 1.136172357114 3.460681199617258 8.115389020840377 -0.9538823581608605 -1.0510613159067188 1.2086043765629313
Ni 3.683413025698955 2.731983697745957 7.395551328380164 -0.6494994821985524 0.3360712082045244 -1.1966736865636165
Ni 3.8546717595432054 6.8021223123944035 6.075499737152424 0.5246752519315997 0.16006685551933078 0.8216068138221849
Ni 0.9680687483371216 7.399241097118895 11.557413156694691 -0.41418620734039635 0.2307151139645123 -1.5055714196771424
P 0.01022642410165271 5.57075974107199 8.068837741856441 0.41788396790695775 -0.0217751868935625 0.3450654412833348
P 8.713527992978584 1.4226886280015067 8.121258280872045 0.18620700424980835 0.402760482001958 -0.1929921454924418
P 1.7903107075373124 3.4564349650165003 10.444060446213498 0.3055010487271513 0.053154215425476194 -0.29883212134740794
P 3.7604453587559497 6.2149053466853825 3.748265848589537 0.6630178283999614 1.6652302411247772 -0.7650916523442759
P 7.011060695458223 3.966910560210762 10.442875683111831 -0.43545745801434677 0.8429443989576966 -1.2082503356576222
P 6.223543297158016 7.849514723808629 10.307121653483936 0.6720861092498167 -0.46257179773263557 0.16971183480826255
P 2.4177714298693567 8.510136083376137 5.7761383792831404 0.13891336137016722 0.7548522340044548 -0.04191618061781168
P 6.934019269821784 4.074048423809743 1.68187987914127 0.28846800450426446 0.28658107189419674 -0.2416243046778484
Ni 5.391735944381815 2.912489584885648 0.5610667072255554 0.11411378582798412 0.09414017091953465 -0.34443834922229716
Ni 1.527007791972576 1.1503749662068974 6.897582576212329 0.3414067614848249 0.40751882262254974 0.0309473403111338
Ni 7.055441575728666 0.6876254112608482 9.376419769633479 -0.07226779632647554 -0.9173027592646137 1.1169142098457863
Ni 2.729064979744152 1.6129508528855494 9.45243464305059 0.7017748945635011 -0.07285092252345518 -1.053637304164011
Ni 6.460668676500953 2.0622879438924615 2.78390778192387 0.33239813022831144 0.1029711389476033 -0.5601798725961127
Ni 4.2540905893977445 6.5576955917572315 10.416552665618912 -0.20513212328908542 1.5693723161831876 0.6022955708192401
Ni 8.062935748538772 7.47327287895908 0.43534179272535767 1.0633820422556008 -0.6872031673969133 -1.1706178700168293
Ni 7.5746824175077885 3.581967116832467 8.087894879114959 0.692163339615666 0.8240583606864711 1.8918902111833091
Ni 3.170264212147899 8.561891045576376 12.564049899263146 0.42606753215901455 -0.6438068026891492 -0.20553450093382666
Ni 0.27736277116034924 5.20419240075179 10.27677971587638 -0.4961910284489777 -1.666953137353155 0.7854313923428925
Ni 8.602853115975545 2.1708533424642877 5.966454250385908 0.4771239845151977 0.10445286569945236 -0.7124313458360828
Ni 3.739614259247737 3.1090529673249896 11.502917691049769 -0.9670708318266763 -0.6008891773900167 0.1190860422315949
Ni 1.1865361546591717 3.283830529414408 12.729746702260966 -0.7573516033875408 1.3613212194750943 -0.5370129475613461
Ni 2.9024422845990587 8.520201568821617 7.985929783962168 1.8762980131720073 -0.474583477481531 0.2668051748188502
Ni 5.394945624925856 8.272647000855406 3.4994746898188236 0.18145971937281008 -0.5140951624229082 1.1837631491495355
Ni 2.926728564296324 8.52362037869289 3.5288182622033295 0.9163990165034217 -0.3774847381543047 0.29855187110282777
Ni 3.778466851215695 4.199407816616257 9.290704023206626 -2.0508851737947 1.0674248448664068 0.7010493292513862
Ni 7.209024335132076 6.118114838494672 11.36861392784333 0.3136447608802082 0.05165269117928524 0.37773902025695594
Ni 0.7463789318598073 9.099580731049153 13.142890780787546 -0.257743321726898 0.20071573938894466 1.514873670914675
Ni 4.838970762189432 0.55564571136052 1.3563291646969082 -1.507839646886029 -0.06831781053979202 0.43214716269419123
Ni 6.039991395904292 5.895937659759112 0.3834977232465603 0.49586192724433314 -0.5743831606796882 1.3589012971796919
Ni 7.9406223698462925 8.707772390189975 11.392381930512238 0.7017016181234045 0.6254236721962713 0.502749912613418
Ni 0.14735252396778117 4.725177130436801 6.077162769932893 0.1630069119842612 -0.40682565321026715 -1.0040888038119222
Ni 8.175692826234688 8.604417039640063 2.5888674065415445 -0.5447221432801458 1.7836837919786956 0.3278187383877451
P 8.389059295488162 1.3903463229160806 3.6713462635176595 0.29335232917975934 1.4035089085867378 -0.09158115194310679
P 1.86971620382942 3.288331356239622 1.4952765082258455 -0.9366685653857353 -0.754328757400817 0.21326143726443914
P 4.593634783607771 0.9681323963932358 8.050885353000478 0.1465240838378896 -1.384762738327486 0.4972148417278018
P 8.415609627467202 1.6173880316546494 12.49727126804614 0.6067600343484969 0.18688140460901362 -0.900667464700778
P 6.22397974097137 7.928129165689032 1.5805803608038445 0.621362357642704 -0.24924865399232557 -0.9640009346521011
P 2.0266814027863247 3.3275385588059296 5.936631499064657 -1.3247948424142864 -1.2328758475157864 0.6352031201805383
P 7.080173391818731 3.751343686731628 6.119575106753519 -1.7568954681412579 0.5849611933058506 -1.717230031230836
P 2.417371356373782 8.631285611899674 10.402007266280945 -0.44273727950521174 -0.11149717414074346 -0.23574444885830367
