# total energy = -340861.3558944732 ev
CRYSTAL
PRIMVEC
9.38337438120047 0.00000000000000 0.00000000000000

0.00000000000000 9.38337438120047 0.00000000000000

0.00000000000000 0.00000000000000 13.73351689290113

PRIMCOORD
 96 1
Ni 7.327533441004976 7.723493077815973 0.2797352836788963 1.295028924005763 0.42318558262552924 0.2860018023519591
Ni 0.5426443002188409 7.98807608836528 3.289753858290697 2.7898407911735568 0.28440231907532315 -0.49556882148394654
Ni 0.960979531843324 6.06987037447541 4.762838559731385 0.2480196666812309 -0.5956981201073805 0.47273999651488907
Ni 1.79034785306266 5.907350328274963 2.503839944343547 0.2022118643184969 0.43605652505092646 0.34083289125922595
Ni 6.1626813315752145 5.959850308557382 7.8347658242286755 0.7935313957422075 -0.51474256619892 -0.4825400133244464
Ni 0.5005167020998151 5.89560234341105 0.19467217889708846 -0.7619474502883394 0.39823302644524966 0.8894487131668231
Ni 6.04373767651535 3.0411985897110765 4.379343797595485 0.309119619316345 0.8338722614530993 -0.3787240098780445
Ni 8.27759072493968 1.7677151537880944 11.305265995332968 -0.39174819005185435 0.46118803001123154 -1.2666534581868636
Ni 0.27885793816389964 2.7169373173930143 9.240431918282205 -1.0887104937180607 1.9490754021450498 -0.5542817619441227
Ni 9.520277925780107 9.153341066272688 8.981857082420088 -0.7672842891202204 -1.6286259596381822 -0.285513806971947
Ni 7.056738636542003 0.20660595457594114 9.549958477635569 -0.7184916930975497 0.018153273870259057 0.7839825757115079
Ni 7.403135289286559 6.825813790295294 5.808810821047827 0.16500388780963193 -0.5972541517405907 1.2365545819189545
Ni 1.0001457369726925 5.5912713585138745 9.694489656597513 -0.5558066832290816 -1.0991728267019651 -0.6922594988738981
Ni 6.1819078659092055 4.499919221479499 0.12495558309685285 0.5185030616826167 0.6189272658386502 -0.6845389903011888
Ni 2.3209870639565096 4.263514484529495 5.681899742706853 -0.803627603635945 0.237978480395145 0.7717412964503096
Ni 1.8925046511564398 6.104588860095598 12.113470115385727 1.0814131887256988 -1.2595471861593854 -0.454200800060121
Ni 6.196864964849362 6.218878361407459 10.752451055502311 0.6709681935952896 3.9732516991899964 0.2694603530535101
Ni 8.304718060595885 1.4398975825375855 7.6822963104465485 -1.6679414694083534 -0.4865293369894975 0.13750773927189222
Ni 3.961717010745144 4.589333397013221 3.7619402761244385 -0.0320328600658287 -0.6451190937426696 -0.2246992467877356
Ni 2.7495914606249747 3.9257880698154954 10.72487425620794 -0.941526664808985 -0.43672809719665434 0.5689596756712717
Ni 7.297825677363487 0.673430712224987 2.516900663298882 0.46889902550224405 -3.043256689169694 0.380684476038525
Ni 6.587607445442838 2.596192054430696 2.101502427890377 0.8792864279218405 0.10907519496281215 -1.6808221820257634
Ni 4.268243705273435 6.490461369327756 2.2402112229800704 -0.7193296156178128 -1.880386581419084 -1.925322008479194
Ni 8.315433874265684 1.8205341688032395 4.415215499940733 -0.40337600409876984 0.7582895418207779 -0.000521676831424908
P 5.27705029690219 3.923517293188445 7.632114023663639 0.8288897206368434 0.9819114963839348 0.5236959187374658
P 2.44918272626543 0.23912216220287003 2.9201577504522627 -1.2747313500989916 0.9477096536912452 -0.6366547650254003
P 1.436857369202196 8.068960776485827 12.421224155297564 0.19987653131710093 2.150236713711845 2.5623354423955935
P 8.032346849218266 7.925470213755038 2.744272963962941 -1.2076746656598103 0.36386689026055397 -1.9121134802087199
P 9.392476365199846 7.87335495182679 5.445297954892519 -0.9545205059654917 0.39770697873845057 0.23989575202251587
P 3.4196582330945997 5.243542266591463 0.11166778647881286 -0.27960284080415077 1.0216509810654018 0.8199633646814911
P 4.975421723858694 2.6108301186381264 10.934159164201331 -1.4181685674814415 1.3673404290859805 -0.898489997433485
P 4.31642733328956 3.459284223574074 1.7961242583998998 -0.3676366417156314 -0.9579187330137633 1.433487457226699
Ni 0.8954741945150722 3.585743961601985 3.887367842958236 0.04736871909195067 0.31155702511324407 -0.31185732996248233
Ni 5.197535581457468 7.9084581558011475 5.3374219900458995 0.14846372406276367 -1.2067562676105992 1.4032525696015576
Ni 0.37251809065522534 1.2277582520237456 2.4092574061396634 0.7437692367174158 0.34589205094968817 0.19009965443599516
Ni 3.5894691612752867 8.21981728819279 11.160748891432762 -0.1092230333945861 -0.929600088574728 -0.48322392676534837
Ni 4.331816067456346 3.234430420623652 5.9316710966206285 -0.4551168841164871 -1.400082913624324 -0.14548998614642042
Ni 3.9172961159002875 9.457033981704411 13.06499683576587 0.6118690734402882 -0.3900345497948573 1.6048748799651718
Ni 1.7883022774234165 4.049967647841865 1.1488131074106847 0.37947914287651424 -0.5120768464412987 -0.6073896975126959
Ni 3.5454986684060428 0.3033344705261321 5.287664770127476 -2.9276562914938546 1.0309185224102568 1.638911143614274
Ni 7.653136535875388 3.9882531938083576 7.344547375633767 0.03339734451352313 -0.3998001138220534 1.9687615677200672
Ni 1.7930877984143074 0.5050338585802364 7.610758401657427 0.41947445232252917 0.16269606561206174 -1.2662875902070128
Ni 5.195565072814161 7.025801650842069 -0.038576929211274674 -1.9627796391050196 -1.2567696234142485 0.6365254385363875
Ni 8.374314549202625 6.7958526755425215 9.998714609362931 -1.473644489061559 -0.22144860106092182 -0.34526573021959894
Ni 2.2357484900717024 7.7303523245695835 8.46252483778903 1.2715077009553717 -1.0499660259600112 0.8330222547479781
Ni 0.17201977453608966 6.899388829686617 7.874853476733152 -1.3331092758172525 0.5980352528809894 -1.4366622554102548
Ni 4.188850973697107 5.492201690627944 11.86669299627233 0.9635371076418051 0.1202101285337091 0.2628490183845795
Ni 2.3790795354361265 1.7519886181395983 0.5675815562686277 0.17467020725480242 -0.9211946381198522 0.58332417192306
Ni 2.6618381423763267 7.348139331389283 0.5887326207109157 -0.5475292737116376 0.12944295998588676 -0.5998273117844056
Ni 6.449371572427539 2.655635731837153 9.292029217938499 0.4097824218457459 -0.3333507239495678 -0.08001298748953317
Ni 6.206060671851466 1.1641483563428663 0.24457484112013791 0.4998347958491521 -0.5805358105446453 -0.043854021070472864
Ni 6.059614346155716 0.2894836714385755 6.777229492188363 0.7376818928727553 -0.7878448868803916 2.795356835895779
Ni 1.0764044214687105 7.6555949799922764 10.42765305416331 0.5919754198401548 1.1318044966940572 0.4948936497937928
Ni 4.42384820447332 0.9178394676166175 8.933638735918343 1.4751709530084143 -1.3647423293415013 0.20522494011320783
Ni 0.28206048387799965 2.556434696708335 6.332950168431108 -0.004435667173850425 1.4226638842486337 -0.2997042395397161
Ni 3.8889489415601286 6.092803341733718 6.7902076374481695 0.4242618464088435 0.4993149187899401 0.10945391845846957
P 3.9880186094460592 8.404097379840051 7.533713390378983 1.2632158932602247 1.3856032319509104 -1.8449866046532353
P 6.707714638939704 2.314869103787763 6.291035572913049 0.44850992032293074 -0.7424080947038311 -0.5491902063538283
P 5.479543518438313 8.363739486150205 1.7115256306554432 -0.6048592177813583 0.9672353824289988 -0.4695721403098687
P 3.1324988235176785 6.0634333795739375 9.942983933242937 0.3712672964896832 0.941546719413643 1.0075901320969614
P 2.2759468663951847 2.048005933236914 6.230731440065681 1.7368719738314795 0.1587540502451782 -1.0388205508661528
P 8.771906893175219 3.3222118889957755 2.4734753444876207 -0.9108135519958444 -0.25370231888830497 -0.3593936849805488
P 1.6856669272305476 3.081012247680389 12.669732507004726 -0.1416212472196335 0.6137035555458656 -0.18371123441114812
P 7.830829498629305 8.607716606315206 7.909008959883824 -1.316068775395198 -1.3928100341119949 -1.7879286832979788
Ni 8.372756909036962 3.2228794866240706 13.150982326260234 0.13626512511404276 1.652760647902857 0.8823653239574805
Ni 0.10397435773286906 4.640510321492276 11.454233633754702 -0.9593631787697736 -1.1961507241806109 1.5484160256464945
Ni 4.872842673912777 7.262309604911483 9.135000322490738 -1.201553640363737 0.7685544140818957 0.6206051677617054
Ni 7.541117811190576 8.88053821966844 4.737294199351969 0.3641815932874954 0.5590275041592243 -0.5307021748519699
Ni 1.0547663598902908 0.46164794994184105 4.846750324463031 -0.2543857181085748 1.0477139967010407 -0.08717376690403052
Ni 4.382364305844441 2.9274251739962716 13.505801495948758 -0.1564328583111693 -0.2814095549955863 -1.334041557823535
Ni 0.29637669834035657 8.904625341989256 0.6498136969662165 -0.09321560222273624 -0.3482862622134776 -0.43900172372217944
Ni 3.6444838859215465 8.055364266847002 3.640865656717453 -0.15214811489288635 0.8871036099734142 -0.8249366495263664
Ni 5.476644055720302 0.7949782537063663 4.763730918645568 2.3870713103105343 1.653232702443269 -3.1769116303543994
Ni 2.5236773363569633 4.827239473881934 8.321440172277978 0.7169490312007782 -1.7084656547746448 -1.9177051153638847
Ni 4.8962448098956814 4.575793187621348 9.630518500998695 -1.275797843690293 -0.09913968101665507 -0.7980884189852706
Ni 4.6055478681352975 1.1490129732873628 2.1293541600573613 -0.10334163491314459 -1.0768505090556808 -0.13738766875426014
Ni 6.077705492176182 4.572734207536974 2.4342246889878245 -0.4849956739537906 3.6300996728792896 1.1303963034926208
Ni 3.1892963893174078 1.5959337169641001 11.459782023091789 -0.6841880347196734 -0.1284875380511529 -0.27381528758809615
Ni 6.234257712199754 6.9407507444471 3.233488329824661 0.2910529916226213 0.7601883015053875 1.1584156715236824
Ni 8.459337305474117 4.62285081069844 5.339220782936005 0.5760957724954207 -0.8022075833599668 -0.9967768435315415
Ni 6.381220123492559 4.250950146084785 11.404367566692171 -0.29189579923889086 -3.441564534716938 3.726797577223672
Ni 1.9789912138486754 8.006795920476707 6.080693158614416 1.249372559619229 -1.2969834766289727 0.11436318283462883
Ni 2.9936061142879438 2.225783346361259 3.5563496026685253 -0.2284286319231808 0.706987292002376 0.6001304448471213
Ni 8.406321239594641 5.6783303070501185 3.098226048185858 0.6358572088247694 -0.46125102203868307 -0.5093974998369227
Ni 5.9785044570473636 0.9680733629592325 11.654084497033894 0.31396974831979474 -1.131613977949806 -0.1352261423265671
Ni 2.544583494725011 2.0671011003280166 9.036269394423966 -0.34061280482861983 1.461566217740786 0.6519733976603416
Ni 0.8991308955545821 1.0304634199561593 12.445739159495213 0.9520802719551152 -0.5926045687837214 0.1232064921578717
Ni 8.608204541788787 8.751788938264495 11.54249928425061 -0.5125843822053365 -0.24939469265188666 0.5431182891281356
P 8.381577281059387 1.1662596156035534 13.478526841313027 -1.0243897201528036 -1.5351272789573884 0.7062632693521579
P 7.9759903020196585 5.761767273032473 12.919339651864892 -0.7292340192157183 -0.699343402303873 0.13819679491911682
P 0.4405635074584459 4.860231418595606 7.1323648815972644 0.7504967852492365 -0.6548864575420785 0.028609693316892663
P 7.793455518027898 4.446931305723499 10.00922023544411 2.3092746137460294 0.5044329567427958 -2.6039726583204055
P 5.858894582398571 8.195955366859778 12.137559114381444 0.2152841241214228 0.5212243172685217 -1.4386435475063417
P 6.559644989456849 5.233164254403375 4.543638239912358 -0.20387511095353275 -0.13393082055391126 -0.2167725357414912
P 3.2102869980558837 6.341894400996828 4.76027033013294 -0.8441217070952495 -0.5538385037591171 0.2793102492643964
P 0.981097486754049 1.0324057784759915 10.231579937454573 1.5809265966796902 1.5752570570987388 2.143034539536451
