# total energy = -340873.8238862018 ev
CRYSTAL
PRIMVEC
9.20494671592500 0.00000000000000 0.00000000000000

0.00000000000000 9.20494671592500 0.00000000000000

0.00000000000000 0.00000000000000 13.47236996902901

PRIMCOORD
 96 1
Ni 5.890871215042543 0.24819573452509594 6.520896415703537 1.0549089717875832 0.27429891209273405 0.23312886561232757
Ni 5.47994399245965 5.733503449322433 10.020586706599591 -0.3008753770296818 0.3228271987104247 -0.9415693451214624
Ni 7.260346338625549 7.058831649391538 1.4891412693431008 -0.7811222234445774 0.8586353273303922 -0.31361725007638247
Ni 0.96628005607761 2.384246837932349 8.676327613515745 0.45660889528098136 -2.324158215726081 -0.6106280019443354
Ni 1.4794466196673626 3.570589550483442 1.3976772387335252 0.6438574534214266 -0.03386297129603201 1.4645695233434841
Ni 4.5533188459937755 8.272973300435538 12.456445679674232 1.3332422018506909 -1.3049526108773786 -1.5807959846390969
Ni 6.327728771974615 7.66147949811028 3.9751165737504026 0.683379679885765 0.6495035959636104 -0.06576856175537706
Ni 7.015338277080617 4.869637628235578 0.43335047230763546 0.9352261765122538 0.48544638833796394 -0.24316516680240705
Ni 4.730624525878003 7.669174833401693 1.1940012280564236 -0.4453896295263942 -0.9575927171329122 1.4649482468391417
Ni 2.276825112034263 5.550104094841417 0.5301239160704256 -0.7760319534058635 3.050602330901488 -1.3148688415498258
Ni 6.057582001481295 1.560809141964979 11.229557018688189 -0.5165549368173105 0.2191019552056162 -0.2137903131847157
Ni 8.300974747751903 1.5221115467914097 9.92675148176625 -0.438358947931858 0.1656543769094373 0.22686360142890605
Ni 0.5577341531596551 8.713871828890255 9.918169710124879 -0.1692454366948053 -0.069319512331429 0.36744200920632203
Ni -0.03711434437198662 0.29370591061873164 7.6970750263063294 1.2160163527562864 0.18043230654956022 -1.2159986121444737
Ni 1.5753529574678904 5.9347696050003815 6.2882957015740315 -0.3252257808495883 -0.5880737707929032 1.2607039254716481
Ni 2.17510124803257 7.442107212625859 4.648520084890808 -1.8410042229667196 0.7830500365949096 -1.6846806365399052
Ni 9.277849697274988 3.631084459018337 10.45640502506946 -1.2803414971969176 0.9195504176482099 1.0929998651220336
Ni 4.008570110891055 2.1232037595481303 4.998760936051172 0.11286834345665722 -0.08264811111953507 -0.6403620386736584
Ni 6.034643274751388 4.1263658115181165 7.61405837511892 -0.641738864416527 0.12810495790075357 -0.7827479319734584
Ni 4.870944730641536 1.7951486704922694 9.046777004267941 0.0892267927783173 0.3361365142248211 -0.1400230494945782
Ni 2.016941856911669 1.2776465770912062 6.596139489554105 -0.6953728476918991 0.9155310120761717 -0.4733763445473073
Ni 9.025845876374227 2.1874819011030864 6.036860746368255 0.3636802281710446 1.9101895237131294 1.4808039829244755
Ni 0.0785255577798967 3.7821836561577613 13.214589007990746 -1.2058859491905038 1.7025955691471129 -2.4779716341365328
Ni 7.126460391480077 4.964264478469711 4.200159106291655 -1.7268919798006321 -1.6553263517475039 -0.8511279632097535
P 4.158399025410605 4.061213200043682 9.067295750557523 0.48798560982004985 -0.4358150984640816 1.9474751475374652
P 3.9337615105162693 0.850010535583702 7.293995020632444 0.57651023432502 -0.23565008937228446 0.045195622700031836
P 2.4801255608933146 7.771506223873761 2.3752600486440625 0.8560547110874096 -0.8262692522948608 0.27333114886282606
P 5.563055454596223 8.516241627088034 10.271954465695764 1.0360429881210156 0.6151004358933923 0.2380558706002997
P 5.735629791968744 5.800625919352325 2.716299635262206 0.4078764630722846 0.5810086364160058 -1.2053331620108272
P 5.617659197357788 0.5815547137662591 4.2683972158398715 0.5670938261071266 0.5221170042861202 -0.8453668923562603
P 1.5353206450488006 3.8006487788785464 6.4806275361588614 -1.218925298872965 -1.3457855857333403 1.0318790865513132
P 8.329095859373039 8.88482609567511 0.7954657044798716 1.3915936452063904 -0.4600642008194335 -0.07896911960605109
Ni 8.121570340060927 0.42906096722892867 4.850713178683404 -1.361518680197881 -0.7059159133150681 0.5411938184119132
Ni 8.651867309125944 7.366074354363803 5.288416670200739 0.08206627047413609 -1.301064845787198 -0.6886039043991817
Ni 2.0470788518208662 4.588408102131179 11.277477970275628 0.7002029220906909 -0.13869713159430308 0.2776675714546508
Ni 6.7748222294378495 3.425040936096078 9.718010909513387 -0.3933199054143484 0.11688466370490193 1.532851338439018
Ni 6.400696383045235 2.555072235465912 2.8005018835614988 -0.6020536300117632 -0.2052881892509755 1.5344078842928606
Ni 6.708371720503977 0.3311258592152098 13.021799687563831 -0.47859851217819505 -1.7122343777884577 -0.3501436271371905
Ni 7.413682337769536 5.4512981988868265 11.462871116173059 -0.9423913268021255 -0.5465023751090201 0.7144149519250148
Ni 7.646963297446931 7.736499812255045 10.710547155047012 -1.0385274451057662 -0.05662134803847023 0.5461930713987174
Ni 2.2687063492028905 9.15098712432491 0.6316038489893161 1.5957744603258002 -1.7897143144434917 -0.05762073583726205
Ni 7.768266082698429 0.7065219882276995 2.619123014841804 0.36575845085631203 -0.6897555015051218 -0.5447280568174167
Ni 5.851428019200786 2.793692064125389 0.48708250663367647 -0.006789769228323791 -0.052827685323992894 -1.5308865014031634
Ni 3.5922119698608714 7.876203285601681 9.927277084212589 -0.691453458032835 -1.1277976895275095 0.9389105673423764
Ni 2.5160800820036764 8.111325234583243 7.1248624127640605 -0.973834118692439 -0.4980792466106261 0.3620331794859249
Ni 8.346935045730408 5.1198833043508625 6.148412731770238 0.37678334121190593 -0.07080843817212967 -0.1698095367283914
Ni 2.986305570073757 2.1688510893449267 10.739728676507347 0.9894486853012442 1.8318266702325097 -1.0871292652738695
Ni 0.6201418495815786 3.868535259469668 3.843424165360844 1.5683261343068602 0.16142799753291553 0.27592564906287964
Ni 5.230296637868219 7.71282468980347 8.20661299997757 0.41328812100615925 -0.5214999395274116 -1.1055278223857152
Ni 9.064405397349983 6.2846220074175685 12.90282483328745 -0.33713513069266454 0.4565070795957945 1.8023250612289667
Ni 3.422003303744204 5.97866799495822 8.273948104272094 0.7964603964635445 0.38834867745200213 -0.5677430296553513
Ni 3.873183757462687 8.903097914518957 5.275348407625117 0.27893049732747444 -0.24287926013087202 0.49014430803426556
Ni 8.423059953457672 3.8348543601499507 8.000472825116843 0.32764724580688737 -0.0466665508186035 0.6766369618452928
Ni 2.765442083252961 5.350605288895467 2.670263856722231 -1.1069301020498807 0.404058117767459 0.25201567521450147
Ni 4.783359664495838 4.90968835054771 0.9163717565363217 -1.6508297494287312 0.6257633149238772 -0.4396776667432815
Ni -0.10067357960366578 5.656209513387023 1.5732091254231892 1.300895152978553 -1.4343467199032007 1.2985842454571894
P 8.323775400284 2.5002751888274113 4.051289347199575 -2.0012484846041794 -1.059751130371233 -1.089861319493052
P 7.348124708648184 1.7818935475022744 7.684356551698499 0.14636364700062535 0.7686927394319728 0.08367578105310106
P 3.7261807615250317 6.678308365166947 6.083690911792978 0.21124466394472652 -0.1794815126005167 0.9249116819601232
P 7.6937796554518725 5.597932996963649 9.328309373112875 0.1193899466252589 -0.30241135405823405 -0.6471893460081369
P 1.5968096878079452 6.915611886473944 9.091410869452794 0.9942962432015328 0.06571611125088682 -0.37613773720810706
P 5.205397257529373 4.239328915221742 5.455608875342532 -1.2083752912712609 -1.7107359388660603 0.16946809422857265
P 0.9589989433796334 1.6507506744200091 10.998034203796271 -0.44231099060107043 -0.7801315773965339 -0.39328776662483234
P 2.909729619966972 3.8596340761840255 13.136355247015562 1.4726337884088574 -1.816739436882084 -0.9407491632130122
Ni 6.456487563907985 2.4697055614317347 5.6034412369617135 1.019861750375463 -0.03389279609270292 -0.34647723402919683
Ni 0.8875667173886884 1.258859281242192 1.7044836292407024 -1.1536138792596649 -0.25771658225402067 1.8438437492980437
Ni 3.6349781513966484 3.1694655959452325 7.158907827966003 -0.26451432190214447 0.37399600827475593 0.06947917783774486
Ni 2.8234884760133157 4.394929331209854 4.848382486224329 0.7349033016863538 -0.0783721094520005 0.8363222656554887
Ni 1.5254989671110752 1.9347048646945735 13.086318998717632 0.38164092641452335 0.2573802819605245 -1.5565617946820807
Ni 4.654085395557302 3.9395606268243926 3.3309893950194973 -0.016034170644727223 -0.0033357492414523193 -0.4040290643017364
Ni 0.3560132731235779 6.240042451417188 10.788687025567684 0.7146566356221756 -0.10066074564687179 -2.5725784602798405
Ni 9.390150044829115 8.545872349938586 12.287730976377894 0.23166873612703326 1.0996687925017772 0.8312227396453942
Ni 8.155242034434123 1.8740350621757826 0.366095451047843 -0.03832254972928239 -0.6441060790971229 -1.3004048436056959
Ni 4.198560207080987 6.484986078336475 4.0469114746342685 0.8201325432695037 0.5327253759295858 -0.3753059853354311
Ni 3.55913859701153 2.2137436135270145 1.2585877353198276 0.04892706471800606 0.6427757903214737 -0.3055622409823899
Ni 2.639546029687569 0.15792650597392432 11.663353930902083 -1.3190504837313413 -1.0540584508618298 -0.06073357043463088
Ni 3.8270209506607245 6.075439597731706 11.92649573709305 0.3170363030602604 -0.026566180524302634 0.4745233136675569
Ni 9.029270116479974 6.994581122676145 7.7964470264719505 0.1229846059550527 -0.6454728775376625 0.8598638004208546
Ni 1.658933871877027 4.445528922234856 8.726781766385718 0.6687063941443064 1.7830253324590903 -0.29954997335003897
Ni 5.918191496316366 6.102235197053842 6.037116643881535 -0.43815248834800674 1.1409409117776868 0.5961223521289927
Ni 7.259342999454779 9.059876563661733 8.84863868941777 -1.926215466827741 -0.6014327085983127 -0.9758971718690549
Ni 2.4353250861764346 0.38431940416978233 8.847749491583858 0.5028388727827985 1.4575604390155026 1.2963124187038773
Ni 8.299860949222882 3.4051030219319602 1.9020429529547123 0.3171237205677442 0.8905956822870726 1.5228590031129967
Ni 3.734916255773299 0.4058672634803933 2.9814757346342775 -0.7477287355857961 -0.2803965403500397 -0.2396890353283485
Ni 0.2898941422644559 7.777425004486655 2.6947167971548165 -0.40361923045782744 0.6687192496601129 0.11905930275871754
Ni 4.692304333511787 3.827324713895912 11.617480159420875 0.33020420790078614 -0.4131832199971788 -0.20519177288242726
Ni 5.582625170899509 0.8041680609206643 1.5015762315980898 -0.60141162555239 -1.4245865551926433 0.6725908168003772
Ni 1.4805328033568206 1.4423506851884176 4.193355730318109 -0.9920498703695172 -1.0398405074902348 0.12993969711664718
P 5.979266316482074 6.602873828428745 12.94095172177673 -0.39951934935684097 -0.35822563281437664 0.17085109061902834
P 7.2153893798178155 7.612196214437756 6.862878588845414 -1.1910347431102843 0.8488579362286542 0.9240876433969311
P 1.8454537032286056 6.997057253290248 12.27733030730401 0.34002813596974346 0.7970167831876467 -0.15279654711016263
P 4.237626000115389 0.9870372104820817 13.020546894342347 0.21802260609850838 1.5673578568563198 0.49567603648577213
P 7.144023429441821 3.431530423393263 12.191228158042819 -0.10033498687633688 -1.4619205157564112 -0.2645066085926606
P 2.5511877480341223 2.874861282546068 3.1407866645649345 1.6433802351292213 0.47751993440203566 0.2276390461423499
P 0.8171626839241201 8.902048550615582 5.583933193800118 1.4593928642385512 1.1305688245147432 0.6433362908106339
P -0.2597230890531314 5.7469518761893665 3.7786093754237235 1.3666932824202849 2.6254161729061622 -0.5339448501589837
