# total energy = -381171.9600804233 ev
CRYSTAL
PRIMVEC
9.18819862429133 0.00000000000000 0.00000000000000
0.00000000000000 9.18819862429133 0.00000000000000
0.00000000000000 0.00000000000000 13.44785744400985
PRIMCOORD
 96 1
Ni 6.168322548538201 1.2400484700889192 9.513364345411867 -1.044165360117834 0.5712124762611904 0.5229348722017253
Ni 6.002218294403544 0.3465136146562074 12.977625775468043 -1.2254366176289218 -1.123018265860995 -0.6234968874872037
Ni 6.690432745293803 7.271448483218633 0.9896746525735778 1.1709713967015059 1.5758098442784152 0.6783439172340705
Ni 5.111312182587821 6.405286190209449 6.137682662695584 -0.4287345374682165 0.27328898277098096 0.020201414648539404
Ni 9.05684410430071 5.801263203011848 0.8475791613581515 -0.14271859404887036 0.30511332637042937 0.46986293207741014
Ni 2.4685473745484954 3.5392849091943717 8.385976053531085 2.045998020905728 0.8683049892096724 1.0901423410685804
Ni 4.468597691121992 8.726684564317269 6.667366691550046 -1.699444682222957 -0.0825223841749482 -0.6781575122548773
Ni 4.557089231755407 4.953385425199477 8.66413222712713 0.023279539353230874 0.4050860448113411 -0.7719310438636124
Ni 2.498023115629587 7.766444305931121 5.329372024477198 1.6178604935915621 0.726294219861104 -0.5580268308088518
Ni 7.834832068046635 7.912830685888715 2.987818417939366 0.11486634772329249 -0.5322674624565608 1.3013620653126428
Ni 3.7489044718577236 3.65375148724557 0.04401055243276883 0.9288670670634455 1.255597200372702 -0.3653851266772933
Ni 0.25377620745372315 8.475488403028 5.080546418424501 -0.4215326204031386 -1.5538765345404335 -0.9507453551937756
Ni 7.708411643628074 7.90673891022264 12.435906125278755 1.3855276415179685 0.026603204409825148 0.8402992480253658
Ni 0.11295879466235552 2.9839593745309934 4.534792230233747 0.3576095964969325 -0.3818155043191747 -1.3876426309784424
Ni 7.308697440308017 3.0322801109229705 2.970026390187051 -0.4085081831190126 0.37278836111989994 -0.9443265961516253
Ni 6.772198524558341 5.671654473682084 7.8358914673442195 -1.933902293949037 -0.8645480932704014 -0.6007331114281267
Ni 4.599538709247503 8.930175598520181 11.228020025539042 -0.08229946953086473 0.7610341944454507 -1.6159223960285847
Ni 8.503438903142927 4.55758539447934 6.098952567993272 -0.8684903657476011 -0.5408325784177525 0.41025370505520964
Ni 9.103382330165962 7.224322212643532 9.898994877931083 -1.0949024814613852 0.7989667078251659 -0.6778847182094647
Ni 5.92512930822201 8.02161895721045 8.324828591905565 1.144600620017461 1.6102212318787494 -2.177007039827154
Ni 8.508676176340003 3.281849961061568 0.9462117167768541 -0.34615713168561674 1.634853685715449 -0.8415786289584217
Ni 3.1157273305297277 1.6293524444049623 12.317631957731296 0.39439385520481757 -1.273992415050438 1.1665598978973717
Ni 2.1323695644877123 6.294641902772257 0.6886913183971506 0.36214373692186014 0.7106295167406537 1.2721731024535123
Ni 6.081595142034328 2.68809937988911 12.289983749350027 0.22190574320299847 -0.32181958338151667 -0.442913657182076
P 1.1686469788354386 9.027175411049198 12.664062878600182 0.20593533591667115 -0.047616830547014766 0.933342843446612
Ni 0.043035684562225236 1.4279838840766546 2.0273723439047724 0.9689785903723507 -0.26913485139329135 0.5441112491690242
P 6.196778399575653 3.7348281516157553 6.557955460363815 -1.1450590477111182 2.7971890040085117 3.407552439437551
Ni 1.8613085178439173 1.2286826684314034 5.5300955732643935 -0.260270459024126 -1.299661280571452 -0.40215601564873965
P 3.3527461013925235 7.281527937073357 2.6978554091534193 -0.21409601735059255 -0.5515738760946565 0.30433942431888233
P 4.4069816313683114 2.1950606434765807 10.6969099882632 0.13874726810594815 0.044495254198897556 -0.49984508026179725
P 8.910797687690998 4.97382916706526 3.614649270500307 -1.2546662039180005 -0.12406164106931536 0.692863193896168
Ni 7.03924432841771 5.290546372509536 13.374754419704491 -1.6108704354269743 -0.928817958993065 -1.2460159844421703
Ni 8.134284648337742 0.47956883727759164 8.614993741060522 0.6238606985845256 -0.8026261589546241 -0.04932250038421183
Ni 8.044708900270544 2.8253343140497056 7.881130481928654 -1.0357943624453194 0.3499610788127392 -0.4328400749961578
Ni 0.9995106191656317 1.7001750791471872 7.986090949717227 0.2797157122329312 -0.5224959848920937 -0.4796711764170836
Ni 8.020213162825971 4.597802139713735 9.513255924668488 0.5967116489735594 2.2532268788228422 0.7568389254171805
Ni 4.308906799604105 1.8722792269620043 5.34072220619711 1.3943305845215794 -0.8226270275565832 0.6661175503712076
Ni 5.486677659640767 6.971986714728934 12.33680864701133 -0.31414664021729116 0.18952475576913164 0.9057849884330013
Ni 6.296773564845454 4.82335403873451 4.6309853189264425 -0.829976525943119 -0.5834959216142338 0.20066714553919635
Ni 8.786527301742815 6.580872665290392 7.583071751363857 2.400199620162376 -1.4105159360321902 0.8724310955629039
Ni 1.4558608786028495 3.531346305611434 6.323155639460834 -0.30636905315440144 0.5138223683774957 0.21717902715129048
Ni 8.646976941537197 1.0407748190394421 6.168679969463406 -0.46422681683755534 1.3312647664093458 1.621463637561788
Ni 2.673618778909123 5.765897826633692 6.932894605002122 0.8584887744501989 0.5685560124749498 0.923005723186662
Ni 9.48672316359621 0.4284245674584887 10.740171702510773 -2.2973115278468823 1.1239217515118707 -0.010603743657775286
Ni 3.930325453044183 9.324827104416396 3.7481326631760488 -0.6455363837857463 -0.060245575054618826 -0.46801919400045194
Ni 2.6915173897650972 0.4806006719794017 1.0732348870230088 -0.3412473530888252 -0.6154272231051916 0.4265172181019235
Ni 3.3362349085238443 8.153653370968334 12.9808398073353 -0.08660298200222505 0.701920676112746 0.12364692212939996
Ni 4.88140507743474 1.8024672940648296 1.181519645061938 -0.46026346131443313 0.007631034182696536 0.6360541553269239
Ni 8.061413045309642 1.0025151601050073 3.981238180258783 -0.44955430242704514 -1.8160825200243755 -1.2271078346837576
Ni 4.8267904250076805 4.051995578791009 2.7551429085507073 0.28536056922353437 -1.0506016026614808 0.1802433304672057
Ni 2.677615645296365 3.1288572663167855 4.455342795834091 0.36344034424609667 2.209708643825233 -1.9367287076542388
Ni 2.3358330340948505 7.1860166127161405 8.849968137736738 0.05897133632788554 -1.507125908648456 -1.435199040601167
Ni 6.843379499045629 2.521554092222068 5.219301999451968 1.1159747287506523 -1.8382608558936278 -1.8242195473092129
Ni 8.829234048795469 4.629823011804635 11.944440408465066 -0.4890693298025319 -1.0417168985773415 -0.38080351811489255
Ni 1.5505912060798002 8.740577120587409 2.9830175841753785 0.2623337693110579 0.38869911881288544 0.5554423579111273
Ni 2.6293040971029793 4.521190939858952 2.1146087766106074 -0.23105809912622788 0.5544170019704066 1.0884803799851255
P 1.248124896650727 4.2564421856474235 -0.08165827734101891 0.7894790800497048 1.0511798437624542 0.3303993546307277
Ni 5.966025980152166 8.805115027493143 4.88377747031103 1.3770111194065253 0.3278560193835838 0.08622400139625151
P 3.4388303339950017 5.870735172561143 10.179624514587923 -0.17694049134621784 -0.299248125838904 -1.4295336147852735
Ni 1.9784672380823844 2.5875804872996007 1.0750293422079018 -0.8191161861898474 0.05442871126252561 0.3611430635714877
P 2.0217620298448864 1.6517073315777482 3.14608605749545 -0.3717036126961534 -0.16878083835356092 -0.671682703163811
P 5.800959992458333 1.458663279173215 3.459690301256973 -0.30363005695668355 -0.7704757994743247 -0.208262441387951
P 7.975806599033915 8.281507154367148 6.9631926898571415 -1.2764573316511632 1.8748042022353002 -1.287430799943531
Ni 6.180478535274575 1.0964369261059181 6.930595717714563 1.0419696380180958 -0.9168795556842662 0.5813436511579213
Ni 2.5290516622726193 3.6273905454869495 11.086319626863043 1.448803518758479 2.1569035842090596 1.3359223197860153
Ni 3.521165781572204 5.540088658052359 4.385951682432401 -0.19544600634957307 0.5143504729668239 -0.3770106267313636
Ni 8.035015350756657 1.4020180348574633 13.168720092131489 0.5138650486899731 -0.9369953525975346 -1.1263452733516988
Ni 1.0215622957849024 6.1598142766426 5.657029617984211 -2.0544564360857263 -0.4789129580948204 -1.8083203595804533
Ni 5.634993561302546 6.895219315498098 3.589650019772927 -1.2792413221542032 0.2101457744535929 -0.22981882740248807
Ni 1.2455430128465543 8.744785315542252 7.3051048546587944 0.006303316510208499 -1.1550076742833981 0.09823208160072114
Ni 6.108093906771819 3.6202053741885045 10.004492855337253 -0.23086886593355727 -1.2068570548545217 -0.9354688886506791
Ni 0.9557931702679273 6.559409033380969 2.9275309717019975 0.21789713626423765 -0.8465331447502195 0.3692618360238802
Ni 3.970248175923654 3.991950700996453 6.413498602110409 0.6438160586605299 0.2894038860549726 -0.8888272775327402
Ni 2.2398806762052486 1.720508562629873 10.095078386429641 1.6184276789489416 -2.871041371213288 -0.9943453512719134
Ni 3.1176109112409573 6.12266638973772 12.131003105583252 -0.44323298819470763 -0.9689819328064602 0.61040920106531
Ni 0.5959695311322717 3.1453500827882817 9.72815318860272 -2.2903376676322105 -1.903400268705438 1.443140921156063
Ni 6.95240666353074 8.581795860730068 10.447613946442626 0.7259396647351626 -0.4375801607843044 0.2480744311785663
Ni 0.7586383178136185 2.343569497308778 12.31964968614196 0.3233113374356948 -0.06025714501884461 -0.5583019388471094
Ni 4.87668234335878 8.584552320307477 1.6099910723332427 -0.6797276849554745 -0.7184348717176853 -0.2121232098949379
Ni 6.8329508936444325 5.350398298133674 2.391499735260622 2.2746541954586825 -0.5389682715155041 -0.23718040997388182
Ni 5.623545065857708 6.767190956326048 9.98882605791912 -1.3940670464475475 -1.7667294235125444 0.44586862604534183
Ni 2.1411902351354204 8.452821117103108 10.549494530063376 0.9975728570702755 0.03993797384551832 2.1038388431735964
Ni 7.498856398354862 6.555393790596544 5.468087177430863 0.3692145277257125 2.207511379063598 -0.23565497446829092
Ni 9.07936437904814 8.419954930741802 1.14901823018471 0.759787209412227 -0.37440995588372294 -1.8408242457454298
Ni 6.990675510663766 0.5762948414885866 1.544190706941057 0.02684231700382474 -0.016449403805274897 2.153725186481078
Ni 0.6610734310712322 6.774927419539976 11.985739523493525 0.8520576741128745 0.9436496246892586 1.54509570302401
Ni 4.894066415093638 2.620722319618647 8.096497262810903 -0.4341443956298781 -0.07069608096398147 0.4642885233134262
Ni 4.92043654505085 4.7224492418041635 11.477544853504543 -0.5133991647971482 0.6854525032543937 0.8789925508305056
P 0.5979982853812446 4.60665956315581 8.086761447583495 -0.4886615528411519 0.30432811146497263 -0.8374129276165061
Ni 1.1656975670876113 5.236133860451486 10.18000123073017 1.3603403436190638 2.0820212330778727 -0.6002340603045211
P 7.84227450890564 2.402291274506178 10.660520127742108 0.7310494751579023 -0.5390968266735683 0.47197740731725163
Ni 4.852728709631097 5.916189190992614 1.1930572660331125 -1.9048238885258422 0.08007340841382339 -0.5663654325815343
P 6.05740261514327 3.54305207061683 0.7964762384327098 0.2534246397468861 1.1626230247368108 1.4454014350554654
P 7.272670513631283 6.117024835802623 11.167450501604918 1.063126731711685 -0.1483999607043638 0.17040140467611944
P 3.105050643766564 1.638310938031541 7.278061229744836 0.13080538755105214 -0.5953461360846005 0.15474132954135927
Ni 3.6992330702728156 -0.00817749674631292 8.841696921364795 0.14189481259599432 0.8414523877932025 -0.053269657957417935
