# total energy = -381171.6426774539 ev
CRYSTAL
PRIMVEC
9.19816929401883 0.00000000000000 0.00000000000000

0.00000000000000 9.19816929401883 0.00000000000000

0.00000000000000 0.00000000000000 13.46245052699601

PRIMCOORD
 96 1
Ni 3.4262444968953933 5.9343553239492675 2.5762011954717665 0.30050693794666955 0.8884814641575473 -0.37362114143384045
Ni 1.8388888179473122 8.62266748670613 1.9131759930551702 -0.2290220425328056 -0.21401477049069595 -0.8394710956971155
Ni 4.034418256037138 6.766578092077453 11.827839502216198 -0.5422397431779242 0.681386046494504 -0.7720092053997155
Ni 6.100336289839749 2.0724855267173137 13.048049331809047 0.2539478592402078 1.6491112240757275 0.646267605524816
Ni 6.350351730896507 7.3644774960571215 2.518340111186143 0.07744702653456985 0.4707399353657248 0.025282942936504845
Ni 0.9773606822753695 0.40453548793922933 3.771680826954715 -1.0439923248750795 1.8933421131384875 1.4171843491913012
Ni 1.6354805009785054 0.9581549046760718 12.145042051460843 -0.1146082089658994 -1.881352030656147 1.0411070329074845
Ni 3.0864917156764005 1.6332913366736046 4.726249365401876 -0.1891617160027581 -0.6640195301915983 -0.38567935814995513
Ni 8.201869635359065 2.570649180453119 3.5194615045220994 0.15132587610190715 -0.12992221361515044 0.6965470705056584
Ni 1.148685784557227 0.12658428675468122 8.957430261053657 0.2875526917788467 -0.4848087547539651 0.6425197084466095
Ni 2.8374604787399136 4.054737012127582 3.8897595665130025 -2.0501336403406563 0.6166410409076348 0.7222563023463044
Ni 8.21122417358631 6.64392970198692 1.0701398570410954 0.22409169511072374 -0.38319618671678524 -2.2593147368881343
Ni 3.1476779381814426 3.405447435998836 6.1853899221698185 -0.03494514861661723 -0.5370492001159203 1.2430718142121817
Ni 6.907383668461576 7.483115484311787 8.471772438363832 0.06997308675502786 0.8243337258350449 1.0467328637346942
Ni 0.22469104120695557 2.6811651851732154 12.525140762892383 0.2125458992546533 2.056054890921098 1.5503086146835172
Ni 1.0996963346080604 5.668371860903821 2.893686128515405 -0.43783084334252986 -0.8778926328981075 0.07379606004554388
Ni 8.888089861421326 5.912325708360035 7.002237950232284 -0.33303499248136187 -0.5646749322529888 2.456030611089067
Ni 4.2997026582121105 2.0378912117982724 9.089644747266446 0.2986644854212921 0.714559447922679 -0.8339349963702346
Ni 9.009340129770916 6.7665321012307125 4.9474239464669685 -1.4043026081326266 2.1736687194825404 -0.5690954299181876
Ni 6.715868584460151 2.4189437733912342 9.1503876180089 2.0209932713312737 -1.6330654834667746 -1.1819494929795646
Ni 7.441962874647391 3.6168397639619867 11.247029377068777 -1.1032655087141 0.1524630750301439 1.5766158851194783
Ni 7.6653220209327095 5.121255549896243 2.853810224756557 -0.46636366067490004 0.373262472542841 0.5767246643286712
Ni 1.1617195905238 4.347367571775118 11.176055382560186 -1.3053331341452488 -0.753548941811999 -1.573982047041057
Ni 0.8357493462563336 2.535686938760145 5.638680170247436 0.6421978063308166 0.1254981164055258 -0.8542533962126125
P 6.696819175739775 0.46071422705104464 7.902660544993609 1.0487974595732066 0.1200923720089222 0.8215219674178627
Ni 8.637862862469557 7.797168580371566 11.8250800514117 -2.056245152555033 -1.6064188274135238 -2.0094266495395976
P 5.622859318968321 2.987013514174291 4.952094776862046 -0.26426801021929325 0.1436508760551526 0.4303165372433556
Ni 4.019958733821574 2.6203744839501515 2.81132296071972 1.3877580735103843 -1.3262259184338578 -0.6543768648955117
P 1.3101044584509407 6.6862044883118115 0.9283381189165492 0.3677240592231151 0.10040903464738192 0.35061542456728645
P 1.0950512590871575 2.6838970414696672 3.1556122790613057 1.407138792029841 0.8775079958651791 1.3115917134604507
P 5.361888858217711 5.146476930249343 1.6720763375477419 0.5500975486594463 0.5088449697675623 -1.0939025794419612
Ni 9.24774748111009 4.13947054816433 1.3150447952079247 0.6911683226922484 -0.6311487476055065 0.5089514134384395
Ni 7.959231126119663 1.159438444525416 12.080233589866431 -0.416109135394722 -2.1662050641156436 0.5621462522938642
Ni 1.6423147408043093 8.098463815545221 10.777984368038958 -0.3482330403780389 -0.741833967367916 -0.5181767886914496
Ni 2.563428617514686 8.169933591381689 13.014891770942214 0.18696342279985864 0.2590782384882377 0.857801004354555
Ni 6.794163401953074 5.823940499092003 5.840267249685275 -0.850203394512955 -0.9515778783973999 1.0159852981391924
Ni 5.2618587665547025 6.991445738135897 4.6882710439795865 -0.7601739033276844 2.5265336022056357 -0.4137979707630422
Ni 6.605242201707874 6.110665834017915 11.204514518523895 1.4861140822834793 0.5210600237765155 0.43234488052729414
Ni 0.18412895401472243 8.908850129640491 -0.05284164327224385 0.8806966780058058 0.1424684257112772 2.800284869325016
Ni 2.2163448953250797 6.816202215711654 6.880779803255423 -0.13665284747076464 1.3919083482333319 0.8032758767234811
Ni 4.138421956858622 9.052681903740213 8.451134505796999 0.36575253731904106 -1.0752713374940193 -1.0633367908399622
Ni 5.509593061613076 6.98479546169706 0.18408664243572015 -0.14039585945296468 -2.4991341271467604 0.6848488082321238
Ni 5.011171859135517 4.650474846310394 12.152499927168462 0.45913063326157055 -1.4501168382532639 -0.46402369968781376
Ni 4.005931525565383 8.11766959314452 1.5326330100441057 0.03741417898240008 -0.2986120349168019 0.661397519187719
Ni 6.924740614021862 8.667637336650078 0.1005856610916473 0.36554119263918333 1.133007515863223 -0.3441640125149879
Ni 5.709450885213431 4.320361746568444 9.6162289046547 -1.0640880671836899 1.1235425137955812 0.4516412668630609
Ni 8.105813152854532 1.0422169743503924 5.616494185779282 -0.2553069443712635 -0.6360150745588724 -0.262377992285432
Ni 3.722637107806394 9.013056190187639 10.658975693559556 0.17723256866533993 0.3208646756674151 0.7866565229992452
Ni 0.8043716311584006 1.629704050627759 1.369858525988449 -0.5836501878039109 0.1490710186294594 -0.6570922069441458
Ni 1.2953781893242762 6.3067340118467605 12.21946260002425 0.2240700978441689 0.25499789777127696 0.7169603440546879
Ni 6.700056931350384 8.200591089819648 6.176154960144103 0.19341714884500236 0.6888790124374394 -0.2714167054489326
Ni 5.558600907900939 0.8623173386020286 4.233967940964323 0.2124620812915954 -0.10894921090790914 -0.2659747084977548
Ni 9.034368348567702 6.57214718839261 9.672448115711648 -0.6956299580080277 1.60821885673674 0.5495419332662923
Ni 2.393658005852695 3.7309614510666256 1.3540395143432036 -2.0823554764888397 -0.758107764827275 1.5819046443222433
Ni 8.501398822017844 4.55826319859346 5.069460658295839 -0.31794904468251695 -1.6715422993857343 -1.6525194784263284
Ni 9.13610010156015 1.8266460545446945 7.782629034082673 -0.5684981626538208 -1.3768545392240028 0.951404328934013
P 6.948729439682286 5.460530026309123 8.122031365049494 -0.24935175522909314 -1.6962588282958078 -0.46440268029378734
Ni 3.276654668783623 4.951567721758388 10.412572373605885 0.15177736181702892 -0.2544453677019166 0.008370740562198487
P 7.419234198187685 8.650381570952625 4.18885459957854 0.5480758902437272 -0.26193961919643277 -1.0749291236632519
Ni 1.9808257691612787 7.515502238587231 4.149194852799377 0.8002617724875056 -0.5813451938198182 1.2949420207189117
P 3.880210946912509 8.487638360672753 3.866281239251409 0.42826274003812054 0.590366680592138 -1.218614709611082
P 7.9240849210397215 2.410361881389249 0.7841908476081808 0.09547405923960976 -1.1113662834443636 0.33681939922445864
P 5.7900636413821305 8.116492227467935 11.70290812649341 0.40262858440978405 0.10283024249436483 -1.0784888159900523
Ni 3.0229783563262327 1.3172514360345875 0.8377416697371803 0.7057310509977717 -0.2022373182397936 0.03692078428574932
Ni 1.3341024822807144 5.263808778456547 5.475017143032732 2.4127409471624963 -1.5780634161992821 -0.24974924777782795
Ni 7.271943912412996 4.451168912870939 0.21779701328038775 -2.0245249386336166 0.6599481883357021 -0.3281437258273316
Ni 4.9641508174268925 6.686489631561609 9.651836857835926 0.2654481465703235 0.2271564500789765 -0.4391004540835728
Ni 7.812529523183265 3.207502831622933 6.715918254574632 0.7244656512927975 0.6847385079065046 -0.626012969040838
Ni 5.1719374630055 4.948550722212138 3.7970033871706472 1.1607373776783236 -2.3781606380844655 0.7110136395529496
Ni 8.855261595017163 2.082787476387435 10.314202551510249 1.8539908650343748 0.4019678108973336 -1.7677013005075106
Ni 8.116391047605102 9.174143729984813 9.856829099566513 -0.5684068884915953 -0.754964591212603 -0.6797855347766035
Ni 3.7896641678476204 5.50491119341478 5.6638279652457495 -0.14368764283035898 0.476534944780947 -0.8093123127255479
Ni 5.990326184433811 1.0504953267638828 10.78899641638277 -0.9564981985171528 -0.8686294624286266 0.23076396492457676
Ni 2.6256910258334814 2.9907019800829686 12.416741256939336 1.6104608586933815 0.9532480670109712 0.6929647524710388
Ni 3.1989301377902963 5.422201254634663 0.0967251894161563 -0.40690972828364114 1.1177534179176298 0.026991955207811575
Ni 3.668873807965448 4.9553757638685925 7.90438336211255 0.5715148379929578 -0.12882512389622974 0.9841951502117888
Ni 6.332295724465749 3.0864917156764005 2.2151380955065796 -0.45672870868829724 -0.0975024025235482 -0.5035338419672941
Ni 2.4263758942246785 1.4721302115216437 7.698340689442384 1.02326691940227 -0.5687007655829303 -1.6735148497310726
Ni 5.808689934312483 3.5145561208086393 7.342420285959843 -2.8315199160798974 1.1343807420616656 -1.1441193095056683
Ni 4.858316680905092 7.039239426069782 7.196285290255302 -0.46919444525547577 -0.32052323316759634 -0.13434708215572347
Ni 5.1296074876645195 1.1239795016876322 6.644674753704134 -0.06222506737849284 1.445886088001368 -0.03649963758793069
Ni 8.483627958836884 4.358101835404611 9.387797887790715 0.03970863144353161 -0.42533682464057715 -1.6830562135626048
Ni 4.386312620795916 3.4351667211632666 0.6107924779552115 2.1042229659858926 -0.5725376228305172 -0.017614113537337404
Ni 8.92657500197471 8.243500549829573 7.4703134722127915 0.5945910030861309 0.7842499704402817 -0.912530791797267
Ni 2.1282816219842386 1.9968397819967083 10.364027195236241 0.8071438443193196 1.2270152749699512 -2.8929258299912046
Ni 1.4183209208339564 5.314481493396456 8.645545173509277 0.876490353233942 -0.4168030761379531 0.22040164785364622
Ni 4.684912792350514 0.393652213966294 12.80918483145326 -1.3754825985771406 -1.003062676540253 0.658546422892169
Ni 9.072439571500409 7.643835097335028 2.8379921329282465 -0.6347819734827197 0.6817071772793485 0.5099986237560313
P 1.446476517209172 3.2304430659776497 8.139155596925267 0.26257982388359297 1.5125352525894853 0.2008566358421831
Ni 3.4082528776500745 8.864671322260497 6.031419925814376 -0.03536398132159071 -1.0458244929878118 -0.09283559317549818
P 4.395004890830081 2.782197877295191 11.011570958822675 -0.006133880811879758 0.6531141961330043 1.2618817478298332
Ni 5.29752006911815 0.7077264658155747 1.8031474913105348 1.072573478946882 0.9136924162055362 -0.37394715731469147
P 1.2666799009575096 9.196927595460608 6.057873860860152 -0.7097651118578292 0.322501954160522 0.14188864194840725
P 3.0290491480961257 7.1589903928155945 9.020084511386692 -1.4466605042735472 -0.029234471385085135 -0.1730604395655213
P 8.554913771286385 5.324903019268106 12.16301435455053 -0.21070241828801134 0.4052886477404504 -0.6016029156275897
Ni 7.989585084969128 0.3360551171409673 1.951557194294916 -0.7109426771056981 0.9327275784601163 0.9795334830700615
