# total energy = -340870.1986425113 ev
CRYSTAL
PRIMVEC
9.33685702862129 0.00000000000000 0.00000000000000
0.00000000000000 9.33685702862129 0.00000000000000
0.00000000000000 0.00000000000000 13.66543404536120
PRIMCOORD
 96 1
Ni 0.32210476600285587 6.015578347699822 8.989341212967135 1.3702426903344402 0.41873114639860143 1.3731395522662608
Ni 6.929488601159178 4.092755319082035 11.143300941871617 0.6033715774922382 -0.2831699893301188 -0.555477839134753
Ni 7.330161152871458 6.429313162592151 10.533371680963514 1.1438603994173269 -0.7634911406263754 0.8280919073258963
Ni 0.9638811130302111 4.725915614313428 2.736776623963961 -0.3441305881738912 -0.16744746425411808 -0.886603530408544
Ni 9.25807276864659 7.372419768420353 2.868060305252056 -1.4778035055352547 0.19011919482002096 0.6596995626600057
Ni 6.771322240708825 3.0325085032060097 8.572764258752427 0.0960391877144604 -1.5977670652757965 -0.6775795282642201
Ni 4.692816455647756 4.089972935645541 3.0477331825065024 -0.38749429987150685 0.3633632111512581 0.26752071282863604
Ni 6.581503934454062 5.659414594114275 3.0169178191044748 0.03694598109672992 1.003566098539233 -0.4089954071680763
Ni 1.906278117713535 1.0921695305383488 0.7345202829771429 -0.2870047896951767 -0.6563733265002503 -0.3469798846972282
Ni 8.526464651420596 1.3422852603933704 8.483132297297216 -0.6286848594460464 -1.7300204981272849 1.1871742317136136
Ni 9.412579081086523 0.2602424851409987 4.129981368616601 -0.34679065150455757 -0.11087265318286713 -0.3752031412089796
Ni 1.152877775854063 6.751696166938657 1.0720467359667667 0.2706260912268372 0.16673706845065478 -0.9724341530211188
Ni 6.99559354991883 7.548559578921883 1.3364534594053366 -0.13515620832058015 0.018477232868581082 -0.7776530339490543
Ni 8.719999026828798 7.085236715602646 12.654752314146663 1.5554631623012631 -0.7160902827449087 0.9110266964479149
Ni 5.947746080363824 5.762437476121901 5.547920381596812 -0.3775860396188594 -0.48690754626452276 -0.8961914312072953
Ni 0.3375787393897727 3.1795266561960487 7.807909460517483 0.17041760262603553 1.3705309109988204 -0.4944920434799999
Ni 2.085097606222695 4.018265872584224 9.455974925838655 -0.12347645798980669 1.430858247133968 2.31447466988973
Ni 7.7295732288658625 3.6279572323300258 13.400174311554844 -1.042706259073804 -0.9754803960466102 0.6486474186109022
Ni 0.9114135778522466 2.2856066139364692 9.976272225291549 -2.1059427768904766 -1.1517981662071648 0.48068213418010125
Ni 1.8381097235194368 7.789459830750665 8.798462239737923 -0.04081137758940714 0.15490279481988806 1.1071851554834802
Ni 5.289647039632849 1.6825390093621884 12.425187006921583 -0.3705957243439553 0.317945188027775 -0.7506243119660364
Ni 1.2754240262029937 2.6086151877133275 12.26856683001849 0.4528306591854717 0.011566878901992983 1.1701650987501264
Ni 5.794920402214392 7.905115480508547 6.5286199754463405 -0.19749800378259535 0.5279678066399424 0.4023259655677006
Ni 3.3749750873239854 2.5684573650275557 10.843522468732333 0.556845408906241 0.7904357875360193 0.9400266832246907
P 6.597582002499842 3.140862730657388 5.889091943625386 -0.03522771285404255 -0.2561543799732234 0.3255286568019877
P 4.6500816603832185 6.3541794729496495 3.7048499858632513 -0.2657553933980972 0.19014516296194997 -0.3056812830587574
P 4.903866775105831 6.007091144532799 7.370615887615217 0.32262896665668955 0.3840505642972805 0.41624360409005734
P 2.4648089135895765 3.5404615437951814 4.016284591492869 0.5965702382996887 0.28819186802474234 0.08491710965936988
P 1.4608446727309492 4.343468607795901 0.559234794906617 -3.117033465941528 -1.3621393445010153 -0.79172082489603
P 0.43827487659077446 6.201568542515114 6.883320643513437 -0.41595024121935464 0.5808484566890577 -0.6840245125586155
P 7.701992152787329 1.1835960359415283 2.2448204207631943 1.4561679295433503 -0.3828886827786954 1.9345790083010876
P 5.13626115005325 2.940269691229089 0.9433288230288346 0.9928510261145739 -0.053366074325966156 0.8740382921490237
Ni 8.043935872903816 7.605598439370007 5.22731511485537 -0.3005776432836049 -0.25240699711564923 0.518177817132714
Ni 9.259734729222751 2.941987672948266 3.9946931092885327 -1.508873230356866 0.000591867947728013 -0.8498547529242848
Ni 7.520819776271471 7.407526351377456 8.267055013939112 -0.4048171074206705 -0.08013408644842973 0.35865552126294364
Ni 6.855428650091161 1.2001409468457802 0.3950060130961448 -0.46518943786114075 0.20522879676794978 -1.0050624805791013
Ni 7.013053472825686 3.412107768286858 2.2748851008487985 0.12303191425322037 -0.7844386894123199 -0.8468853858833156
Ni 3.2280503029056407 7.091473736191833 10.479857484096854 -2.8639273858763254 -0.3750090229203025 1.57988658545095
Ni 3.5907872039384756 1.3476539532657996 5.70242202560816 -0.9974270755210306 -0.842377470710633 -0.9644261951149777
Ni 1.3137518248835545 2.3916546376669956 5.677700828880628 1.8513745104574502 2.5515008136739348 0.42726772311470285
Ni 2.83912351751252 3.189367703652641 1.8004756533265653 0.02943193210787189 -0.5281506120747097 1.3719974682420177
Ni 0.9077619330132779 -0.29964308871032846 12.345859201038566 0.038314836419798534 1.4302828342464722 1.250376318293395
Ni 3.0813122556306847 5.7567700038200496 8.403845573585745 0.024239332163338897 0.8594025445137199 -0.8914063511138259
Ni 4.202295327393933 8.205977029079488 4.868461412719305 -0.008285379937243795 -0.4573776551262058 -1.7307373216886517
Ni 7.017152353123072 8.572019177550306 12.393647103403207 -0.06855795157505613 0.8073837282442676 0.415357344830362
Ni 2.79876962082619 8.039043359747028 -0.03734089287775077 0.8296258274719196 0.6698217386956722 -0.23253314100985756
Ni 5.51801722914024 5.188808982202872 0.7139493192614275 1.1463888222661351 -0.4943390628419035 -0.21236772180557617
Ni 5.123478992588284 4.631043808614725 9.331072986425875 -0.15626419394378893 0.5362434163851733 0.3173710606918599
Ni 6.456558111812584 8.738355288023921 3.590702238538234 0.35787082057811914 -1.4052721711347476 -0.8206493350049221
Ni 4.4418977560761626 3.6999257273920874 6.274483794894157 0.5878326013163747 -0.8128640346325484 0.6895531556863285
Ni 4.324785556599847 2.5104474714338103 8.627002062049717 -1.9733201336250275 -0.26320871571684346 -1.545729737063583
Ni 9.550857935765963 8.467427703538212 7.449288246124938 -1.1855696062306549 -0.09935591079251921 -1.5054801455149167
Ni 4.570979806443703 7.304391427083796 1.6538319083090207 -0.33985818605078244 -0.08736891363397212 0.510294043509263
Ni 2.4493657518313183 6.540589826337566 3.3349946649244333 0.7150898665048523 0.8199800768520394 -1.2484197087876565
Ni 1.9458850658263098 5.626296761734262 12.47688331769735 0.127985915824386 1.122604318252028 0.09405146786047029
Ni 3.188181922792122 8.09947149934766 6.850837717420947 -0.3514654312724076 0.3168763804436285 1.032520576790054
P 6.778548968157972 8.461125324948839 10.311007891673226 -0.012078785541405004 0.07994922413113328 -1.5086670278833307
P 3.582421379914656 9.097282751331624 8.990284235541248 -0.8494199793797113 -0.5240304192587492 -0.7407877854915887
P 8.523495530840714 5.53525306747503 3.849361192703295 0.6938600105917986 -0.42609247185967913 0.11813936204760944
P 1.5749597410558736 8.749045989482932 2.230349225836276 0.07741463063473765 -0.13931033969826975 -0.26766083795092616
P 5.549557132658616 2.5943671436727587 10.34715273314757 0.4805093560476628 -0.5258548740619976 0.7649805806877084
P 1.2773660924942376 0.4363440145281338 5.970168542856239 0.7089436443977984 -3.176130272103685 0.027674840207449113
P 8.966492056102075 4.010236175418504 9.952904872853585 -0.5042264971589445 0.21737185988838695 -0.4488513628227496
P 2.5506052941195816 3.6758366358949264 7.548074996034789 0.7515411673533509 -0.9075454227675337 -2.5754426692015127
Ni -0.07316921489405188 4.58224939304722 12.000260101340244 -0.34998473296182303 0.5788198562948031 -0.40183154242978536
Ni 8.024085714561583 4.930700902610807 5.903931944410499 1.2554195371442571 -0.7020104076130749 0.4813575629805709
Ni 2.181771425355101 0.5475375802447396 10.46604173654323 0.5778670054632306 -1.6066898216867231 1.303362383572123
Ni 7.803362411075965 4.9944156159350825 8.382282101952917 -1.2338919474851267 0.20229105429586455 -0.43190547899703036
Ni 1.127677598353738 4.957152218971839 5.163771266017296 -0.01390606855813089 -0.2049796568716212 0.3414353007299152
Ni 4.617654755433745 8.888426593308369 10.989359509290438 0.18989602306562134 0.5919173129087096 2.2280778903610403
Ni 1.8001367254113145 0.8310876619378172 8.175578089507217 0.13545497050792155 1.272754428878279 -1.2768944191885814
Ni 1.1444185832585483 7.397937399064439 5.02031138929453 0.14150760445990468 1.1358465279739147 1.6409086336602774
Ni 0.038281114394713614 2.3846706685042527 1.433859288139827 -0.12266424650115648 0.7733371801825197 -0.2823418370018686
Ni 9.070467297540986 8.500153387917107 10.046649719891937 -0.19585609730379816 0.06768300516927053 0.07882565204965133
Ni 7.497365591061831 1.1579756998685784 10.740019672266197 -0.37994939764471336 0.9080475592149327 0.5639604226844674
Ni 5.460838315834574 1.2413725081060374 6.923701617085557 2.0312028648744245 0.5098186465347413 -1.144654613183848
Ni 3.4759065133256573 5.602581144523879 5.397545628454359 -0.586317450223429 0.8345029530585628 0.17201040103445214
Ni 8.414160933386544 5.48586109304868 1.1403822599041984 -0.34005538966325305 -0.2795982128184604 0.054199625970855037
Ni 8.518024132539422 1.5416925189611503 6.247562834617504 -0.8233189114172852 0.3444653458054906 -1.510385296126018
Ni 2.07011195046574 1.4730946293372575 3.199460846252808 -0.08695085225994703 -0.9668386612112123 0.6319527315640406
Ni 5.5169248168514144 0.44603193752714715 9.067233943903208 2.2640856759142167 0.3243099539035383 -0.36577670568875714
Ni 5.198528650516262 6.935268115747062 9.64867085147304 1.5452039464671 0.5388931953031945 -2.1192808887602794
Ni 4.704543548252575 6.696431309352727 12.334010729290544 0.8765358617598968 -0.3235540495741202 1.0436154011516348
Ni 3.122889280606212 5.394630661646059 0.9311096780511853 2.3474940622385443 2.057702710937166 0.8809931262003021
Ni 4.131895424336338 0.4721919439444907 1.430128280014918 0.5448481273350487 0.585667732454572 0.5017132438187875
Ni 6.988702949327782 1.5717665359039241 4.211167209076336 -0.4377313416501881 0.9668103790764382 0.8473345576055923
Ni 8.80788686336476 9.011252949372382 0.8390510674176346 0.8070026907557649 0.782171233534382 0.2663187221007349
Ni 3.478978339334404 3.2561542429856623 13.315393781084875 -0.18194000144333827 0.3618208063648027 -1.95949351215458
P 6.953316260655594 5.927802553449895 12.729843987931902 -0.7192691946935226 -1.513785837167135 0.5596003459435589
P 1.0957735574057537 7.288780201896488 11.278042061369556 0.45749618298194117 -0.9870063944083389 -1.3724319846762751
P 4.779173047607928 0.6894531407916785 3.879288620988509 -0.4272525536060513 0.7855411784478793 0.04309040343157095
P 3.122618511748298 1.1164360223217296 12.569753301218928 -0.3677091468247796 -0.7630090587836343 -0.5141252443298953
P 8.876260668416585 1.4102575805869106 12.532405872541158 -1.6367167070661166 0.02346800121495313 0.9338478081074886
P 3.569321769305928 5.127848641743584 11.251981959323928 1.1551853375118426 -1.7031177601991703 -1.1223356379716736
P 5.347656933226594 8.606789633649308 -0.01291007240818793 -0.9184379013103214 -0.037393095936477536 1.008095353868154
P 7.356117615802506 -0.08683837379011547 7.126605528663294 0.013941806892072764 0.4916723146430178 -0.16238984722555258
