# total energy = -340894.0086361834 ev
CRYSTAL
PRIMVEC
9.03329135707464 0.00000000000000 0.00000000000000

0.00000000000000 9.03329135707464 0.00000000000000

0.00000000000000 0.00000000000000 13.22113500016892

PRIMCOORD
 96 1
Ni 6.385489220773907 2.0253723512884143 11.475654125156069 -0.015493981870541058 0.016152698500462505 -0.3719530097027981
Ni 4.526112633883813 0.1704265938735789 6.1144308563858685 0.1501843062982962 0.5208417371181224 -0.7451545471007167
Ni 2.800997858391857 1.4555884573404185 4.810933217855049 0.1446158110715832 0.5328752712438887 0.7937373411054266
Ni 3.247079858692129 4.277697117941618 4.906918263227666 0.9957993101096206 0.1389393295120962 -0.13619673376995253
Ni 5.027785510006202 4.563383994566631 2.471439898322304 1.0443147412115048 -0.6783868546568639 -0.03471426355273376
Ni 7.291447057477859 5.94565825818389 2.5079434292285727 -0.2144593142272823 0.4201208276572765 0.41747027740830683
Ni 5.3080343451549545 4.334959152689166 11.815093602785227 -0.8182114149873909 -0.0851186841472147 -0.884768019861702
Ni 5.51336106069554 7.908348599831473 12.447923548021055 -0.08138004304038887 -0.02536444690671761 0.15155084762851964
Ni 1.9218959972841292 6.515893816706327 0.4521984419673428 -0.7434486201532036 0.146704832390128 -0.6723542753095388
Ni 2.829850191407107 1.7377162171188416 0.32477483222623005 0.3778081829319945 -0.8427268836302518 0.7324360710927837
Ni 0.499244727370199 0.08562747335155126 4.61806341127753 0.08938928649811058 0.23188805122669096 0.2494707973054607
Ni 8.606911097243902 2.3647711791058743 1.3640243048224232 -0.04935926715941822 -0.22291001609779673 -0.02739947505887539
Ni 7.039156259486966 0.7046726157754587 4.843311244538381 -1.5553814012207343 0.39651398687161393 -1.4592059450387256
Ni 1.1451051955786302 7.391897258833394 2.824867427821881 -0.9607454038292808 0.15772303787750255 -1.8883202344438639
Ni 7.723039658230084 3.8625631742819997 3.803786256551778 0.40686087732357673 -0.9695622307899625 -0.017683533322692124
Ni 7.7917197734194845 3.7591319867351585 12.54579926130228 0.23229428552617418 0.4756923942749936 0.2972879167887396
Ni 8.041960014242418 9.013996378186993 6.758379880115269 -0.3200704619008939 -0.4971338519782213 1.2482297042640373
Ni 6.841733673999088 0.8273266476104812 0.37074073596702484 0.308911617070597 -0.698495709591597 0.5918103550172001
Ni 1.8762056089337429 6.424377540633222 9.226276921515662 -0.25898747854664433 0.591633977340336 -0.03492200868816567
Ni 8.980419633723098 4.806289202700653 1.2763553075944016 1.3873546674243786 0.5299380429924357 -0.11296553115615383
Ni 6.256484785022254 1.9098455864380606 7.102776828113485 0.899672190667044 0.002833098573420927 -0.7165937047438884
Ni 3.4244124039089003 4.228935410485037 0.4685342462957015 -0.4000356268716272 0.9346312232407322 -0.9001020791156111
Ni 6.222853840809425 5.501879747213265 4.891238275861395 -1.2576093457067243 1.474982491146692 -1.1881468800395278
Ni 5.317934832626687 2.7752078111913128 9.28002048922832 -0.08929621256367201 0.3718501655763467 0.3168408992200027
P 0.27458225139782233 5.658255056176005 12.291425386294069 0.20842519221806038 -0.604194587614166 0.632527373120588
P 4.1032190928353085 6.055792148015427 12.622495519358846 -0.5922870375433025 0.22105213695345155 -1.0754338312138125
P 2.5104239710713996 8.573885383560823 1.4126911627183716 -0.713093919120746 -0.5006812030098473 -0.8452403940807249
P 6.289185300211736 7.826109514117373 5.917383152494776 -0.03307287129456885 0.215632508599777 -0.9879139938242727
P 4.8495496356405505 1.0272388082326753 12.584272953082259 -1.0208423691211774 0.23952911271171654 0.6196520598198167
P 3.868073482090172 6.1922038827879025 8.207681166579478 -0.23576167524948427 -0.2698804713100642 0.25305414378134483
P 4.932240385929091 0.8864414104423837 3.7375089968984008 -1.2379902859242162 -0.821012888991928 0.3331085260317747
P 0.18189526074776835 5.574100912666278 3.6097403154224157 0.4779570219394542 -0.47841956339816955 -0.01957072304307597
Ni 1.5555147277896024 1.1348253098643677 2.5511370158114532 -0.4868877487701808 -0.2447430528124882 -0.5538315617805816
Ni 1.976493211042479 6.432561702722082 4.723858611206992 0.5920373834263417 -0.33614114221051145 -0.15255563474395017
Ni 5.7193020400573635 5.562357633730829 9.38233877526374 0.41543524925614905 -0.8896322899325387 0.020466495384467976
Ni 8.447518668923902 2.43083163976352 10.08307197262093 1.2993530053024138 -0.5371561580074297 0.7483195750922595
Ni 2.166065866226585 5.547850167599805 6.871658258714058 0.5994226201468192 -1.6907713228186754 1.2439557594790318
Ni 0.4328789414602311 9.251084146602226 9.38380668513067 -0.5010969503910274 -0.018968570682702815 -0.08647005596878657
Ni 1.551503946368572 1.1940385355734981 11.455664354420488 -0.3849211398276919 0.33383511978515407 -0.7126015528653599
Ni 3.995469991956818 6.6409416707858835 1.50411529921829 1.088432043245693 1.2790837135304165 0.6384277977654231
Ni 5.576259869332103 7.650457161117519 8.11505379565325 -0.6161779852282872 0.549975164148969 -0.3805055272584995
Ni 5.153059196372979 2.6671064119447583 4.957754014410077 -0.6756429733631396 -0.038764522362707436 -0.5093643326061421
Ni 0.6261416962175143 7.3076347158258015 6.601392113989588 -0.2359154272185292 0.6430760951707118 0.46833415413770957
Ni 5.088877660345005 4.680301886306261 7.046970959953933 -0.03327290312051689 0.090691807359618 0.508042528470925
Ni 8.273916873092007 7.176552623031722 9.2504978859846 -0.7873628050376504 0.3370502842883421 -0.18842638049863034
Ni 4.642118163183073 0.4875646814751714 10.460614777079027 -0.38757888916551314 -1.0767996012130876 -0.05064224763689988
Ni 8.123991334252276 7.215702908344212 4.6166749943757 -0.39500654908815197 -0.21076335343293381 0.19039867373365274
Ni 7.295710771060576 6.328362685398692 6.973540236770569 0.4630875610267896 -1.074697210158104 0.6623010048385949
Ni 2.4821046022539894 4.989077855976665 2.4881514875765967 -1.7058953229443072 1.0906935855863604 1.096953450453143
Ni 2.3581046099871346 5.268757593761621 11.336568536102906 -0.16850033099866465 -0.15229183955960224 0.3355173925835835
Ni 1.3099446986663819 3.0766577814642937 3.8784726072520863 -1.1213377928347785 1.2570149066558352 0.08573086380991687
Ni 3.441241425952548 2.784475968258829 2.816908194691093 1.0273688573857855 -0.9784726459057148 -0.43066106506696794
Ni 0.7662670171210386 3.4059664226887563 8.22632226689578 1.0680118277181283 -0.17979930095125163 -0.8344636151801951
Ni 3.927051842220593 2.6451464803354687 7.17280922703876 -1.1547035127794176 -0.5054536846978263 -0.560224352680803
Ni 4.196514927331709 6.732277281029212 6.043050690370464 0.2083909965460153 0.493210348554099 -0.9201176030055895
Ni 0.6152141235035044 7.662408205757211 11.514366295831351 0.40034313080971695 -0.30935873191034463 -0.42567852425071206
P 0.12622760194799468 5.599123130090274 7.942028323818341 0.20310943643210183 0.2042065261510225 -0.1631696628143706
P 8.24330304823644 1.7698024684870843 8.031641285374754 0.6965139032748778 -0.46345085790347923 -0.7290959509759573
P 1.8356822633149543 3.2735745026288 10.345208155005475 -0.5422184030216856 -0.231336292488279 -0.2096433808958777
P 4.093887702727371 6.01040889157566 3.68360644325554 -0.16938993269246957 1.2497772512568155 1.494529045820052
P 6.976889781254618 3.875038149828042 10.528505382592305 -1.5426768091698722 2.1115876338810793 -1.7061017825281584
P 6.170271051053079 7.6470335436432615 10.25679842787537 1.0129423975478105 0.20421603923271928 -0.17047108157179028
P 2.2497864117448487 8.496144877008149 5.667292864310555 1.2720139511678286 -0.23513843984318858 1.3267434815002246
P 7.003176659487048 3.920665305138007 1.5985673950252572 -1.2559270729082952 0.44596632796547064 -0.9014645066807765
Ni 5.139978990297187 2.822759057588393 0.59458118241392 1.2494162683729708 -0.5407292200706688 -0.29370894118822966
Ni 1.2047520192792234 0.8746385117831085 7.2067482064913575 0.7344381891244771 0.5187064359426744 -0.9244465693982467
Ni 6.771870197624653 0.5294719273500452 9.143340465698627 0.301441533945797 0.06289612530358846 0.26237773517511587
Ni 2.6678381085553515 1.5533648044152664 9.063854727230314 -0.038430793172372524 -0.016904231954506372 0.7921962218705517
Ni 6.198590419870489 2.110809222189552 2.5975301942396687 1.3585166601467635 -0.12802731058528272 0.3357307941459702
Ni 4.117356194015292 6.980891529384161 10.462108883491275 -1.3149200065027353 0.24031741294096678 0.13357369432480867
Ni 8.417103576481088 7.310118870985224 0.3619748299062865 -0.795203898348624 -1.4260657108413313 0.09387509018360608
Ni 7.304193031768566 4.016924059242735 8.243906472107891 0.5698083968248122 -0.12237705427804087 -0.7324851791631642
Ni 3.047453150080981 8.568293776129252 12.375061922201485 0.26600016241905156 -0.8324244732629793 0.2612186818700082
Ni -0.046528677800547535 4.926368746461366 10.017904904491528 0.4748002214780275 -0.5360842650994896 1.2102514252480512
Ni 8.906084678061704 2.44953958643684 5.779314712063252 -0.8513115399754694 -0.8335004799359773 0.4561867201418982
Ni 3.712556335818869 2.593665752140757 11.286698443780649 -0.1263578933026598 0.5556040802999722 0.36936056638527354
Ni 1.3153556402681772 3.376021061403361 12.626091672700543 -1.2639350308144361 0.7122290000172895 -1.3432787601510865
Ni 3.096314223743938 8.346074805504598 7.9436543162863265 -0.7797729085055345 -0.40217864135655906 0.26547797136699436
Ni 5.848983972670677 7.706535834680034 3.5027942741572797 -1.2140787694139414 0.32184400886154896 0.6616428024293056
Ni 3.107343872651772 8.414926553232286 3.6006311442851024 1.9397353556910466 -0.2011677393246987 -0.1635491576409764
Ni 3.324061568759743 4.235050948822959 9.059240521937832 0.19505288467621246 0.018529426262755184 -0.03666804484499492
Ni 7.2628928230817404 6.104409322808187 11.333540576795858 0.5981380970074408 -0.18464480196901104 0.4308994063300192
Ni 0.4110075361075313 9.295437607812268 0.34865343494774265 1.603871892621954 0.22718344666217002 0.29257482758378645
Ni 4.671440227355742 0.16218732870663793 1.46154320308984 -0.06653809293154993 -0.11453313275358985 0.5065235207232374
Ni 6.150388776486214 5.759572453514465 0.22925680802358392 0.49310544754511854 -0.168615002199658 1.7316598335029212
Ni 7.613068367645346 8.94624669202094 11.391567731332508 0.2412206414815265 -1.1850510147230235 -0.33109946602154594
Ni 9.130580038141538 4.803705681334854 5.747677415282004 -0.5066998984001017 0.5634958243432231 0.03669812675198196
Ni 8.105310487453423 8.642999096741686 2.454702112522693 0.047195169628563884 0.6548329785963238 0.25805185410625237
P 8.512251235732693 1.5931564534234617 3.416380904446202 -0.17970854100965825 0.6548257795074721 0.811905527374021
P 1.6313492098381381 3.265688439159071 1.4762457883170226 0.7863076243002586 -0.7697448348455711 1.4098263661643333
P 4.680798717338145 0.8404836366639288 8.289771202984012 0.00383325770316114 0.5910835041535046 -0.748912214370936
P 8.546442244017827 1.6371847161399076 12.192279592229516 0.05746004188968169 0.7583584473855004 1.0923277787556736
P 6.479625151378766 7.6814503842156165 1.384411540383512 -0.5758409761721374 0.37263923713654534 -0.875290676498886
P 1.990034114984201 3.24268064573708 6.2808981585999035 -0.8372355214983774 -0.5651302746228525 -0.12082950728526289
P 6.664825693482289 3.7843529365719073 5.908194488392361 2.3263367114346387 -0.7174362552498418 0.7400467935605062
P 2.227528381516428 8.397465200784422 10.235221507825207 0.9953444819603892 0.4497761886298641 -0.23490626922772445
