# total energy = -340885.895789435 ev
CRYSTAL
PRIMVEC
9.12036012789537 0.00000000000000 0.00000000000000

0.00000000000000 9.12036012789537 0.00000000000000

0.00000000000000 0.00000000000000 13.34856894730786

PRIMCOORD
 96 1
Ni 6.113258870648216 2.658676198975456 11.847295900705921 2.349916812747424 -0.032319795178628215 -2.172256926736678
Ni 5.088239829618908 0.6535586269604537 6.246689740227342 -1.333038313370001 -0.14577974947269734 -0.18976978190040222
Ni 2.736956250485889 2.0932685893590297 4.929279247796044 1.0341509133046254 -0.6890214515525747 0.5573444600298465
Ni 3.562430930919046 4.615586283134383 4.963424964311239 0.6136361926430399 0.6367308696789744 -0.48124340600020993
Ni 3.4133768843345176 3.3274813320654673 2.666523356882898 -1.2030880747303925 -1.8550722710240115 0.09493541312732037
Ni 5.316677491296854 4.307737645282447 2.8380262580389957 1.4382092881824005 0.8571320033119884 0.8702027204530174
Ni 5.4411339264490595 3.4814147713516244 0.503438410269719 -0.39068323912244973 0.5062309291834829 0.9821354394692828
Ni 5.660660996221415 8.594808554374444 12.487012557006071 -0.16381141016342757 -0.3705676993194973 0.17536003423297541
Ni 2.416348228728199 5.450509656724339 11.617032342917945 0.7950956549055338 2.340145078072641 -0.10913201634267657
Ni 0.6813702533237201 0.09716010913967078 13.173609688754658 0.1417027511898463 0.9213190795128585 0.5578129150258329
Ni 8.137340407606203 -0.0025254277366001296 6.915066216388425 0.6262055446676182 0.4109928972140793 -0.3672826008103223
Ni 8.94199330572568 2.168876375333804 1.448266684328797 -0.0019154718551579913 0.4403171000994933 0.44986463457861237
Ni 0.854485634161403 0.42886304906844797 5.067050496789572 -0.48737522992956067 0.2813110817445091 0.06450743565476633
Ni 1.848532844021623 7.229417671055802 0.36073578252147925 -0.18332042673063267 -2.8197468347043695 -0.9422725418360739
Ni 8.078623528703236 4.368734614232905 3.8791609755239644 -0.4765889379473341 0.2489807450429196 -1.815623835220402
Ni 7.727161328422909 4.289706693186895 12.937993391571194 0.08378659559935248 -1.0610870755738373 -1.353027097787102
Ni 8.182878366034677 7.680182353084421 8.854385861848973 1.3758659500584884 -0.11424696897173874 0.3474910200056919
Ni 6.816985862905587 1.2725091351440827 0.4408499384661134 0.07177028786476672 -0.12086935938426281 0.23142473843702724
Ni 1.9948507825491633 7.017487861321683 9.322747366828104 0.14748876174400405 -1.3872806196533334 -0.8362538743113985
Ni 0.11656458747983127 5.25275288672542 1.1682570339206984 0.4330730169425702 0.06080324733030173 1.7672770684858983
Ni 6.761032453140177 2.347389185331906 7.148986126576556 0.43186896933214014 0.15048332559595373 -0.03367836608905168
Ni 3.2034900352829507 4.49534345438994 0.5454148680440133 0.12336692899513592 -0.04310197339579673 -0.27631182875770477
Ni 6.093303522552582 5.812296104739701 4.69522526831312 0.28198651054497886 0.30030819167230216 -0.08428590383327421
Ni 5.668012006534522 3.484944350745139 9.331450926557384 -0.5198595757105111 -0.3260199946161095 -0.2240896382281947
P 0.15392887910606243 5.926017875948322 12.531983229030729 1.3137532398881437 0.5063471430463732 -0.6745055173245867
P 3.992401191714555 6.2198941219892365 12.940703962619649 0.24069922176041772 -0.08644665893001886 -3.724262983727277
P 2.3849012267932146 8.912689588435336 1.3556001766547199 -0.0773045874194346 1.3096641574204348 0.7384843341693927
P 6.592214586024004 7.9359810953322505 5.623819301234067 -0.9485565750725727 0.3278603902589579 0.285675786471108
P 4.6301150169169905 1.639749558553042 12.927995652730958 0.47313208974698523 -3.1492450176770665 1.5064425094281861
P 4.417191087922166 6.611093731617222 8.121856772111707 0.47703193902202357 0.9593456952682768 -0.5927423799131663
P 4.505129600873768 1.5868970712522195 3.642423786073153 0.28672016857522237 -0.25560827766176625 0.15227949826442805
P 0.40038290030325757 6.144961242668519 3.7580763375339887 -0.22631415668333926 -2.1385258530328204 -0.6645190955358362
Ni 0.8007603283904011 7.875148292865212 2.6152386594987296 0.22291618674538385 0.20728593640729465 -0.3468916958587961
Ni 1.9172638784131673 7.014341337056147 5.081893882998734 -0.04572321306872771 -1.044972943620794 -1.0352886264534944
Ni 6.724997910029643 6.074862154248481 9.44084235074781 -2.427518105471671 -0.963303137254128 -0.8298716249341385
Ni 8.703185794511748 2.3155773689893224 10.307858447774201 -0.5566037252090802 1.8238709057205427 -0.052167940252806924
Ni 2.6623699448523896 5.872782333519521 7.0436924802194785 -0.08452218821379637 -1.0822570247832328 0.2822045400930559
Ni 0.5720289911143377 0.3150701390503458 9.5217609224612 0.4978581317387555 0.20882756986280165 -1.891755228267342
Ni 1.6457781166386058 1.4643559117399068 11.434036875886477 -0.8644678748517692 0.7586728933021256 -0.1932034901722995
Ni 4.1280756699004115 6.9369824419249 1.44575676120452 0.3163205079401585 2.1867376368513565 1.4679772634734525
Ni 6.021179714170372 8.191168773447352 7.826279578895364 -1.022387087900478 -1.3128713515038228 0.08387966953379103
Ni 6.99734098566206 0.9375456664473943 4.894626439254289 1.0658526152832803 -0.6560568237010959 0.24572752821294455
Ni 1.1917483456619802 7.799394581127398 7.300826443199118 -1.4472284609618753 0.7438977918754802 -0.2677135455657325
Ni 5.369110442028939 4.8148205514840745 7.105443702957646 -0.48573409478171187 -0.2753787754204741 0.24210021587300237
Ni 0.6529037850988146 7.591961108966931 11.118356584739423 1.1090193804787416 0.49644813876510635 1.1973809970432863
Ni 4.9453237854422225 0.8919092081288688 10.62923896403998 -0.3657088285652992 -0.5659561129582577 -0.8467151788540386
Ni 8.542120233557041 7.736838030584456 4.764624825106588 -0.6825623261907922 -0.2588617516020574 0.05009614532544276
Ni 7.363541688009365 6.11465428575728 6.731282750236545 -0.1881301894144502 0.6815968769537294 0.9412271312906951
Ni 2.3438140041374416 5.565380593316894 2.6236476315938737 -0.6534574384050359 0.8534627819905173 0.6340003581216888
Ni 3.623947760400331 5.024068975322344 9.28248827287758 0.8530398355204858 -0.9172839902115364 -0.36847919222158476
Ni 1.2028295832927824 3.6974852246119845 3.947933051536363 0.4705219058176477 0.16774982598588528 -0.5870299029094214
Ni 1.8689077286859952 1.240332504393901 2.9926555808076474 -1.7968529823708022 1.1010954976459746 -2.474561322903403
Ni 1.1895959406571495 3.7204046897693557 8.212639925406558 0.09888128514894584 0.5301910395435063 0.49524871914036633
Ni 5.405117624058905 2.8722659142641467 5.156805785491014 -0.6937885339239148 0.16084975643194235 -0.7042629510926774
Ni 4.38369200494444 7.340056760520215 5.764259167619179 -0.12152601913165521 -0.01602594311461111 -0.006533944463775843
Ni 8.234280716065296 7.651498820286995 0.4366381561303895 0.5956315285355032 -0.6009660533745392 -0.534313289241996
P 0.06054551112105439 5.916569182791522 8.004282560758847 1.090747064532115 0.43883640178890876 0.5969728730547461
P 8.826766675085716 1.9065748162705334 7.933615273898974 0.10349358710997661 -0.19359661184566013 0.7410806341416591
P 2.2241639988053463 3.8351388209590622 10.259776820888746 -1.803065024718785 -1.6418992797083205 0.2931247865499855
P 4.419890714538395 6.220149492074556 3.414844350289082 -1.039066862549004 0.3393928163785897 1.5787409018822811
P 7.263017077995617 4.25604344372575 10.601607008772456 -0.25642306025357775 0.22671396322491924 0.4676062748327495
P 6.23998627548772 8.106613914126225 10.377684837424558 0.4453927148501878 0.27902974190950014 -0.47097364864308566
P 2.5911490521289866 -0.32447414244221434 6.0063490964654775 1.9836976202046093 1.1663102437804107 0.4702372846976934
P 7.1119109503683475 4.337187288335831 1.6739910388502304 0.2415749394971517 -0.20724994096303662 0.152561291170905
Ni 2.396192232708386 2.0475391033665664 0.35530825617243356 0.18050995386503108 -1.4030054865877581 1.3911136202461785
Ni 1.9225901687641043 1.5032633683102794 7.3586787119560775 -2.1350510071103423 -0.8387074780582137 -1.1858408576141708
Ni 7.125810379297848 0.6863782431040275 9.071633753609857 -0.7527675835612841 1.5593002766591662 0.8092228383355354
Ni 2.9249724758019298 1.8682419423921282 9.452575694132195 0.6603276831623078 0.8316662549407161 -0.18543618752205485
Ni 6.680472311582254 2.170034661077929 2.9602855984214385 -0.49744238435757554 1.1428977783937415 -1.405143101756051
Ni 4.056043065120101 7.0350719157679285 10.549667469526648 1.1716738220851692 1.1896694873316414 0.7207573492032748
Ni 7.6309050469780635 6.767088372306311 11.44946852532789 -1.3306551578498051 -0.30257101956454985 0.8662758745947855
Ni 7.929204667711109 4.184831671362537 8.485284884961263 -0.16335015425629287 -0.9060966061361493 -0.6626797283342524
Ni 3.103138712112813 8.986646589215727 12.3551686301 0.9204667588148921 -0.5096736363164448 0.5116952947321639
Ni 0.31649838745609365 5.294961913684558 10.247749801906245 -0.38912206528291693 -0.8059760492634634 -0.2949476986913372
Ni 8.825325658175702 2.7033203621053135 5.664118524769428 0.5836355325158916 -0.4731326039676174 1.047862606463763
Ni 3.5950909407592953 2.9552794327131693 11.855838942095858 -0.9666437715915869 2.012323511471418 -1.6702390071932784
Ni 1.12908235079676 3.840027334020881 12.425942625174095 -1.5779279190626825 -1.5844140410076586 0.613918242659833
Ni 3.4350377397856744 8.948176909934473 8.176265192860937 1.1297013343081252 -1.0504961874318683 -0.13429848830597516
Ni 5.785418403259888 8.25212926095705 3.4979390399437955 -0.675635774274288 -0.3849180545038984 -0.32005580661287464
Ni 3.080201006235061 8.587348099739057 3.6420772123859346 1.8080802185451892 -0.7108408614205113 0.295723143404781
Ni 3.8356769222102693 2.7336090782961735 6.993689193442 1.1057998451001794 1.2867859672706805 0.6543601527249634
Ni 5.094532878149981 4.795631313644397 11.379201622280357 0.27634910975354343 1.1235887936524842 0.14825057961069307
Ni 7.921735092715532 0.08031845201288927 2.5920920973726287 0.01024018967076946 -0.4861112756154724 -0.3897509571161675
Ni 4.44180694007487 0.5488103781427357 1.7060536650980374 0.43944369635560454 0.3414052188229282 -1.023712748690437
Ni 6.112036742382761 6.0213165195732214 0.08847479013077117 0.04480250102667123 0.6890517905698779 0.5687236484010657
Ni 8.142456929672772 0.2026288664123958 11.307532919871626 -1.2364568799988254 -0.2031271770439147 0.7414997239569489
Ni 0.2927617380257018 5.19691804164248 5.924348850033559 0.9347456373314094 -0.4323016859941845 -0.1845545562480499
Ni 7.474600314042516 6.415772097789024 2.3616826138216123 -0.35970890222812246 0.3758852548776688 1.2997360996734455
P 8.81180016401399 1.755167716756995 3.6810010856046493 0.11685252491538584 0.35866940522001456 0.022457043451935516
P 1.4735674755317671 3.6161042506369645 1.5620094323658544 0.8747368608779451 -0.02652350021182529 0.7332693656273565
P 5.055479495816569 1.6179701384194156 8.33990543149727 0.04866712618840006 -1.5011452655849888 0.9586067602197231
P 8.703787738284285 1.9246057683660855 12.605828049380785 -0.11591355804088424 0.3493648399896371 -0.8864999149511442
P 6.37456631045078 8.305939386077817 1.177817907507834 -0.63398698838525 -0.7393636514505525 1.5438114369949476
P 2.064667139803313 3.6990904080054174 6.235877553222143 -0.9204292207087373 0.713457473107752 -0.6258864707653028
P 7.090240974557 4.02839013302414 5.690107903166741 -0.36558078762786717 1.3644664499722952 1.6066168023569427
P 2.5222173698132635 8.837027080299421 10.231224621278056 0.5268527191988926 0.7225494081066911 0.8647602092812076
