# total energy = -340851.5517795358 ev
CRYSTAL
PRIMVEC
9.39509066348394 0.00000000000000 0.00000000000000

0.00000000000000 9.39509066348394 0.00000000000000

0.00000000000000 0.00000000000000 13.75066485632323

PRIMCOORD
 96 1
Ni 4.90850259920099 8.841794807062143 6.226878065242935 1.2450852450977847 0.8949727283088457 0.73089289497538
Ni 9.416605232524127 0.7064675863290512 2.625689152558229 -2.591728036625098 -1.9853917200775808 -0.37952156607867543
Ni 4.926174764385096 7.533500273100234 11.184130849411394 0.0991867322045066 -0.019985699093307517 1.5999684438024897
Ni 0.5216342133715837 4.250949611922726 1.3713853850309308 -0.9459502477979774 -1.2991059222886143 -0.004002693401489881
Ni 0.8405571361201836 0.4478874506854368 10.034176472775552 -3.607161318915562 -0.4534708638726319 -1.6909137619338106
Ni 6.008799225129445 2.9634182279113084 8.05106923082314 0.8623531425016115 -1.2901949929522294 -1.2846707206998909
Ni 2.1079952401320012 5.6156052936461744 2.0649920320082953 1.636516932350485 1.768164613297174 1.1700671397196818
Ni 8.045795766539335 3.196510422604385 6.93022460251608 -0.6189943716311598 -0.07360965506635064 0.6717783482014107
Ni 5.560700384908313 7.271546360466927 7.920602427919297 -2.0726793868516564 0.05144083227879528 0.9342671550330942
Ni 8.237173759521921 2.6701504787237074 4.339599806629898 -1.1829514518815176 0.680386401585396 -1.053964605596443
Ni 7.394124105898632 6.551656947884811 11.068460374497157 0.7306584103670707 0.49232820305946173 -0.42676481533635535
Ni 2.6662703063573936 8.70564115589358 6.867508615557024 -0.5733156386471223 -0.24999658790194365 -0.6551456247407362
Ni 4.704478814438602 3.9471781515837 9.490653577614532 0.9201615688696476 2.6463675783468488 0.8024117289509729
Ni 2.9439234151749867 3.4234206477646905 1.6478246481591106 0.04564736552546977 -0.14844289812715725 0.22327896940144126
Ni 1.2956299520011572 5.974441379261142 13.553163980855357 0.5201737645168203 -0.4854343041531059 -1.5294474549637915
Ni 6.592093417290656 3.7290617311083083 2.5328863278609592 -0.6653377347823896 0.5900409218216032 2.6479943153169945
Ni 9.03569068429212 7.63105889259612 3.371209311466108 -0.5309592851680984 -0.4258312477784924 -0.1530955664078202
Ni 1.0875380930629488 2.4919537976780166 3.1467568419741503 -0.942912232302602 3.4741941478265006 1.6694080266515505
Ni 3.691537739749818 1.7281705223951331 13.998313702176281 0.2440159448384765 -1.2113392589955911 -1.4866239320403623
Ni 0.7192026314683687 3.849027641387869 8.342555670856617 0.14219897409997445 -2.4453229948635755 -1.8683203942831694
Ni 0.6089099063422138 3.476239846417027 5.912579406026295 2.0582755527215006 -0.25525783630088295 -1.8291498947312947
Ni 5.953480932410669 6.155015018197093 0.6795450150629295 -0.8503795150795032 1.599648598569226 -1.291630954067808
Ni 9.105909590504778 4.926043233118442 11.836819998350576 0.8257249497556166 -0.04451582302418785 0.15275335257705305
Ni 6.7798824857116635 1.5950608805405784 1.9590849351160269 -0.6525634658358567 -1.8287446888730763 1.2698064019935487
P 4.6858671402069625 1.943524786270776 9.731070184842181 -0.2713442003397843 0.14157419603178198 0.06794037259571525
P 2.066872929121457 5.716292478270346 6.300513026352426 0.8504180816269226 -0.5232827424594472 2.0416531136734712
P 7.9241387399742145 1.0862791509392538 11.641408693026928 1.294806523582312 0.1745917886083832 0.9410016455434504
P 8.450846302202478 2.6044130306677844 1.4558378533137224 1.290063609580688 -0.17122467190836319 3.2713644474183465
P 5.318062778292295 9.44272358404556 2.1844440308388546 -0.6392523505492475 -1.2857169025762178 0.7188488193266523
P 6.170291435309989 3.0822191469719273 5.199319169283576 0.34670940464466093 0.10462255850809725 -0.531540097372233
P 7.1809682931942165 4.888472266307574 12.894177302770556 1.423326200422981 0.0627094632140791 -0.040680765548813815
P 8.863788713864905 4.901183823720704 3.456380504170263 -0.26908702887449143 -0.8443621052408297 -1.3534060783930755
Ni 2.6911203206646563 0.7805835760708788 10.972191700923537 2.5886154591380452 0.7060066732566616 1.362730441117795
Ni 1.9763230471201725 2.0174077777688155 7.074840411675778 -0.33372019147384463 -2.5260906011309463 -2.7304740191794648
Ni 7.035635638631249 1.096078230305029 6.0949409306797016 0.13400512543527246 -0.14639321468698013 -0.14441115125994483
Ni 0.9422712041333094 5.814800001904239 4.618394418940245 0.7317367310329139 0.8817300043663266 -2.259999164549669
Ni 0.18940690300086094 5.530288477039652 9.44623922690143 -0.543998891960876 1.213754296194987 -0.24249642287015655
Ni 2.6152361748953705 4.436906637701044 9.580734644601097 -2.505375222960466 1.3206602514206225 0.14473048227257654
Ni 2.8375803860846633 5.299601425508261 11.801343197206661 -1.1146503535122738 0.2085581182514989 -0.915543867591978
Ni 6.4181245269588665 8.97760083988312 4.249972522513292 0.573254960612516 -0.2606602382633769 -0.8598969676516353
Ni 3.7600091591340643 5.111455343649189 13.805254927507656 -0.39091052464190745 -1.8848183919381925 -0.40412548067028464
Ni 5.178442338738332 0.6168224515405414 11.966405541767834 1.3759500251318626 2.5584499912982586 -2.9421899663336553
Ni 2.7411961528981954 7.798366663780896 10.140482861013023 -1.0204325352772685 0.12369500175851601 1.1461103717937682
Ni 0.8596404438936853 2.5482303896252776 11.43701943924505 0.15234171896093118 -0.06975942808232502 -0.819023626476041
Ni 7.503464168850586 4.676058665750712 10.040817862232567 -1.316846534101487 -0.46977988544530064 -2.085871460061898
Ni 8.207494668710336 2.604290894491605 9.555460911713396 3.238878816085815 0.4626556156956935 -1.2095335732454202
Ni 3.170946381420997 6.563043797540918 8.088979360400167 -0.7996452219494292 -0.5043254846306541 -0.7746610412002659
Ni 5.186315424556664 7.158701928767671 2.859093264255087 0.6958896394273176 -0.38013708817548725 -0.09306493557748488
Ni 3.213947710526608 3.891935019588727 7.270993929146977 0.14243654403207728 1.4312331139748835 -0.2707315064564499
Ni 1.2650959079563164 1.8682419262919119 0.49516542497542065 -0.46474489412455444 1.512512626881666 -0.9789110189947142
Ni 2.6417679103977183 4.075035937862542 3.947128357604181 0.3141908631916653 2.006741646508267 0.19749903222385987
Ni 7.085861792312395 0.7400860385769447 9.598596590612807 0.5498777193391563 -1.4869502050315295 0.5520919533816556
Ni 8.433531150456435 7.131484351660624 13.358069290080728 -0.09073705877525663 -0.17149746595377563 0.37741994635464027
Ni 0.8419363354019629 0.20201605392780886 12.715775808752504 0.3986865690429005 -0.27471517369454623 -3.560228401809449
Ni 3.538764173530386 0.47822325832124796 4.502861112346947 -0.15124540057295888 0.16332392900404774 -0.8713275780860801
Ni 8.451776416159538 0.5777125689098144 0.2940700899141947 -0.9648398856136285 -0.6551638795731813 0.06795502788373459
P 2.616119313400052 0.04734561894140627 8.789878476604487 0.09633357902642764 0.43554616107341126 -0.38875902551654334
P 4.535423556425413 5.169460632243912 1.96043219109019 -0.11527695289814986 -0.9660657876009299 2.315888262407805
P 0.69348638981928 6.933943179326217 10.832113720463424 -0.02769875146684907 0.8388157215013037 1.5246073532626712
P 3.991372657179679 6.027523640446789 10.069707765444225 0.7908114257078832 -0.8358746365951089 -0.5683549522077372
P 6.436839547185735 5.176600901005167 8.049254099343306 0.26443821724857036 -0.1791855786266527 0.30866016318142325
P 1.4300173261603577 8.847873430599686 0.7293699983807769 0.8544619126789929 0.44466432132459555 2.4711736373780924
P 8.350347019387813 8.221549724061438 5.349517541203719 -0.45905864237305455 1.376194537042501 0.03969191927298325
P 3.5369978965210227 9.06831983351296 12.529097240025681 -1.9074153034021022 -2.3033605622544395 1.9680686554181006
Ni 1.5341525089889776 8.292003507535979 4.6847143626056384 0.7675136315222073 -0.019134406836605757 0.03447977894442449
Ni 7.627902142196407 6.995556182663468 7.531748088726585 -0.6718629374954171 -1.4591817766690096 -0.5707843875848363
Ni 8.800851002770631 7.90765035619 9.294143046705269 0.057619707395997546 0.4850206136544551 1.0559937202113299
Ni 5.8322372898264625 6.7237468201215345 5.293304835871691 0.2582822249495036 0.6608822701141973 1.0071844120181104
Ni 5.485680587462758 3.1051901431841227 0.6018100364700026 0.33833300765550767 0.9757801866752164 1.478239821741725
Ni 4.112700855578162 7.2703062085241825 0.34589152995805084 -1.516601709349375 3.0925727617960033 -0.8543438990438899
Ni 4.938773580712522 4.811019140428908 4.241915292921644 0.45955409395223434 -0.25863060942785776 -0.38097809601954385
Ni 6.617103148136 2.793085237593474 11.080106528650385 -0.8727519692374324 -0.5819895122720364 0.6396110194402468
Ni 0.12790382222217145 1.0273437483874734 5.16562931434807 0.7728599834357851 -1.3629685252705301 0.7876667094313144
Ni 8.603150113898145 2.76638439046257 13.26312062671889 -0.554072217036478 1.9122062970328422 -3.87220271696577
Ni -0.27169850047432553 5.455306259955998 6.5018366621122015 1.7019299105386558 1.2000060933709593 3.7629390601412354
Ni 3.373476346797806 8.190254677688095 2.4850343135429322 -2.6741774014702657 1.936288791903343 -0.3294876414497358
Ni 5.988139421174181 0.24868616586403852 0.1083573364882357 0.7383424092748898 -1.1892336853458036 2.0150871902594845
Ni 2.226345194849804 0.9811292983392976 2.251107834815646 3.699707662985415 -2.7016946330539278 0.2743845298280049
Ni 4.881181676098714 9.33834412886458 9.754694139842412 -1.3325816854485566 -1.8941124156456088 -1.8151615508720027
Ni 2.3852067796972536 2.2365576581964937 9.140630086865428 0.7465696822806884 -0.018865469445935253 2.056674269672652
Ni 7.62185170393029 5.129334200823753 1.2696525268368544 4.698457828193243 -0.8496369804865237 -1.0152121674185934
Ni 4.582699651697302 2.5429785340495643 3.32144539623635 -0.07283215347037779 -0.8535843951700459 0.14177422785773003
Ni 7.6220771861016985 4.882543964217638 5.196747733020477 -2.83986186028669 -1.0352333477355267 -0.5257443166260622
Ni 7.3732951903148125 8.379631516399435 1.7336976541217732 -0.4289520527956613 -0.7076298106823813 0.4435278937273071
Ni 6.965651609680475 6.01497179957174 3.2783369630993207 1.3503734622143388 0.5010316443707307 0.10514449244983828
Ni 5.42553321823966 5.035777889870361 11.745652858905062 -1.0140433439214729 0.2725814151809951 -0.28107274048145786
Ni 4.581600426111688 1.965246235449752 6.085260229453916 -0.30132480586227456 0.14957315507685853 0.4644283913254001
Ni 0.13656609564043087 7.706539049474966 7.01479169090267 3.5163887789166792 1.249964427566957 -0.71451753894115
P 0.4615751579989532 7.005702880376831 1.4114366557272866 -0.9651144794312538 0.5393410814738905 0.8413037780304802
P 5.952635374267889 0.4015283162439408 7.868006832420273 -0.4635681002076339 -0.45802428757126923 -0.7419545521061803
P 3.9855289109040197 7.793546982367049 4.701256298405562 -1.3027751436100854 -1.65866518631275 -0.8523489801010483
P 1.5292012963084756 3.7510368477301186 13.061563992715326 0.29419076592065463 0.9209154163165366 0.20298396659783108
P 9.377559236508633 1.599335646706856 7.966736080189386 -0.0405169862774399 0.16295266170755807 -0.2663644877370058
P 5.022032872504945 2.972409329496205 12.40872358281949 -2.015042453064478 -0.47769759763048053 0.06059473086392145
P 6.709532048232352 7.974101831122049 12.302746962257705 -0.6165078577638802 2.486454474796563 2.0821240772043237
P 2.537679703021475 2.3155797641845415 4.908093912765313 -0.5335542995887843 -1.2288636410325997 1.0744508984752528
