# total energy = -340896.1129495056 ev
CRYSTAL
PRIMVEC
9.02516281043182 0.00000000000000 0.00000000000000
0.00000000000000 9.02516281043182 0.00000000000000
0.00000000000000 0.00000000000000 13.20923805051252
PRIMCOORD
 96 1
Ni 6.285123372324942 2.0329269453468775 11.444747572668476 0.8510374603784762 -0.08421956937171302 -0.03262472801355672
Ni 4.631569145179785 0.33128033320156663 6.1425862687118755 -0.43221889647239115 -0.3797879323661847 -0.9668453460794316
Ni 2.600609685322809 1.3983226232259292 4.790831680489568 0.7041644778416002 1.3702174935234595 0.5470695604663998
Ni 3.536437840980112 4.396138748438734 4.816841297156286 -0.8784204803771194 0.28492451012738024 0.04523907434345757
Ni 5.01802661617771 4.527707571703744 2.6525603274189846 0.5067245809904499 0.06494760851597847 -0.3730411005606543
Ni 7.17124093129246 6.153509423245943 2.7013945808011113 0.5686426586514852 -1.217860862164193 -2.24852767357496
Ni 5.314349786314908 4.419947127899092 11.629637960258634 -0.39556653535668007 -0.12346514513589703 -0.6624419012918333
Ni 5.558913647807241 7.776062216180966 12.35121867877739 0.16987587118995262 0.6606069049656237 0.17186590503678786
Ni 1.6180041108849779 6.658142375917076 0.4268793701363052 1.3364388544111179 -0.5359963333713736 -1.7044758168889613
Ni 3.05477392762915 1.698941770854837 0.49712130967459894 -1.7424175862400573 -1.3240597640204745 0.5766272195188585
Ni 0.676309599409164 -0.24167671191334653 4.548719955729371 -0.8916938004472579 0.5136914992265863 0.0994312441151449
Ni 8.568318082052306 2.319448788685763 1.3952125521258385 -0.18951524268743491 0.3198269784315202 0.27773724835032165
Ni 7.030764272346111 0.5702404711128026 4.692819315022721 -0.9245393862223691 0.31070161909148425 0.5915352469789426
Ni 0.9123627323832577 7.444441634341926 2.3962484115128726 -1.109182645529483 0.16236362197330748 1.6495688804384365
Ni 7.66272422176733 3.997334854733544 3.8287899394863176 -0.19179658252244386 -0.6018839372031183 -0.33347208001878054
Ni 7.678689734756478 4.0048528153440355 12.588839482529446 0.24633765099311766 -1.0646843060067923 0.3476182896121755
Ni 7.938776876260873 8.997401396943811 6.896542953734854 -0.28684640974044145 -0.7578288001342756 -0.3378252147811537
Ni 6.793934975371414 0.6977624113793197 0.42331894341260884 -0.16753873841634373 -0.31843626873158065 -0.5902494382879835
Ni 1.870753795034834 6.636761765249301 9.086238781910506 1.0236836952247144 -0.7330279390405118 0.10927008458243762
Ni 0.1026458840471902 4.79181091065312 1.5590463323926602 -0.13666518876593883 -0.0252582603461565 -0.8377170891204863
Ni 6.286179316372274 2.0211130072446757 6.942444931724005 0.1121674607348907 -0.20257361853328984 0.11603054323472277
Ni 3.444471432071451 4.193334315211403 0.29478257484762915 0.2606954623766865 0.31298887246376417 0.650128374031803
Ni 5.942085959546798 5.630681742374628 4.807330580600061 -0.5049466631544207 0.5880755705651163 -0.09616002956304086
Ni 5.359511700954646 2.8724114881386305 9.187593165161346 0.24703699105298746 -0.22073691970587794 0.01695539690741596
P 0.24509363854855937 5.492082317290202 12.39092578502219 0.09712470746915532 -0.49520398194536003 0.019574322587501775
P 3.7840341571724756 6.215295687759063 12.748050574411279 0.7324977775686546 -0.25360924495386644 -0.1517331388426548
P 2.489771661004138 8.61310093985454 1.4372571755352483 -0.05266082072882544 0.865870925846883 -0.7323224283330549
P 6.260304174631241 7.798634148338038 5.940789043652768 0.04944514200500517 -0.7382531919951931 -0.06699343530141365
P 4.678490966565078 0.9301874289087342 12.521459422114305 1.1349875224077293 -0.41221262855379337 -0.26679309063399215
P 3.991369222124258 5.9688545924048055 8.162252542360077 -0.8414318189679121 -0.19383778132218873 0.8732931864528831
P 4.8308988907299995 0.9250069854628489 3.9474618051134005 -0.3388603409138874 0.11896931414807252 0.02927072393965927
P 0.1789067046552765 5.733965705431616 3.539111094200793 0.04614333132528182 0.23489547059444707 0.2742510895739341
Ni 1.4554880043866216 1.201817753631399 2.559303320230252 0.14717945803370136 0.4219501675565313 0.0779188239646658
Ni 1.8983166422190392 6.3936690052929945 4.7432131165362925 0.6566795448867594 0.28242668340619104 -0.14927413577920096
Ni 5.99090306511961 5.518869000473804 9.160276704921516 -0.21302438155296863 -0.03180428899479039 0.019924763948385042
Ni 8.749037941913642 2.271028790276051 10.155777431964715 -0.3540823000699644 -0.16782850174262065 0.160413183115156
Ni 2.1279167837927706 5.2005424834357905 6.936646264626476 1.2407799328542115 0.4403171000994933 0.373850226725511
Ni 0.6620904554213726 0.14231779215708212 9.075948291288558 -0.04118650154063874 0.5976187341688611 -0.18616226705480196
Ni 1.2992534111954714 0.8287238411880438 11.500372358539598 0.3873580314039587 1.0304220423898125 -0.4076188385355238
Ni 4.130428930511367 7.163055108634937 1.5934303976193742 0.25323360678200263 -0.5933522455830232 -0.5469636310161549
Ni 5.424853879610064 7.7069745949645 8.029724344289672 0.3808569970606473 0.4507902317166752 0.49819957423857425
Ni 5.242870496957048 2.8852091689857824 4.891936066730909 0.1954868868898375 -0.6562743390285407 -0.12960108283030583
Ni 0.5231498791831934 7.294326101527623 6.688642913591935 0.4578304263929083 0.2377689354875002 0.15954132203316396
Ni 4.989723705644092 4.376644396795681 6.980553681637333 0.25970841587306887 0.5672357510016295 0.30010044653687024
Ni 8.178422024028455 7.48414332548905 8.867586162810396 -0.7368290579541569 -1.054936739701725 0.28311753882562857
Ni 4.621072880846049 0.2676764009009882 10.257977472969698 -0.5017831778247746 -1.0165936211471522 1.0712059091753936
Ni 7.90615993790995 7.1580551684450064 4.656599531682954 0.7582985406818424 0.5645119243125633 0.8998233715329277
Ni 7.237954934693129 6.022229405190459 7.0647097146608555 -0.2053236704746012 0.15158684307277764 -0.5522451911300683
Ni 2.530791025919728 5.384078194090011 2.397502909141754 -0.7406646296501631 -0.7645815454770767 0.18245807873033737
Ni 2.3327067528355983 5.15219468632846 11.49576230538253 -1.0901621385629225 0.2746390690409722 -0.12806176336764397
Ni 1.0320002904296959 3.70012721864217 3.66446699539586 0.768448998852283 -1.1189101572298923 0.29498060881180166
Ni 3.698240959617449 2.629327753345121 2.9096520173908194 -0.5570598389098922 -0.2751897993381196 -0.48379214056399256
Ni 1.279587581459262 3.233147245163082 8.115333428523625 -0.9911078181712222 -0.12143654474164246 0.20728567929697853
Ni 3.5321328383256043 2.607008525746385 7.113320144005599 -0.5966237172454434 -0.2646670454299248 -0.519103671381093
Ni 4.141322302008202 6.713863731030135 6.10186202661977 -0.39552719747831233 0.8771986921548763 -0.6314971320838608
Ni 0.4358946052549373 7.136277450614133 10.996796252432079 0.7251207683782931 0.3416163063924697 0.23840271241675717
P 0.2637468450188655 5.617559155666759 8.084635239783495 -1.0588142203792603 -0.642750593510493 -0.6839952019825769
P 8.371235602038722 1.7300063812045534 7.920681424851464 0.9243766353922597 -0.0009281682412242081 1.1837294676981225
P 1.8114133496398939 3.167471135484149 10.476735686474543 0.06071891514661156 -0.2243074106659556 -0.01143241020665773
P 4.056278192965385 6.214059240455776 3.666924547225676 -0.0907727971091985 0.7573228070321344 0.7485594590172077
P 7.07667527549806 3.867850844074805 10.273115378530298 -0.9686561740359251 0.36191413740955736 0.9419259571299327
P 6.374680062766614 7.7379128530350485 10.096890952258498 -0.3761140830590232 -0.7312631338306051 0.6415275197366693
P 2.3376796175371366 8.362273615380596 5.943761029762054 0.7837614608396373 -0.9638415262561013 -0.8124128060277428
P 6.894890446426593 3.9901056993325783 1.5885432719644144 0.2308848067731572 0.002306279535673447 0.01615115583856573
Ni 5.310053808823198 2.6053117951404157 0.6431529563229386 0.35941142559236167 1.487715108222012 -0.14599932168267113
Ni 1.4149469730993103 0.9972624388213116 6.8153986175369266 -1.0732005710079193 1.0153677191598514 1.0183908222568911
Ni 6.79324003783599 0.7117658539762459 9.248197133347963 0.15869311510025572 0.3463443079957584 -1.062890704441479
Ni 2.7997138018030796 1.6228957491213365 9.311667493239135 -0.3747187453733934 -0.010857254429478075 0.30566251400568006
Ni 6.410528009399116 2.1195233823909008 2.8177551022357012 0.4415584287057622 -0.2215293337001862 -0.4732714435383268
Ni 4.268766625874659 6.611969643043993 10.581695622263064 -0.41662052781350184 0.3720676809037915 -0.5666245997801919
Ni 8.1719419571397 7.205816329970485 -0.04190834345116437 -0.9919701661715175 -0.03633662964750517 0.9229887539057975
Ni 7.549611856423636 3.758673449710912 8.094515085498148 1.0556538203734078 0.5064908677130889 -0.0530606272704054
Ni 3.0259926834672544 8.38594661739899 12.340466099820198 0.7233325661296188 -0.35455538305164097 0.5850257279951989
Ni 0.16122370318572413 4.658310702549399 10.070564552377581 -0.03264863927295668 0.8041521086808473 0.5655822745586067
Ni 8.617604496090596 2.4151967408066635 5.821760684095175 0.1267096202151237 0.8141873814296624 -0.22489439351767718
Ni 3.700921432968369 2.636944990746388 11.603589535391885 -0.4862801970931689 0.25550774752815997 -0.9853516324137352
Ni 1.1482804879153858 3.1791496961443855 12.728686185112513 -0.46406766555187173 0.09263838956302756 -0.5661232346637411
Ni 3.0364889478009904 8.600285208681793 8.038521170468599 0.10365299550597633 -0.8786593358608029 -0.06463984746757255
Ni 5.803477509299575 7.790719080564447 3.470410652468348 -1.8186230270580424 1.112163325424362 0.7241416922944754
Ni 2.911725097285453 8.41092826802305 3.656620518859531 1.8663252182300116 -0.9840318851610472 -0.54000391186887
Ni 3.5674302500274466 4.226330310399828 9.589405145627012 -0.3620941146308474 0.8003481615537249 -0.7970599777207563
Ni 7.147432551832102 6.041841083949883 11.315324030600483 0.22842040439306469 -0.10316757122912555 -0.6410485232177219
Ni 0.4495235035957585 -0.024475338991108573 0.4825917000865664 0.9100689605203358 0.44892849591758816 0.318650955845548
Ni 4.758580261231953 0.5152952800003467 1.8024793409864412 -0.25716148108149905 -0.7589572573117639 0.0044094419216053095
Ni 5.921833494228739 5.614174719617617 0.4134210473723607 -0.1673381923697634 0.4429655934659339 0.5219532250147462
Ni 7.899255688369703 8.958557096262469 11.266225339948383 0.03204674402289965 -0.7997658066876936 -0.19707274331971864
Ni 0.020064741931867906 5.021465203203637 5.710577898557632 -0.29190376965869086 -0.8096676391824379 0.005014165385139752
Ni 7.914102081171935 8.864848830933852 2.455491385149598 0.44682199109754656 0.15101245862654636 0.46894324847661817
P 8.678894376649843 1.6471012357447934 3.753272792292763 -0.5763796222844267 0.04545890366374752 -0.869382024323935
P 1.87691798122567 3.2417211498209055 1.643189730188266 0.23658160004761833 0.4401612912479194 -0.0917107355424356
P 4.675287033771891 1.0058092679907427 8.215604792238738 0.9203037508744667 0.8473713243807987 -0.1426633153309027
P 8.485683691476476 1.513835681873814 12.522926011068932 -0.09257873996968571 1.6850824999640142 -0.23164842441205913
P 6.408768102653562 7.740566250897575 1.2880197910611622 -0.29268847034351525 -0.5279816905970133 0.11432204518404829
P 1.7484538139630719 3.392360142077476 5.758726239567133 0.4463746191474828 -1.0785032141677555 0.766679565656686
P 6.8355139003804615 4.021323737449856 5.868983043401631 0.9889565761561743 -0.2615485544056012 1.0370236068667302
P 2.3521920793158535 8.40052225531729 10.22420080119927 0.3376681203779991 0.30149449867091943 0.2434572441215291
