# total energy = -381165.1074959928 ev
CRYSTAL
PRIMVEC
9.34530910135317 0.00000000000000 0.00000000000000
0.00000000000000 9.34530910135317 0.00000000000000
0.00000000000000 0.00000000000000 13.67780450815468
PRIMCOORD
 96 1
Ni 0.43679788237659656 4.462852402640655 2.4710324526485326 -0.9964549414157485 0.05582841982352966 0.129317490151616
Ni 0.8608179235006947 0.8962871099921247 9.351159351365737 -0.9312599927756543 -0.09398719028143813 -1.0444240130958593
Ni 5.921272009181746 4.459946011483245 2.4704988354939084 0.5991140877674649 0.24616050198530512 -0.8905753705720985
Ni 5.143246983368653 5.153900635842762 8.482919383308081 0.8476999113648109 -0.38888758067460766 -0.6216171539659875
Ni 0.18023176393434645 5.753047098491904 6.475045126662212 1.0337451932257744 -0.2877056724169432 0.926192862665392
Ni 8.967011071891449 8.023349786033537 3.8422593899363986 1.4009663446705423 -2.7281672254231597 0.9364685335597873
Ni 2.662618767246073 -0.0027895747925625286 6.8247325785064366 -0.34477027864041915 0.8891838895412106 0.31389775743127873
Ni 7.592736629277437 5.863471271855115 3.8798462234897872 0.03066117652928268 -0.8841257582920128 -1.9868207392146233
Ni 3.680612642383858 6.968769025425461 11.149010867448347 -0.2806395095987812 0.08238405882487101 1.4476022993615263
Ni 2.529971448634239 6.896342879219901 6.634952712174901 0.5573745419368337 0.21015991552097998 -0.35737254078546193
Ni 1.5742734045424231 0.2791714868366538 4.303214896563494 0.39781187974743104 0.3897167614441224 -0.44819444596504104
Ni 1.382881472375989 3.013039825861541 12.380629165310374 -0.23050916860129333 0.2719520091271123 0.3378804934991213
Ni 3.8980125700199793 4.637890043728414 10.30176700554295 -1.0766319652869716 -0.2220633518267853 0.7618932000116362
Ni 0.8371696186009311 9.197045857549494 13.428554196714892 0.73409597529371 0.23191427647893606 -0.1987694142958512
Ni 2.189372309975164 8.642513900962978 1.8096013733244467 1.1761187452304003 0.07671117680980982 0.1492725931173042
Ni 2.0649488634486057 2.9862187884925144 9.331531398478571 0.8517812805230364 0.42643160036665273 0.8860026635997515
Ni 5.220962574574515 0.3518462182666095 6.455117189350118 -0.8656284708187737 1.8655649430252192 -0.6473706087810077
Ni 7.429249790345815 8.053572515946929 0.19348995407909841 2.433582566498196 2.479871936483039 0.8066118830752494
Ni 3.9746814865968063 2.6220788159893353 12.907211171177977 0.17431488079791269 0.4602333794074461 -0.5557362350024623
Ni 7.326404662733921 8.93254557160679 2.846009245685901 -2.786580889475362 0.8917675911079868 -2.0942470857201028
Ni 0.6697399937229713 8.168762796995926 5.934484407311478 -0.8060516396964053 0.21453541888085634 1.6359767435762989
Ni 7.198224401913862 4.6741965699230725 6.791249270217418 -0.6234560069469391 0.10529618753635414 -0.2192847606403836
Ni 5.40705571643146 7.161562753970067 9.603664932965883 -0.08326029078223725 2.4741625448030873 0.13794816924342046
Ni 5.637445623838643 3.240542032729689 10.16382650380714 -1.1851363753479782 -2.9807161474333115 1.3771952103928733
P 7.487816843025847 3.2151508276663976 4.057739791065343 1.971727849437243 -1.119279624754169 -1.1595567271066611
Ni 5.882021710592927 2.895933756429042 7.693122071511099 -1.333282311060007 -0.4349272965424897 0.13836545928649716
P 5.219158929901267 8.1330450252801 7.687268169835852 0.04780169286431123 -0.6762258424498031 1.6062920720276723
Ni 5.77807383649687 1.7249104433407996 3.4516899485191623 0.8634558886474871 -0.39997546305765314 1.6115587197432504
P 0.28695426032826543 4.792283896820292 0.0964034059887346 0.5539367198998782 -0.8273084921926527 0.9921159477207623
P 6.299738340669844 8.142343607921976 11.491503365748873 0.8377291733053442 0.3247835511058471 -0.4377107728248978
P 0.3570973474992422 5.602484822167029 4.311996683607283 1.0136268252093446 1.1268687499553367 0.05837484039446721
Ni 2.87900940148991 4.955312815601711 12.51795381117071 -0.5236018163617627 -0.03446229544292775 -0.8365855466192044
Ni 3.5304895955908115 2.3983521140330644 7.422315570928457 -1.349692119876598 -0.5342269001757768 2.2898337314125987
Ni 0.2787565551087149 2.4857307549391265 1.0335332552552825 0.5212659691397346 -0.10200800370338561 -0.22673967425653208
Ni 3.8727521992853173 5.7763636449155 2.577377398551264 -0.4284946535432685 0.49129641936083773 -0.2943056942319641
Ni 4.077302326788194 2.5107855288716565 5.3835429185149195 1.7763276087239408 -1.2001904414676234 -3.0658237758369333
Ni 4.789741972721207 0.5089165679098773 11.653134226275794 -0.3416543587192567 0.474901265832266 -3.4707126170358036
Ni 0.45527823129549905 6.8309817867603275 13.108219426498671 -0.2554666098775794 0.08211640698578115 -1.0495104264798312
Ni 6.008594578232682 6.738145485288582 13.078361163643605 -1.8229334815079379 -1.7098674202181776 -1.2351816128308275
Ni 8.290373305456953 0.6016080170892121 4.9142710212415865 1.7068671999392735 0.3040226644094119 -1.0462001311596756
Ni 3.149079491708552 8.76148903223304 9.288774739882484 0.4458722255897676 0.9041520808152688 -0.12702638012459413
Ni 5.7409729590212475 3.990409641959898 4.644257937408991 -1.642712005417603 1.5790934001256933 2.2020161602769814
Ni 6.838766429313778 1.9475063628853453 5.8251171884174076 -0.6209836341470466 0.8133404600483348 -0.13645692940987467
Ni 7.6145953074677335 6.8255334715038325 5.861048967713634 0.617253220570337 0.21656350505447863 1.1225269280468733
Ni 0.3479043668511895 3.6078781009751 7.855532330824284 0.32790204213017077 0.3119051524812822 0.5695991090274836
Ni 7.267781538198762 6.4820092510689715 8.342449106375128 0.9308049075161066 0.29199530093123266 -0.08093524219348641
Ni 2.024764033941005 7.240670796244914 3.880420960004838 -0.3577497216192226 -1.1042260728551565 0.16548982630711498
Ni 2.2928342279934544 4.7258107125673705 7.471527969111486 1.1075021725032668 -0.4724965130455153 -0.41794104639713825
Ni 4.575388615880313 8.681698782387482 2.4797721858009765 -0.0657590486736803 0.43206051651765587 0.4682763043165807
Ni 9.42969732978013 0.11122132823693273 2.138087122214277 -0.050571542299964516 1.3779454582953365 -0.9977636329248429
Ni 7.29335964944581 4.059004211398454 9.121303995644098 2.209820486812749 1.8890792240970757 -0.45704932525250963
Ni 1.200946993107623 8.484241744558156 10.900840574780428 0.43808229723170355 -0.9635134534927213 0.37000668460970465
Ni 2.5595773881412343 3.211104308788075 3.0032767813530317 -0.6526722234995792 -0.3775456732992272 0.565133359946646
Ni 7.577877587668812 8.968394177651245 6.842335402892604 -0.3775801260815885 0.15275001014294337 1.101386289413516
Ni 7.654322216825132 5.780540998122453 0.9125722457828096 1.669237048291325 -1.6379428661637339 -0.4182943159714989
Ni 8.76418048127913 4.706129491417833 11.714546925603514 0.4828349188570459 -0.6492850521949011 1.583355774946473
P 7.431371175531449 0.7952764665737977 0.9348206233662388 1.142676920632187 -0.596650713828637 1.094238108404509
Ni 8.081328084234737 6.5902746580097995 10.914423047153997 0.018626613962251792 3.321509443703854 -0.45911623508386734
P 3.902601116831196 1.6922672783477648 9.455698783533384 0.43191987717473357 -0.2954940581131104 0.6395362003382534
Ni 5.044065216958382 1.6557177741142237 1.375289343191809 -1.0256747575128142 -0.5585616202663993 -0.9487782041650756
P 4.471749136987454 4.283207524123303 6.665741767825073 -0.6333920351137285 0.704791827012954 -1.0443936740785562
P 6.802347759408866 3.843744359566342 12.392720126337569 -0.9175169321579488 0.11104851663909908 -0.13009473463727272
P 3.4161310470595296 1.1953771888316855 3.4700179688983037 0.7385077312081604 -1.1085429550629553 0.03987549603869906
Ni 5.289800122051956 6.400938693864684 4.09588734317 -0.13590105690640464 0.24240437737698256 -0.11310642760939231
Ni 7.6084554393313395 1.5214069904669585 10.247110030227102 -0.17560557458487822 0.23577864453034877 1.5865989644741192
Ni 8.475644060105369 9.182093362848992 11.772472890073262 -1.3639185478886253 -0.358326420058299 -0.14052441461102894
Ni 8.871810407195186 3.4555402159045414 5.825459226733681 0.15096540743869485 -0.7383082136028446 -2.3401378789837888
Ni 8.318371851783644 2.271751210465746 12.591021045586555 2.6617227206466803 0.3264018034355604 -1.0947584996843533
Ni 6.315896380255575 1.5942817115135333 12.991055416149209 -2.250280908820641 -0.8080041354370859 -1.0842416593134294
Ni 6.017351132941664 6.89750169755919 1.9021451666186142 -0.9757305643842034 0.49310030533879595 0.19700178087246717
Ni 2.48494574896735 1.2685789956998341 11.115527559159327 0.2130963724414846 -0.3649570380009392 0.5740494314893534
Ni 4.864906294518796 8.81766368576099 13.531164757066172 0.5310029939218404 -0.16096211364009053 2.697367980654116
Ni 1.8922101684210488 2.683692439464594 5.398259911423889 -1.5221048985557917 -0.25867868905697383 0.9593017294042189
Ni 5.096398948410141 4.681841032838704 0.006785629001271867 0.24284892111356887 -0.10193267038075993 0.3070897333705098
Ni 7.1890473082914275 2.9300908615105024 1.0262541939288938 0.06786246816992829 1.2256582467214245 0.7479999869693118
Ni 8.053226739506979 2.092106331948394 8.024152548092772 0.00024528324158667433 -1.9376491625859789 -0.4645363776581742
Ni 2.3530647457089167 5.028122119483971 1.1829413858954614 -0.9639898789085074 -1.0821724354892264 -1.1806042918055795
Ni 0.5985464937992842 6.90233322240929 1.7690464695730084 -0.39265167570273024 -0.13364208566889887 0.6829310223841205
Ni 3.077513113948271 4.934547538586388 4.820441313403176 0.13723674499869268 0.38728192675038464 0.7600643743330135
Ni 3.795531909466409 8.555985683193006 4.894999124634476 0.3466178733721192 -0.13056421807452354 -0.6198569767417712
Ni 3.462680032124032 6.900118384131777 0.19069851022469833 0.13185156942737938 0.3215352193718785 0.15421219651076665
Ni 0.2426724472727268 5.631305755702249 9.26637029563562 -0.3355770421769253 0.4938451539246205 -0.7015301255425466
Ni 3.1320616836775423 6.431413747126145 8.945762642391117 -1.32110736626037 -0.19051385915527835 -0.6323599943047884
Ni -0.20885551144570244 3.1587892679546905 10.164018082645491 1.596823727525921 -0.6398282776573755 -0.08607359186131629
Ni 5.245307105008772 6.524408918854085 6.300242987365986 -0.5830680900481958 -0.6586999177508979 1.0056502347617713
Ni 5.955868343795034 0.7157665760038748 8.908942124191128 -1.4128124453758506 -0.4060671777776877 -0.4818136766813831
Ni 8.030900795857292 8.825308148676623 9.142135624354655 0.9675637123026948 -0.9709403420844117 0.5311945411073562
Ni 6.135130064635685 5.443109919278047 10.872336447226676 -0.24726093413833541 -1.1407203111264481 1.0915603044620297
P 2.9891625608866756 8.56871399430681 12.427872506847532 -1.634874254540739 0.7304825469108387 0.18208398322037028
Ni 6.367164746459923 8.30252220740111 4.8175283805293345 -0.9228339734954881 1.2550726953277997 -0.567928663303596
P 0.5623128610162911 7.669284056834823 8.329687152148248 0.03776102079885755 0.4829038244217683 -0.27387879383617997
Ni 0.35288728571013195 2.2406500214887 3.618408395367929 -1.3070701714410133 0.4835944227308897 -0.5765058634496458
P 1.798373918866207 4.9545184643207465 10.478087757582196 0.31827274657052285 -0.6882079545123438 0.8888177644510433
P 4.100815124704734 3.5796833031554653 1.6703469211168278 0.3710112146148191 0.6642910386854302 -1.5254342200393405
P 0.3322061164774992 1.4249540543395285 6.625255084830706 0.45027241153999226 -0.2929190982970826 -0.44082874962858914
Ni 2.5396812248803777 1.4388692197201838 0.5508545774211121 -0.16129687127168996 -0.17297096517550856 0.5985451026378724
