# total energy = -381174.09487253625 ev
CRYSTAL
PRIMVEC
9.18645153988537 0.00000000000000 0.00000000000000
0.00000000000000 9.18645153988537 0.00000000000000
0.00000000000000 0.00000000000000 13.44530040937042
PRIMCOORD
 96 1
Ni 0.8327104666206031 1.721660387782814 6.812975398571774 -1.431319760151419 -0.8341483979326214 0.6484129340025929
Ni 5.120711654783267 0.6873312010370088 5.908550900281934 0.8654821750488966 -0.19106098990799997 -0.9787055878521274
Ni 7.166111771004632 7.125204503596304 1.0324900592059114 -0.2849749037493414 -1.4785825497931244 0.01928147393743131
Ni 3.5492681178113594 2.93316957839818 11.799501478617403 -1.225787058989805 -1.1430535872453154 0.7377435993486262
Ni 2.4182597994841526 5.4275850587300845 11.016312414740584 -0.10185373751370845 -0.7207887166618425 1.8506270907684645
Ni 4.229258425655915 5.165890622022016 12.352573613306788 0.8102677346602819 -0.03285818418060148 1.1349101322025745
Ni 8.554845979100675 5.1303023098864085 0.3002187386626063 1.0264699997206 0.13197189705532755 -0.17760075063803607
Ni 7.589120291631457 2.453866484522257 1.2968513227113374 0.05149045456980809 -1.2902852386731907 -1.099132717492649
Ni 5.904903879136391 1.4571824563465359 10.710391645788208 1.5193098523091575 -0.7782137915485308 0.40470732131568365
Ni 7.269045957240945 8.334270098179642 9.144094358805553 0.1895782347148864 -1.1475147083404624 0.21617783958028577
Ni 6.243378675377088 3.8626914614981582 3.363019249269555 -0.45820529323382375 -0.05787450371928098 0.2828750837975193
Ni 5.483126342976828 6.13648512865279 2.5859079415385593 0.7005320232953355 1.4572303093695935 -1.354348901922319
Ni 4.671310459720302 7.352863138429713 0.43856301988031304 -0.5673360240249197 -0.9787323273250046 1.1954444421422055
Ni 5.593731216005406 4.904646321425112 7.83741353325862 -2.571590128224642 -1.0617496488585003 0.5775106505650763
Ni 7.767557920676898 4.119232299055974 7.03780828100123 -0.7705256788756537 -1.5247415648476903 -0.2655517620277233
Ni 7.903352043028099 -0.058041836276508975 1.6398697377394045 1.6974618474649732 1.6690226182876742 0.621008316737395
Ni 8.284718380146739 3.5562130749550143 9.537504133510613 0.33969312122782785 0.33748402939165106 -0.886679377951802
Ni 2.950761632538523 1.4627035135467166 5.839320885030217 -0.28916065969591487 0.3122072571027333 -0.362267406983918
Ni 3.8900578997666084 1.1351330349376576 9.76663903105961 -1.236200283903329 0.687968584808028 0.32660054970992786
Ni 3.6306049571631065 7.48041701401126 11.87490203317255 -0.25184135442016625 -1.0412091057029873 -1.221260631874361
Ni 2.9601685586167013 0.29238361439299876 7.728170092305027 0.6738588848795234 -0.5194386861230087 -0.13653329117376486
Ni 0.22690626447617981 1.5778005612356756 13.31786570027709 -2.7064498883507264 -0.19569848868001136 -0.6654297802755638
Ni 6.928357226249427 5.480958340482247 9.641745551759549 -0.3169848809970347 -0.2527908628176292 1.158852759061101
Ni 3.5942266102201526 2.7105910511050366 1.2690081076231048 -0.9647938628670415 0.8855581198631651 -0.5010164748620791
P 8.738391275040126 1.6956351713966045 3.2583607661339498 -0.6710692379495281 -0.25546326744346975 -1.5891014191809987
Ni 4.277432176001585 5.208074806153847 4.165959183330049 -0.8742601783518428 -0.5391413067582587 1.2864334690272683
P 5.546898687541977 2.285184866702426 1.9875649750979412 0.17266577523026394 -0.5201621945525945 0.13431777157968477
Ni 5.52704676639457 2.382248910591127 13.184300210998707 0.2562482252386103 0.2401929715479605 -0.6063041777580009
P 0.9830697074258578 8.89414755595371 5.747301121521914 1.9279170228998799 -1.4831750542598134 1.8865220048928608
P 6.989300143830125 0.9482346842926043 12.585661440827897 0.2363874817589413 -0.40097305108423204 0.5243636342284518
P 0.5642529645035955 8.930268682261715 9.754390735610357 -1.286442724998649 -0.55857884665758 0.12742412978364506
Ni 8.715517011432057 7.056443916003372 5.583147505522331 0.5907901412828019 0.32738216507095874 0.0929968013437108
Ni 5.638055843278071 3.173744363686587 5.580767296003917 0.6545856384722082 0.12986667778686664 0.5670231207701912
Ni 0.47024525294517705 7.697309127981754 3.4692100324733643 -0.46295592054493173 0.5054937939071423 -0.4421268996147224
Ni 5.613445340384088 3.6707773084715765 11.050476826932718 0.270881658881069 1.6880125291266155 -0.4131693360401078
Ni 2.33535207696896 7.269110262399684 7.093672928331911 -1.4829855639568268 -0.09694781557165884 -1.1137892910635592
Ni 6.668803232682196 5.656061287724585 12.559994496040366 -0.6074346918180183 -0.0934472586175681 -1.9487766399577084
Ni 6.890876505156687 8.064629381141865 6.355552594278863 -1.4684099801354968 0.9763016063963249 1.5568351029481253
Ni 2.4377075167766367 7.786316654125765 9.308584198920821 0.4007426802409808 0.2884132400069291 1.7748268558086981
Ni 8.340856783724616 3.07443882569332 4.883292415498622 -0.804319487496647 -1.1063312921236172 0.13833254916603274
Ni 1.2839443587075872 3.6777222656152313 5.751724397797932 1.4160867452517483 0.47672314953235306 0.8714317077641122
Ni 1.184317294920632 2.9402064000543167 1.647183990223238 -0.9266818864866686 -0.4149176861897822 1.0202821257423331
Ni 7.890757418366789 3.3642621761234395 11.901174365097337 -0.8007497678675176 -0.19973100687817213 1.307661010947477
Ni 2.178713896735546 6.32515646438875 4.875305714783419 -0.7283374755433779 0.22370602963653086 -0.02269152806024479
Ni 2.334580415064109 5.993883845926658 0.31436036171411746 0.4182112693393894 2.1189193916558025 -0.2141250708163151
Ni 3.6184512821617107 5.294280464667151 6.51209615406442 0.08154047987765312 -0.9216672068808967 0.24258795414269835
Ni 1.0944554288105355 0.49523791221108676 1.9774947872396416 -0.27440278466045 -0.9022612915504591 -0.1583213335831338
Ni 8.380946456971854 1.2213662528047065 10.936098159731369 0.9964523703125872 -0.42280403091639446 -0.20818839361690597
Ni 8.05468964089129 6.8252209380856526 11.008850260391656 0.7746337875067563 0.38973604471783196 0.4590869245078287
Ni 5.431296385034365 0.6032476127620434 8.210546972768604 1.8069468762716943 -1.390682960466663 -0.17991011549750305
Ni 0.11102469385062272 5.169307981886355 4.436720647420111 -0.36573711070007336 0.12744572705019985 0.154486790328392
Ni 4.075008722747039 1.964770633615731 3.608302090822676 0.30930268186142856 -0.31087773965803234 0.5768534765970517
Ni 4.385565893644393 0.39614458124165325 12.180433296592001 -0.49736602259368545 0.8257421761467972 0.7691421682645657
Ni 2.1203248126018543 4.058932433062652 3.562749235018124 1.4926179448402679 0.24511560566055854 -0.34121804251278653
Ni 4.45497871927595 2.5535119212117086 7.579532392463689 -2.085513562501847 0.20950916931085856 -1.7075845377212722
Ni 5.705309852866296 0.20637546458153105 0.977993274466091 0.48177228192048643 0.5532332660749505 -0.07847983867445839
P 0.12823734755441413 4.891518882591405 11.544067608434998 -0.01706338324018997 1.7563311109973558 0.6879819545444668
Ni 1.641912804497009 1.8289030196545442 3.82248512032007 -0.775946849891225 0.6735207848138143 0.8416578189357892
P 7.258417233146754 6.155749116920309 7.711053896339342 1.75789485594005 2.3267079787311284 -0.7623220600189387
Ni 3.4898777104916117 0.1298045561373606 1.8351351081813374 1.3401085899532208 0.6788136577816374 1.995627795983292
P 3.5738235019978535 5.069414511013201 1.8234784201924699 0.29555036527234263 -0.26553942073254916 0.41390801397834515
P 2.177822810964469 1.6676716137970202 13.304608732480782 3.284768379529079 0.3413921061968056 -0.4426840576697731
P 4.652156708867762 8.414715851760313 3.819433381215411 0.3664598477987108 0.40151966761632135 -0.5530381193450088
Ni 5.067228135616125 8.411702695750897 10.110972945906424 0.042943336330745395 -1.081755402556466 0.434715951862632
Ni 6.38572273746827 7.916782634752998 12.37614329127435 -2.0073620537010846 0.8852264475553594 -1.212326048388893
Ni 4.543655533175025 7.399612988831909 7.923677985059912 0.9605332878184747 -0.2343959052502092 1.9523576724407474
Ni 6.020487808741506 4.4314430311780075 0.7924232846715306 -0.6690912882875509 -0.25063704969941997 1.523439558206815
Ni 2.5963942756384037 5.4156426721073965 8.790698928447496 1.419417352286878 0.1829458170000333 -3.210621106791703
Ni 1.017436221545452 3.1893797037110594 10.665874103039329 1.5718932828328283 -0.2788250820978617 1.226011259185469
Ni 1.652559901493697 1.6113954134504194 9.122555805208975 -0.7113296281314717 0.4708993437617245 -1.2259505811508629
Ni 1.5810433785262976 4.0279373465511545 13.21008749829759 -0.2668460553591146 -0.9786084001526308 -2.119676067316169
Ni 6.955163290991735 8.110028823210572 3.590903870803671 -0.5965121313682437 -1.4861925009298984 0.6032952157283481
Ni 8.370969970916285 4.145569854784623 2.4273203963502734 0.5171249503881674 1.1295100442329258 1.5294770226501466
Ni 0.7218309186997022 5.999000699271917 9.670169350566669 -3.2307947535261006 0.3540812716286999 -0.45333228141223864
Ni 1.2441945841565356 7.514177222348471 11.59790205003982 -0.3892349367116974 -0.94703525333204 -0.3242243361682674
Ni 2.819606668067674 7.072097628930339 2.668515267097936 1.6150564484838636 0.8274144216428977 -0.11153728335005952
Ni 3.558564806474559 3.476777831011649 9.467588808995776 0.07097118900223906 0.19663668422356456 0.5058506630259288
Ni 0.3897939874937582 5.409322393648621 7.122714975308036 1.2151851151042428 1.0087309305696242 0.8971640795332098
Ni 8.13425349515213 1.3178515502647703 8.631088931235283 0.7568805772883933 -0.6316334005514089 0.3713259176417605
Ni 2.388560002598655 8.922974639970628 4.2947109721543635 1.9909900401009646 -1.3628736515638786 -1.2264362625380296
Ni 6.186404304735622 5.912069311110003 5.790890832694721 0.047186942098447766 -0.9395440871613173 -1.4119125592694006
Ni 8.40207529484276 0.4201230562897593 5.200628268772039 -2.344108947816395 1.3753861822085924 -0.5392914591828777
Ni 4.331613865463591 7.50463249950157 5.811690795610944 -0.1553375683644615 0.5395683669933481 -2.922154387839019
Ni 1.047181950687191 5.668674285288391 2.426298862971471 -0.79547180729803 -0.09302482636816882 -2.3441061196029174
Ni 2.328655154009007 8.656650231833458 13.563753010322342 -1.4286913213896362 -0.8224506498797192 -1.4273003545793805
Ni 2.0286991478520995 0.4816061372038518 11.113414123079403 0.5440539135685276 0.8179429918173526 1.9606340535169267
Ni 9.298066630886733 8.396444000227602 7.691168903967443 0.225425840541115 -0.29540304106120097 -0.06262050304469861
Ni 8.52910554270316 8.521581839130866 12.557156801249793 1.4342798712210074 0.4826539131944913 1.5857690123736559
P 7.322731578335548 5.818413440634391 3.8219477129220496 -0.17653425704673467 0.2570648076026347 -0.2759834988840086
Ni 4.469291210320677 6.0637008754131365 9.934759356708174 0.9999966360204198 -0.246524313082627 0.5973551960948293
P 3.473231860829835 3.387898915185112 5.245992802326003 0.17789797016348072 1.1534418724581748 0.09819145817077284
Ni 6.217445323503361 2.7691546778124447 8.821851103275337 0.5452800726661448 0.926312933183024 0.23580332712069715
P 0.2756523307346141 7.463725232093243 1.0662153590283798 0.38374460302108754 0.18284708663863994 0.09978142836571204
P 7.332092572157486 1.844354630654052 6.84224618818398 -1.1381191260581753 0.496829433363925 -2.1912200981027423
P 1.318467042498401 3.7064115528634254 8.424636300463266 -0.651846128053858 -0.23619156369805125 -0.3234900291054042
Ni 6.473407414632538 1.2289358886332407 3.806727600493997 0.1424098045591999 0.7435244676964615 -0.4125656410178379
