# total energy = -340869.29445271613 ev
CRYSTAL
PRIMVEC
9.25856835850157 0.00000000000000 0.00000000000000
0.00000000000000 9.25856835850157 0.00000000000000
0.00000000000000 0.00000000000000 13.55085066309644
PRIMCOORD
 96 1
Ni 1.110269026560287 -0.05129709919826273 4.3429260207613565 -0.15262119787456296 -1.2434158278151617 0.9492939674592296
Ni 3.364748992082419 9.124356366444312 6.581865478927783 -0.3058188370778862 1.1070900246665125 -1.3805263316486354
Ni 5.837166403327483 7.930630602735187 4.8154037372176735 -0.21834039444924336 1.5523338726436622 0.4162520887304896
Ni 9.28588135383045 1.5709198475169448 8.14139173195445 -1.3721450495634755 0.5796148413922728 0.03899129366153285
Ni 5.4054763848782095 2.9708431919939633 11.558997892040278 -0.7541007005504109 -0.24435790155892753 1.0725840204698431
Ni 3.100500186339685 8.930343061923132 12.835311939165765 -0.08591752589942624 0.12949901003480277 0.014313074188562447
Ni 5.213101846995076 1.1132965784848121 12.773980403344257 -0.689262106808471 -1.8171096757373093 -0.017884079369272426
Ni 3.597074253373278 5.397189966002216 3.6284709852731476 0.788915494236751 -0.5392924876241422 0.849899233008975
Ni 0.5318371771710219 3.2625066192918015 6.025494020885816 -0.34893675131328294 -0.6655657916327957 0.22349699894951833
Ni 6.094869401086609 8.556509838508594 9.866388048437715 0.35527554904711717 2.974148521518123 2.033359249095795
Ni 8.29716807411142 0.4224295981590282 1.1714218720082654 1.832949470983043 0.9091083963792794 0.9575454088347444
Ni 0.740301255526449 7.884624775478411 12.259902086559876 -0.6506467084291181 0.23668932927007624 -1.0634943994637491
Ni 8.807120772738099 5.3486750666612 2.4050187354353585 -1.0325208339003702 -1.5289628020178894 0.5075735592543065
Ni 7.820212913891494 6.498431888200386 12.68163173693452 -0.33572976570470564 -0.7682852195809091 -1.2912774273831311
Ni 6.67709448602168 8.14827177426367 0.8785381653720408 -2.273339333302001 -0.9044783538064358 -0.5677137190793127
Ni 6.376866882790551 6.549631772428595 10.489564708043632 0.6110954284990572 -1.5157622441672154 0.34934889915003703
Ni 2.0497544971579074 1.9188013032114715 9.341130010097174 0.2237667076711372 -0.13191713255799214 0.7580229184229526
Ni 1.5294784945683981 1.901700727050621 0.5014190759696912 0.1390455160726573 -0.4146184097818085 -3.357742200783643
Ni 8.333702385714407 3.399718605595971 12.45064341294611 -0.9497518809322547 0.25046324312571705 1.0199512247654758
Ni 0.6538438163019571 8.52903966554203 9.076034971186546 -0.22688314181293184 1.0651082809180883 1.235522283999698
Ni 2.008118714269253 6.071769272488169 11.639612248636121 0.9084658776992742 0.7664471379309058 -1.989281027829658
Ni 4.026542215364184 7.673196103464779 10.916335649008197 -1.6539613530791772 -0.5827731845155963 -1.0535869105420501
Ni 5.2003898323395 6.11578450750099 12.811665555021305 0.42297063840124577 0.588932776359089 -0.9820955873702828
Ni 2.5635309846066927 3.0395139951260837 7.198930557416334 -0.48356768325801236 -0.8835637151409557 0.05941022363751703
P 6.232201748782274 6.666891543450344 6.5440451521495175 -0.1350417942299029 0.14503721487971796 0.05110427487498296
P 3.6848454834787794 3.4126435673288067 8.873273245217405 1.2589311498419415 -0.1451670555893629 2.0980867711811673
P 0.15708365203997562 3.4318643556936825 0.9149548931541049 -1.3704239531073108 -0.08176185185983983 0.9317230484550019
P 0.9343006721947638 0.9797972781798306 6.352530735287143 -0.023029885236270014 0.049173890621489504 -0.38073872631522815
P 5.5422439598907065 8.238940936333625 12.158934618662249 1.0781671709845753 0.26491644243656953 0.9555574318704383
P 0.1541884976460948 3.0023130665855877 10.692122745504092 1.4976717052140915 -0.6511778983422398 -1.3201861399976813
P 2.7746633824258757 6.188547597943938 9.535178497178945 -0.11775189680120365 0.37139276632395396 -0.5747968511783391
P 1.1753475050847142 9.022021407967928 0.42662835900848434 -0.4924698708436486 -0.10376201028001485 0.16376127365178247
Ni 9.069304917688267 5.337916609975272 10.83298353368427 -1.7362772776702742 0.14814619282234484 1.5187174701407975
Ni 7.750579219627414 8.881457819839056 12.20859850636361 -1.0646429112458955 -0.3899841561728961 -0.7957466582259715
Ni 2.4338276974180886 1.783959510462893 5.11563596973309 -0.4899435048773691 0.9750505075980433 0.4824348552051497
Ni 4.4367801304216385 1.2266399749986885 9.834530239822735 0.3620558051937442 0.1247614953498174 -0.4776618592965386
Ni 3.0059424254675875 8.342359147333461 8.75662731729228 0.1253687899165131 -0.514322705052682 -0.19434248887274916
Ni 8.96468309277348 2.4206990471765693 2.811300464140061 -0.3573154622952814 0.3178896521994912 -0.2373218206477526
Ni 5.291605249955471 3.2314996731290035 5.260413132421142 -0.5384139416739308 1.5882154170316194 1.2878087521082402
Ni 6.034753515319203 1.710631647336778 1.398624367305731 0.14968834049848415 -0.3930872205782521 0.3639123987865088
Ni 6.055983413065185 1.894284613620821 3.6701262111558126 1.3180531528150783 -1.441483330947982 -0.38658490068336004
Ni 7.167150520777396 5.173734413407671 4.77228473164306 -0.00213632961671245 -0.5970232666767074 0.6538593018291448
Ni 1.2665629227006847 4.314724420877248 9.47655694437979 2.3713942658949096 -0.11287579965582495 -1.1282504607942117
Ni 1.83644633572324 5.901291249288528 2.2538994532723833 -0.5435420069291155 -0.8666504843253849 1.2425537369251825
Ni 0.01141766676857641 6.326111409854015 8.563514871493595 0.48846692033184264 -0.1386912180570321 -0.11093230277620895
Ni 0.6691056407435085 5.199936162479251 13.591503675940109 -0.3131955891579316 1.296413977278748 -0.4278616479449599
Ni 7.813583778790698 1.7780895779853731 10.424140884911301 -1.7369347087486149 -0.9129524527157179 -0.04022876561305975
Ni 1.3770361629558368 3.903468063276375 3.860962900798385 -0.12729711728747753 0.692233273621653 2.25791245722397
Ni 5.276615627430069 8.806954118503722 7.895267500057132 -0.06775371050620589 1.1335484759683574 -2.1121612469963624
Ni 1.8796838509756335 1.2350837895404836 2.4533540185459892 0.7932133502811565 -0.11810825169935789 2.5104932609133215
Ni 5.839518079745922 3.6596806940877715 9.550518093596539 1.2065590639981285 -0.9931042797759605 -3.0442385934669893
Ni 7.569194602644621 7.920353591615238 8.21834710224885 0.36028122979182464 0.007417632620309806 -0.9455833513768617
Ni 2.1055373728314986 5.499099030324078 7.309992642632953 0.22432309439523948 0.6022819439724854 1.4685277366602838
Ni 2.4167178626886616 6.782660684931271 0.3444446750389186 0.7580090344658816 1.888441847623393 -0.6086649646806938
Ni 4.5198757833959915 5.345471601933721 1.2651250670007497 -0.5734061414783995 -0.9734559094174138 1.7355044040599916
Ni 6.087990284634249 3.7618767740355064 0.14781119561058115 0.9343532869889973 0.7681723481521286 0.013858503149647101
P 7.264300680850922 1.4772972020710768 13.202323449253116 0.6365197821094328 1.7612491171242635 -1.0259694059350974
P 6.882208814266119 5.84069391795514 0.9606487066498519 -0.41903042280657515 -0.04485083776610341 1.2194536605726094
P 9.23964406235926 4.309298899691401 7.785939544734896 -1.503652862498191 -0.2846177775202389 0.08212026364052308
P 0.11386835735216565 7.223025982136752 3.460088176142375 -0.17192144086507166 -0.3342776066392114 1.020601970975597
P 3.129553574532835 4.984211514646109 13.065364221871084 1.808085360751512 -0.9524507679206563 1.0613644976049397
P 6.605988679353931 1.3388167918719223 8.675350047186356 0.00032884409432846595 -0.1119769419906394 -0.5348555348987111
P 2.9224301369072894 4.378330786998006 5.620500159070108 0.53331750098763 0.5770388531349804 -1.7418709697079677
P 8.42472337339027 7.36224707782203 10.370994849568303 0.3683023003240883 1.2583007153467944 0.021451742115872734
Ni 6.05367802948963 6.382190559722056 3.1202190856939778 -0.36499868987215206 -0.5461737881250077 -2.017161299179694
Ni 3.879914264817683 6.815287880594962 5.983974895961226 1.4373579959256988 -0.2534002142668539 0.8638492674311639
Ni 3.7566086485154613 2.6220266208732075 3.486187155102755 0.06313703766980094 1.117894057260552 -1.7022808661201716
Ni 8.29444605494992 7.571666640454554 5.7028754954092085 -2.133272832163997 3.0959833301394486 -1.6037777902462507
Ni 3.0384400011712067 1.8372240554836683 11.742557346781696 -0.18228812881137638 -0.5029224336355403 -0.6095180567096082
Ni 1.0636984266203426 8.218988721051204 6.787227936810073 0.2646904424686925 -1.3466178518266485 0.5157771781110215
Ni 0.23857109165258636 1.2408148434893556 12.188774059327544 0.6590470166776714 0.027317199757714246 -0.39932600239911226
Ni 1.7941624530342288 6.437056837106571 5.179718226278682 -1.507204070184559 -0.293667546427333 -2.1521455006987837
Ni 7.177325687643002 0.6851535176572076 6.499841968194592 -0.2538059343457048 -0.1666861606080613 0.9090770289207118
Ni 8.161946680051205 0.6783456921828853 4.3698240141898905 -0.3661960526143629 0.2348149950654988 -0.36573865336197015
Ni 9.123550870978153 5.7701714011077145 6.159349776080993 0.6430143886948408 -3.28815863615755 0.7110750889185045
Ni 2.1046300331109986 3.5779553092627445 1.892349572788326 1.4570665300982195 1.0620617807822805 -1.3989575417706295
Ni 4.867405413484611 2.062160979050457 7.2867943732076 -0.13052359464457522 -0.08412186745158416 1.8965536780972498
Ni 3.699344401869625 0.23457509345495614 3.836326775673097 1.8519751201559265 1.9545176562065434 -0.22650364698632605
Ni 4.444696206554571 5.066085036568361 10.601928548002112 -2.001965822386178 0.27254439129547253 0.15809893315968257
Ni 4.31365042692237 7.987117129620595 1.6441245716809922 -0.60846596129601 0.08741802170435269 0.62245379093467
Ni 7.075101831989537 3.120720900110826 7.249650847792279 1.1109466794084417 0.5093033974612197 -0.2433466866855938
Ni 3.771968613783924 2.845861774779389 0.1603917385923697 0.28518779109109593 0.6323738782618593 0.7838761320406307
Ni 8.786353803420942 7.260902786183336 1.0977514418448189 2.0941049037152837 0.5897401027517328 0.601493386632919
Ni 1.732481869177388 8.165909347401959 2.3173715701487825 0.6031136958451613 0.28643014813862927 -0.14272219359329613
Ni 4.685215301035659 6.6133584999408495 8.37328739566336 0.15366146621361923 0.5143782408809657 1.514685980383901
Ni 1.7907460412294893 3.8119841471716853 11.886792883208022 -0.5027668818942824 -1.84446827025592 0.32115366766274367
Ni 4.796077401171026 4.764163115287728 7.1485074670916955 -0.35631761715838633 -1.794179549303697 -0.6090704276492285
Ni 6.928631277108838 5.47148072026029 8.19184167212796 0.8422036641369303 -0.2245778907185229 -0.21033037966057325
P 5.510357449713138 4.097231386445988 3.224357613329069 -0.11646480255866394 1.0059803644076803 -0.25212674687106895
P 8.108533997933204 3.140376841198798 4.7109531958215545 -0.6876801070333317 -0.09133509737057173 -0.5185079467786232
P 3.19231741091313 7.623894225794758 4.080784465226642 0.21443154631314038 -2.601227234364784 -0.32903409885208496
P 3.998035082717049 0.9494199146802367 1.6473363691201903 -0.46949680698724305 0.37401863398257523 -0.48095595666677815
P 2.2878108123976384 0.07673501636227804 10.516788603086061 0.1414456408737177 -0.03884371234007503 1.0889046120067376
P 6.732784776009506 4.693140635737169 11.405466752763116 0.08193283022006534 -0.7874414807943858 0.753081001036645
P 5.200667589396796 0.9316342044447232 5.565117253559023 -0.5583497613659093 -0.7916064108053529 -0.9517920512907351
P 6.724553908544971 8.948054703610035 2.9595329246208744 0.09862983125977208 0.1634188027106992 -0.3615570111804547
