# total energy = -381171.1889594653 ev
CRYSTAL
PRIMVEC
9.20624270075570 0.00000000000000 0.00000000000000
0.00000000000000 9.20624270075570 0.00000000000000
0.00000000000000 0.00000000000000 13.47426677382694
PRIMCOORD
 96 1
Ni 4.717444356971285 4.081808551471233 5.185571659999666 -0.3607005767174304 -0.6893071011137935 -1.1208842502371277
Ni 7.708644599787775 8.511557831073352 8.008537948437391 0.9054584583315181 0.6454047433038884 0.6226417385757599
Ni 0.9691687641562905 7.547102663064679 12.993275428827193 -0.5459907255799242 0.9546876276709753 -0.7981506396817738
Ni 0.09443671469264496 3.3973704546068957 4.140952215008601 0.924327270211563 -0.07218552102531439 0.5594435086507203
Ni 4.177470617037408 5.563544071710904 11.283755374753959 -0.9760740637665514 -0.5707982715419073 0.21587933450326047
Ni 5.893744370590898 0.6024215238958124 8.527742405345833 -0.9000910233720176 0.07294373934757761 -0.47603280833354794
Ni 5.175408888930615 1.4395801359429212 1.8705243462357404 -0.18664306334596242 -2.418727246652918 0.07807823236066552
Ni 8.99917567004728 8.32406349681094 5.962241576483692 -0.6402748782764909 -0.8511174216867923 -1.1412810687259247
Ni 3.2646532630755716 4.884473214209964 3.281496083685072 0.004340793467198976 -0.44526570235402024 -0.3326544692134916
Ni 4.349314339090939 2.456409617396497 9.535172313231602 -0.8080838396350857 -0.9140276880577678 0.5513933846527342
Ni 2.2343734613648327 2.1396872575010932 8.350003005610791 0.7840375973191593 -1.1904354189633886 0.6687881552248353
Ni 7.222426109670173 6.183860689731202 1.8013072121813383 -0.49352093781598233 1.682581073698399 -0.6650171182181773
Ni 3.2291908170587384 4.693213526774944 0.8773475429510241 0.3966463986844201 -0.48057646184017233 -0.67696323483646
Ni 0.7347999257040265 3.3375206722716335 7.2719943604084465 -0.4433533158226558 -0.9275768874971122 -1.6102659690737557
Ni 8.24261586962742 1.3397292300502504 10.20575961829108 -0.25391314934753045 -0.5376534093588224 -0.4356451485451207
Ni 6.444286876887007 2.76559206470421 9.05272654128059 1.7445567440702472 0.09491741540519137 2.3286944130335376
Ni 8.653959989689232 7.453778983087361 10.68357096777977 -0.2758240904880089 1.7826985452472912 0.6228248011208435
Ni 3.227202268683963 8.293710515368184 12.75247695062982 -1.240617182024102 -1.1005594226368467 -0.6561360136784636
Ni 3.7557694741903065 3.631586469434061 7.514517167821538 -0.9396968106890978 2.805645619416297 -0.45494539153562946
Ni 1.948538044975782 8.36588745637856 6.900993836124143 0.2428553488714721 -1.0393062322533198 1.4157255052575877
Ni 7.832312054965374 4.232450297102966 7.687500622693575 0.09598159500364761 -0.24037886230652147 0.025202210297240468
Ni 4.177019511156094 6.602882816017843 4.545665078615085 -0.6540626760892025 0.8622883507019472 1.00897492825963
Ni 2.289270285248107 0.11699661187962537 1.2054874847649315 0.8132486716654769 -0.22804553755214918 0.6627180377713554
Ni 5.660771198497967 7.267776060106029 8.596029708910178 0.7550029006497061 -0.23965638231820016 1.7760293607572317
P 2.5390908810717763 6.010497937669162 12.71070638726856 -0.25270755907520354 -0.48822523663468176 -0.2802970386576979
Ni 6.612770320436867 6.397997889718618 10.621602829050822 -0.12636509239151142 0.050421904095977674 1.1839089306987804
P 5.041071398723549 5.889435849112218 1.8787574888818601 -1.0239590603732882 0.3215041090236269 1.0882330398610098
Ni 1.8913672792009815 8.390302411424416 10.629485213858615 -0.8873861742108395 1.1607548611798202 0.6928644794477486
P 0.68607772864928 7.349997011657518 8.961290141010812 1.1909390980726844 1.4691556000522699 -1.3316180359837066
P 0.8457995912349072 0.9757788462539244 6.52033228098572 0.3110548886658449 1.4197384830717226 0.4282910221728947
P 3.165400762943829 5.583742567702838 6.329132434126793 0.5704025787653855 -0.9212733138765875 0.007654945442096494
Ni 3.6242675066657895 -0.40149896435817806 3.2278678800149647 -1.00286830114126 0.5939572261568739 -0.7236153874773602
Ni 4.526322763173401 8.076636524030983 1.2999536594334993 1.4137514122503523 -0.5570115021704601 -0.47226254265783824
Ni 5.452415518785362 4.924732112556697 9.246890798216729 -0.9382271681221068 -0.7490916773715938 -1.0582082113641453
Ni 7.547995668584833 4.278150084752903 0.056488583207342645 -1.2175183912231096 1.5670732357363657 1.0774436625549895
Ni 5.586983165054324 5.534535201669616 6.857391230510196 -0.025510742676594776 1.1348003460975875 -0.43321571316802165
Ni 1.4625865358899786 1.169524219157415 12.557450068773697 -0.25653284635856466 -0.20900369042934971 -0.971634539937959
Ni 2.751920794627627 0.5829595273019431 5.173606306653852 -0.6506755047845245 0.8808303753701927 0.3332882461427486
Ni 0.8897722877963817 3.7016275621900485 9.84897445301368 -3.6923051998737573 0.6807527837858792 0.10740449212860856
Ni 7.675087845963435 6.793893934906016 12.776528259097882 0.006500520122679127 1.2371299948064498 1.560519750888564
Ni 4.4987500669583405 8.224718934254438 7.1066382774276216 -1.8376021392637063 0.23926248931389113 -2.124013775459574
Ni 5.314404737830445 3.376591965338985 0.8645425802914154 0.5309335741364857 2.101679630738748 -0.5207697462296064
Ni -0.08388636081536294 2.814642924615343 0.4685434251882882 2.5501890368410467 0.15742016192510308 2.480109763525458
Ni 8.255449371638704 6.401625149254088 4.150774355106046 0.2748578699199976 1.2928483714146766 0.18142809480392624
Ni 2.955673353102326 4.333709758094436 9.595308409707863 1.0800651593382367 -0.00868750047166891 0.528440889621619
Ni 4.1303898930161 0.29102773714540914 10.843052547436777 0.453243064132542 1.6594416594674581 0.9800818993743637
Ni 3.193857258436567 -0.20500921057264782 8.880861644869364 0.3819926533269873 1.2102686516392318 -1.2266141828767907
Ni 5.867423723352547 3.178399977319677 6.996836344042844 0.1710570359822473 -1.1840050899570125 -0.38978103902315453
Ni 7.462902369380891 1.7659782566804048 2.687401606108633 1.4900036471458724 -0.39186980323138315 -0.37223274572674603
Ni 1.3225227628629554 6.137221865348732 10.70413218972525 1.6588130247445239 -2.0008980432432963 0.7225792329033621
Ni 2.992774510279854 2.409669524346793 0.6400814999916218 -0.2976946653088551 -0.7349637226106439 0.3453402922112762
Ni 3.5876450740970043 2.2409835434624665 3.4735714442034493 -0.0404719919721174 0.5753588943293962 -0.09774177222786393
Ni 6.219240279565752 1.7966534566098147 11.428023638719687 -1.9755017146573786 0.04052469958692376 -2.405768115389089
Ni 2.369152851210739 3.292299609230439 5.412761470569291 -0.30733090284703846 0.163298475082751 -0.07069299564018793
Ni 6.991616404559058 9.041947872589907 1.0368944869296108 0.33007231030861217 -0.47383888600602264 -0.534509464413202
Ni 1.6965355696853455 3.8412310230932807 12.260975918579595 0.6950674006363384 0.13411773975373675 0.11245722406116762
P 7.623459238159074 4.473386868937475 9.850281739445244 0.7511889262202547 0.0025160815536343765 1.029283557909995
Ni 3.1202809685698676 6.638676686763805 9.179815956786449 0.821790904808533 0.5001376718015516 -0.7351619546643791
P 4.728003917091043 8.682094266695318 4.947076583669743 0.23578764339141328 0.8504309371427289 0.7927312684384153
Ni 7.04427611152071 1.977390408894981 -0.1740237602718031 0.6339453365140373 -0.8974119338779577 2.8072337898390236
P 1.4570535841620147 8.48102072478108 3.3143329093478022 0.06772542837143174 0.07884904908841904 0.46099519727413507
P 1.5355460075107987 3.651803377910947 2.1652069616440475 0.1683280670868585 0.6580687119248021 -0.06899015401646828
P 4.372081376733625 0.8376732410015069 13.260591567851895 -0.19772888884647882 1.9184831311804895 0.579831328278453
Ni 4.109418072656197 3.142247063117158 11.948225131688258 -0.04635956110114596 -0.633293047642019 0.3630857891201554
Ni 1.085554081535522 5.337171775473131 8.308138538576278 0.7400578493040997 1.2896558326193077 -1.066917309102369
Ni 8.844704127545608 5.0647774730987685 11.836806582124726 -0.2212953633125092 0.842779077024426 -1.2167262343391176
Ni 8.232314084296984 1.4231377868811186 5.345362569403862 0.8914778277817098 -0.36291146832582016 -1.0514644648824085
Ni 0.9762943958325699 5.64726564078595 3.125086627142242 -0.03855729144790779 -1.347362700412473 -0.3133866221228151
Ni 1.8768858597865274 6.687552628067897 4.990719696750583 -0.8976006528499961 0.8952612060835421 0.1532778576219554
Ni 8.101309253866162 4.277459616567216 2.4203690193521834 -0.18041687993059252 -1.0238996678902623 0.13778361864109817
Ni 0.09816524289534932 5.129801163705436 5.8592172788096075 0.24158008170347428 0.480017761123225 0.3190124529500247
Ni 6.257897291721692 4.236252475245477 11.644595889841955 0.2326591250647606 -0.8168438452159029 -0.7867670804351805
Ni 5.5275476636304735 8.386039921158115 12.652619600367416 2.1574214043857425 -0.810319928054456 -1.025780172742427
Ni 8.688695142550477 2.836820762739577 11.7559334244717 -0.44560045998561965 -0.348682983431264 -0.5728327854734329
Ni 6.0843135898402325 5.765989343754037 4.053329040372305 1.2581639326586136 -1.4279865820131277 -1.2783720321753727
Ni 6.097681053915114 8.463897113776067 3.092357514516479 0.1294378177795642 -0.30885402435978426 1.522003597091237
Ni 6.637875743668409 8.929935520386687 10.42921721816101 -0.1312386184337288 -1.7127822798721275 0.7554291895538474
Ni 0.7645333270281607 5.57091827193403 0.7001227721703807 -1.6565450546459535 -3.1235452989181174 -0.7538831852229662
Ni 4.309267184321152 1.5014460853803866 7.12795441125612 -0.6040441780792307 -1.4008519305798648 -1.1168563600246573
Ni 5.44645907990351 5.832900314068247 13.255902828558966 0.1925200909520297 0.22945193098137256 0.4004333765306781
Ni 8.502333176112588 8.964440517186036 3.4497217524456074 0.06463059149619191 0.1449600817848794 0.4053261858466051
Ni 6.527087821714471 8.735444441842656 5.986454914819328 1.286055002641927 0.10946805952585663 -0.1351816622418769
Ni 8.021748906390183 1.8629844336480494 7.601332034368458 0.018722773220483883 -0.982199974158631 0.18717476747971637
Ni 0.5834971718625306 0.5167445489189038 8.77494106331239 0.7560948481623042 -1.390413251745044 -0.5439520978833406
Ni 9.4454206553349 7.468407702381427 1.861874160805466 -1.142539366613058 0.5610404208241951 -0.1205076051694699
Ni 1.0814849223612124 1.6924387917836086 2.870314914115081 0.2671820985422947 -0.7321460506561907 0.44414572981696415
Ni 7.379263656488127 3.617887580630051 5.450866108176682 0.053937116338087746 0.7506034860304298 -1.5483180666160494
Ni 5.959909635264568 1.7177743710770466 4.7198195675300445 -1.0607425477502248 -0.24637081822389825 -0.12763367469128986
P 8.73695426560869 9.076204300842408 12.289877996208164 -0.7528781409972195 0.4501975924379988 0.08148160161525968
Ni 0.06930735523066504 0.5632241053065422 1.0814674305005083 -1.4048893338740323 -0.7037934676554266 -0.9775979566102454
P 4.697798235527899 7.492224251666356 10.679366476841066 0.22098451694030977 0.5496195805817632 -0.9513333664867617
Ni 7.986488997707819 6.307537351151277 8.492398719856938 -0.23541123388860102 0.42076694588170765 0.6448234168791218
P 6.016748976310239 3.230212709973554 3.0403873551162652 -0.9091140528062344 0.8501861681217745 0.7119351229259545
P 7.5578279355490015 6.501282724054767 6.325373525323918 0.06662885287314331 0.07759486496634378 -0.5041221103705963
P 1.7406058524170636 2.025888894257565 10.49145417917025 1.0724163845437273 -2.279541862568287 1.161706426459812
Ni 2.5223447260082716 6.7955878835215655 1.390019250198628 1.072329995477508 1.5621027791049678 0.9526016916762239
