# total energy = -340893.9646066677 ev
CRYSTAL
PRIMVEC
9.03939512279923 0.00000000000000 0.00000000000000
0.00000000000000 9.03939512279923 0.00000000000000
0.00000000000000 0.00000000000000 13.23006847828157
PRIMCOORD
 96 1
Ni 6.398029557885732 1.9340599188120744 11.666578572725854 -0.6351270155269643 1.8718294358776926 -1.732763865200377
Ni 4.715201544829171 0.4081774978286809 6.0552303884695045 -1.2926786786060318 -1.630415704548753 0.2835001189760279
Ni 2.663511978638386 1.5718603998066525 4.869749889343372 0.7637816752836007 -1.1633989836708867 0.3705756697392973
Ni 3.431914791600399 4.3604866448992565 4.926348253374135 -0.2435204932592967 -0.7634818846549948 -0.038951184452216785
Ni 4.863058929150509 4.45022975864519 2.717297282939321 0.7667957795195762 0.8681077855972017 -0.048600791726838885
Ni 7.412267757777077 6.065054402975859 2.4900315251969616 -0.4209479515442621 0.04341333398862846 0.2937719332156811
Ni 4.98509076190334 4.7049508708779335 11.43820096939619 0.4421222716290321 0.13119053880461276 0.3558885000407677
Ni 5.706253696497479 7.8361521083903005 12.37961328331915 -0.6365876592328908 -0.1376362944299565 1.2684339471260542
Ni 1.5321412980943607 6.673071230120576 0.3609330997632978 0.9053831250088924 -0.10513780758161893 -0.5391366787725682
Ni 2.635715838955797 1.4733309941025148 0.38463348956290133 0.2209266671191808 0.6132510413894793 -1.2237841696271634
Ni 0.8445443490232658 -0.27785202014616656 4.751632114633649 -0.300555788906734 1.598689577090066 -0.5993917669088838
Ni 8.446853635855579 2.489575939688018 1.502300447258535 0.4663888574858806 -0.6635284494877928 0.5912195155107366
Ni 6.791912156431796 0.8570277535441295 4.973143393507087 1.078894536068903 -0.6955104017110281 -1.4706604667325704
Ni 0.7067984319698775 7.446192607282364 2.4939338320265465 0.11374123297991379 0.316763509014848 0.1495466727142973
Ni 7.769793909557816 3.6810134001314925 3.7931398638228013 -0.4931234452672475 0.5760294380338596 -0.5313279813614268
Ni 7.528695165618296 3.8244143627085974 12.757702250888492 0.2151260012770037 0.9150748983753595 -0.40434351021836173
Ni 8.183852437785681 8.875998914369703 6.765380628112326 -1.1568064180550337 -0.34645023744600334 0.36020203981445703
Ni 6.713703310729759 0.7200076999107451 0.4043574494937664 -1.29010397590032 -0.45543698646006725 0.7293857143022341
Ni 1.745697005411815 6.399421624718616 9.276672810393336 0.9648799948229448 0.9938193035651143 -1.217816896300135
Ni 9.27505204686648 4.791918890353117 1.4086712975940499 -0.7882724613361134 0.07522559340321883 -0.6933776716387413
Ni 6.3131857962399485 1.985756218924181 6.957560878028994 1.143186513278754 0.24951502027983483 1.587708395488214
Ni 3.227443676276766 4.277405565282125 0.009915312396043 -0.23863514014253742 -0.12537290368157117 0.9200893208708154
Ni 6.203320989182326 5.540245206978534 4.814925054615283 -0.7366141137298733 0.5716763032714864 -0.9857049019880959
Ni 5.260828467554626 2.7365774085747665 9.150708840807358 -0.23380995083975215 0.7836575882719212 1.0210498571462931
P 0.3069091554338685 5.498745344447554 12.180394960440903 -0.5797387685646467 0.5695787973125094 1.8209527036324833
P 3.959752184928997 6.244350803172333 12.759474876251666 0.3952952839731644 0.32754928677644235 -0.19204803641161763
P 2.337216936647353 8.54088142284039 1.2885811268912417 0.06379061209339981 -0.2487118076522491 0.7829399933796065
P 6.3723847942175995 7.686116229869449 5.692951322787918 0.22967433140482382 0.7619929588142941 0.5404911359179337
P 4.601476916098552 1.1090252960577296 12.681946696994538 0.29233468654852235 0.3867962453632177 1.6894140374598323
P 3.959264057597985 6.084335432550805 8.339507204250173 -0.2611101813166019 -0.2781383404434823 -0.16734590567924726
P 4.804239585763645 1.097572382569001 3.97964427760721 -0.8726815210108131 0.1354786246570054 -0.4869617965412258
P 0.33618233226251804 5.554898066303893 3.4865199690295325 -0.4526586523839817 -0.4791327874151103 -0.0462744575865074
Ni 1.7575657310714055 1.1993740492699183 2.6193156645733184 -2.536253914817193 -0.23673972289203743 -0.32506765800516924
Ni 1.962606328281218 6.5521150853749734 4.600782690561113 0.8082095665796726 0.08341507119254667 0.46617725569570684
Ni 5.798265698393114 5.594951625631877 9.34521763888085 0.8299649559788931 -0.4195533851895807 -1.1585437124611142
Ni 8.665417168013409 2.311762000274615 10.214631171479642 -0.3118359898062436 0.4563564129505431 0.48596857939002114
Ni 2.3784636961178105 5.261253319120506 6.977458394344219 0.3320163214088605 -0.4437222691263003 0.49968927141022323
Ni 0.5494822247009425 -0.14395507749175274 9.061829893225216 -0.5152627003684481 0.12526543156942943 0.05266030650819318
Ni 1.3781823221353813 1.01434667263157 11.306720257030282 -0.029006671644995204 1.003750189525581 0.9595040752230121
Ni 4.032736260310208 6.879630445693534 1.7152252048036825 0.5613265846060462 0.6288833486100975 -0.38493116713002096
Ni 5.910788087586242 7.662017202749519 7.913565487330689 -0.6276353351356093 1.2337801044976107 0.9232592339583648
Ni 5.4355057368965305 3.0176212391020463 4.968777365713041 -1.010064818889699 -0.38052712452505427 -1.2835708027674928
Ni 0.9133043151122259 7.246214071283039 6.917209018665392 -0.6898843137735021 0.34000139649686606 0.2896211442721012
Ni 5.015996453472371 4.415825821203911 7.039746153599769 0.4477812696870224 0.9155027299413976 0.4293516022269251
Ni 8.122700930483985 6.885677800961064 9.121007196654823 -0.36094431729712034 0.8262427699322997 0.5772368280783994
Ni 4.704083088956136 0.5231387157978629 10.726158784375949 -0.8254215595825849 -0.8972252717884484 -2.2429684343196277
Ni 8.185949577430026 7.233793942527306 4.6607943301509485 -0.08476695723475079 -0.3656846601955831 -0.31561576856365003
Ni 7.393863549518946 6.0825727505221545 6.930610825720159 -0.23019446557435194 -0.8486843867652675 -0.29564858141310374
Ni 2.4279001474752353 5.136817007292694 2.291037379315177 0.21282769216113026 0.7323375978417065 1.3660615623735568
Ni 2.5050242657750244 5.542785276978797 11.357339061256155 -1.0183121465001561 -0.6156542515143333 -0.237682546421281
Ni 1.2087750200893956 3.3428857900609446 3.7879801771461112 -0.09240544761661505 0.3927748315441558 0.06191139279281596
Ni 3.593439741190054 2.5718344343584447 2.8280063694916935 0.17276064893691537 0.7580288319602235 -0.11993707737798054
Ni 0.9631113816654184 3.2681119144660244 8.061993257477708 -0.2697544872551612 0.5602181820332158 0.47359051744064246
Ni 3.7290035482859207 2.505331605205661 7.180474167069836 -0.2664521623548056 -0.5308263591346599 -0.7894662245338985
Ni 4.42613977092028 6.711334989234851 6.1423240555354495 -1.0178773729555826 0.4106008039819832 -0.47681339525331434
Ni 0.7358564711970813 7.561038120995306 11.275762136970142 -0.3888533850025626 -0.8575238394337683 0.2793830114838608
P 0.14073795680458737 5.4204280260052915 7.939589001650106 1.404271497784375 -0.16928734567633427 0.3126181193879068
P 8.313215219898701 1.7235414482209124 8.094155424954343 0.5755455564189056 -0.9723999573490738 -0.8241293231337226
P 1.770311278047812 3.0844585258705233 10.349419398482903 -0.022647819306502934 -0.152775206953924 0.11750352823582345
P 3.9750106837206096 6.094034703405901 3.899404279844465 0.754122554927282 1.3445938794180845 -1.033580385513136
P 6.803527779030862 3.906148572467938 10.38127784228691 -0.33854640921789436 -0.06304653483852367 2.453455137052407
P 6.418124133012364 7.976687582746468 10.370825589826753 0.14708381299610152 -1.245334127883797 -1.4113482021254982
P 2.529050977734804 8.352500430650094 5.997917912232262 0.4929226421103511 0.8661018109107664 -1.2435932339332905
P 6.720455738808749 4.017541037283726 1.6932630906661803 1.319523823823334 -0.40803741413018113 0.4111001122159049
Ni 5.207505076339149 3.0640927688933286 0.3976664893009037 -0.1465287118235799 -0.5154907572188541 0.293807671549623
Ni 1.1477591037129802 1.0500884405356214 6.988836280854293 1.360483296954831 0.03551156264304852 -0.3224127368808254
Ni 6.790981098744866 0.8784899891370959 9.429083337985608 -0.21342238832233568 -0.8669052806486682 -1.0790470024863674
Ni 2.671918616005804 1.408798753063814 9.101466736442838 0.2553786781494634 -0.0657402796206029 0.373886222169769
Ni 6.236468450716002 1.8966729810146143 2.559806615346525 0.5903471402081123 1.113327263825476 0.45002275742303144
Ni 4.315696442581459 7.0236008901568185 10.440415372378432 -0.7146607493872337 0.7229265889404517 -0.28361401884607285
Ni 7.952489122281332 7.034529518734462 0.1396062245482426 1.0033634956101236 0.48478252950171996 0.4072609409754728
Ni 7.487258578852447 3.8852133336045633 8.45127480395924 0.7582000674307652 -0.12049294988145055 -1.9755675348983073
Ni 3.126509791497647 8.278341233916448 12.294134052203553 -0.0698841265856474 0.13145253421674777 0.811205415983203
Ni 0.29113993082369705 4.797441960709561 10.215504377038451 -0.5808847092436319 -1.0869287192272894 -0.7181507648183632
Ni 8.617888029004936 2.531274668909411 5.747617968103179 0.4988140678941216 -0.17145170031750473 1.0439388459293246
Ni 3.679594215113552 2.7972136703603963 11.395732987658704 -0.6104608802388519 -0.9678665882550945 -0.24776178503415394
Ni 0.9395456788515939 3.2578612405147864 12.615505335727883 0.3351047305261971 0.3483916774430903 -0.7315318141109596
Ni 3.162893356448028 8.167219950951221 8.028654160769635 0.6044951495737202 0.19343154702270557 0.8406471182830876
Ni 5.615344500794128 8.105074110197465 3.5521803265665706 0.2642978350159642 -0.9704418051814384 0.17008130233253935
Ni 3.07843828878805 8.46816852930974 3.5079397194659103 0.450079835913212 -0.8293502052130298 0.7433691730655199
Ni 3.234874058982161 4.0546929508107 9.028105718289344 0.08747844262864289 0.6490865630308498 0.6797613664068873
Ni 7.231398502847344 6.05168513774316 11.33888332844642 0.35046630058393186 -0.6204339322911637 -0.23660319731417315
Ni 0.39260894778792527 0.04926651073107262 0.30500636278242615 0.23894187274967885 -0.156016339599041 0.229246756949102
Ni 4.444345112487999 0.5228991718298666 1.7868931442701674 0.125726430366248 -1.0240351650268622 -1.182584298350086
Ni 5.914828697159614 5.619276637627275 0.45694774577322533 -0.47784723583446737 0.41616801365711553 -0.20436876276049964
Ni 7.9489999158041025 9.079529932611388 11.484611935240848 0.42497558464641644 -1.2562299488606945 -0.5790006048470415
Ni 0.4074398831951526 5.115456916863439 5.633680913589619 -1.1589885133080169 -1.4481255188548479 0.2570604367272605
Ni 7.91284233572919 9.04445707993872 2.2991348693729536 0.6452314509508178 -0.2293125771900309 1.2886338191126967
P 8.637494476800558 1.5080241921843938 3.7645365061650398 0.36334984141481935 0.24977881546418274 -0.5341081152097253
P 1.8839545522232635 3.280468767456626 1.4359250735755154 -0.3704944228794006 -1.245030223490133 0.6452209094278565
P 4.765469620528319 0.8249017436475693 8.24869653795253 0.09300065799845274 0.013110569240029032 0.30092139977626886
P 8.314616326126604 1.7400293047350726 12.644597724656158 1.515805695810641 0.8859389002413517 -0.07565419630020519
P 6.317895321044706 7.801377555753252 1.400971540917097 -0.6088567689765255 -0.6461544769857195 0.5030108795842886
P 1.9748547085315946 3.1187539905715775 6.110016353799012 -1.325349943586808 0.9366567383111934 -0.22247395700164266
P 6.965784919617033 3.9852613576718476 6.08534151721639 0.7767130386332881 0.34707167308008613 -0.0017576061210550376
P 2.390214909642157 8.551647342307696 10.239159569862961 0.6835390882817647 -1.0757467344685407 -1.046314802360669
