# total energy = -340875.9256646475 ev
CRYSTAL
PRIMVEC
9.23880899258532 0.00000000000000 0.00000000000000
0.00000000000000 9.23880899258532 0.00000000000000
0.00000000000000 0.00000000000000 13.52193083377109
PRIMCOORD
 96 1
Ni 7.584498703391704 0.6434119149549675 7.496152591377068 2.328170679319584 0.30570930808321545 0.024637596043022084
Ni 1.8040622528729882 8.559368600769206 5.029117093042593 -0.36903943560042896 -0.3453976278117729 1.1883057742148952
Ni 5.721335788708768 8.538156295076593 11.850714667870953 -0.7204547303611915 0.644100165559852 -0.4307322846245356
Ni 7.027075156369161 7.849338405039971 10.046875994178176 0.7497015430414509 1.903162441663019 -0.06698983575698786
Ni 5.935962562900873 8.550212940951532 7.520019206923987 -2.0011831785838825 -1.9979456454831914 0.23127381468145977
Ni 1.7067036825817221 9.061045173684944 11.849579218232618 0.31225225140805574 -1.12882638790234 -0.7258437625872467
Ni 5.568904677374967 4.2893019006572555 12.736685048568756 -0.036777059619033436 -0.45333228141223864 1.0156294574616702
Ni 0.4559010454700996 1.3868745891728158 8.555393141213662 -0.19759879102651776 -0.3208055402947056 -0.03264658239042765
Ni 9.174008092545384 8.22837902596802 9.194804651828516 0.2735214104967612 0.8226581379048349 -1.449187384460459
Ni 8.56206633302628 1.7286181377659013 1.4667505610049663 0.8323905347012504 0.06896778541896509 -0.18849554317366893
Ni 1.819334004314577 2.6082821073723372 1.4236967867200612 -0.9396163351601495 0.5372214640277265 -0.15740396397518697
Ni 4.249963051511287 6.14839050052728 7.2843316435085015 0.4383507204017418 1.0460116692979533 -0.7356394085214298
Ni 3.968530448720193 8.486382008882604 3.9936757154464915 -0.9604322434642362 -0.01417706283133042 -0.7103412960762734
Ni 6.577163630838314 0.1753793892562229 3.6853073647256016 -0.05056897119680324 -1.1220150214074613 -0.4152434449603171
Ni 9.427003640928001 6.779761475582779 11.019467601231725 -0.8416750453269698 0.44685233011484976 0.37313468871572514
Ni 9.082654748168837 7.508527976165942 0.6955871654638778 -0.1467678244175795 1.9960453431366847 -0.6937054872918053
Ni 0.4510857781674038 3.4683043688330875 13.28183576158343 -0.8085561512858139 -0.4332781909748409 -0.9853976551603222
Ni 0.6588998545294862 8.471821645741683 3.0609865248939854 -0.7372754014629561 -0.5515764471978178 -1.3815300903228012
Ni 3.0031857635243475 4.338868111476447 13.762215955643748 1.2889752616125159 0.49877113047132815 -2.209036557458873
Ni 0.7692611247474869 6.173011926777634 5.198479245932266 -1.04014235500137 -0.7469260371788427 -0.42632541380609157
Ni 1.8981964787885044 9.463496936871302 0.9644328147377181 -0.718622305138143 -0.07987106259503018 -1.231441429062105
Ni 4.795681027404674 3.452829363591308 5.92226787617258 0.09469398654047563 -0.4119997412120388 -0.071862847578573
Ni 7.850447062131918 5.677756326186097 9.279668656693524 1.1252049890996687 -0.7359515404452099 0.7619173683813524
Ni -0.010736420054610023 6.235115201544942 2.8780479420324947 0.7134569588871196 -1.266196058934471 0.9710951224947211
P 0.04304545935671545 4.703052727372388 6.939793355162797 0.027262692370694983 -0.0390339739740102 0.30092654198259144
P 7.682587139601836 7.882579640180223 2.6522726968999386 0.2759678151547247 1.1757832162678523 0.32928529563094255
P 5.948194746148704 6.491870945231086 8.926313772824098 -2.261851644377376 -0.39023201051764406 -1.9526273811623662
P 0.4702960339281392 1.116149766128123 3.821298015266719 -1.4276309984459221 1.8602643567479122 1.271596661124752
P 0.5305469274709834 1.149372523650176 12.992223117215577 0.03782247016441228 2.2440567822878 1.3098377068838216
P 3.9365456916174826 8.43342515512387 6.224766811472515 -1.6670582954724515 0.3980880162269531 1.2127099140908726
P 3.4504734672709176 3.3527915386611666 4.03430892174731 -0.38769561724903556 0.3878974488471965 0.35686371946984347
P 8.81911771860361 4.360098894787258 11.066213203632817 1.0978685060682447 0.3908593596889979 -0.8276815592613552
Ni 2.722852579016102 1.290024153382026 9.61023878956159 -0.8606379595827178 0.3607679396202561 -0.8505412374683481
Ni 3.7262703965112745 6.774680130578015 11.875419243403202 -1.44757813099181 -0.4701493529695774 0.016510081839881244
Ni 2.3302493863298848 7.248640276195045 1.8598203135507114 1.3455205049974117 0.2305719035184287 1.6459562233865137
Ni 5.381449240744695 6.747573464679878 13.697175663463687 0.028660601159486127 -0.7273010638590636 -0.8812646346941339
Ni 2.5838177408766763 2.2692270522272264 12.490653714485394 -1.3555557777462266 -0.4769992860118753 -0.12189060155992555
Ni 0.6470205937892594 2.1458612343206713 10.828551306712754 -1.1787284149391055 0.2778894576574698 0.8974600135070737
Ni 4.697167605975961 1.5529421827375822 4.089072886565919 0.21297707325480092 0.030421035494018575 -0.2096850327670905
Ni 7.944165541637955 5.251754838604935 12.908332882829662 0.4182518927693378 -0.19662742825218396 -0.6147191412945736
Ni 4.596824900345534 1.6726679098589068 13.404330359791896 0.9394664398458465 -0.3484526125880128 0.25720904648998283
Ni 4.097079238531607 2.9839505629790426 1.8139265293485989 0.039396756630067635 -0.5749362049696808 1.5713183841659648
Ni 1.042922965204933 5.58364057788878 0.7946918706749627 -0.36671567256325877 -1.1187502346132605 -0.8797841934938654
Ni 8.113402046723873 6.593239158671565 7.057784957816132 -0.03440367429085042 0.30039560917978586 0.17429148375914502
Ni 5.312989665316883 7.442572118004113 2.4047400563378956 0.4035634375192276 0.5113247987666226 0.08942116817731051
Ni 5.583280264333897 0.813584311402673 9.599935669653748 0.7026408421082222 0.29005411804446174 -0.6100063091999365
Ni 6.783068969240425 8.979161608635456 0.42052379766602693 0.23983481687759345 0.13174409731523762 1.102595993450901
Ni 7.812272302932497 2.2115861222550106 4.044369060975831 0.5930781659860302 -0.7128522354235852 -0.010185168063117943
Ni 8.465539255553974 3.4147377536737817 8.911168593067174 0.07080740973086515 0.0033244363875426616 -0.47853680570232426
Ni 6.162211758940237 1.7102606240850564 1.7379197707673482 0.08668782840654748 -0.39435066067170793 0.8130982621305416
Ni 1.1317448758881967 3.2872514269088184 4.307870983066481 -0.7663594633131059 -0.6731955402639116 -1.5168477639219102
Ni 1.5904979417273335 5.183322979604423 11.79581581643949 0.4537259173062315 -0.19898281585823796 1.3151493489047221
Ni 2.37523314783569 1.095639609927078 3.0056682315294014 1.9530037906651783 -0.2376951448267713 1.5090598924463754
Ni 7.112016767230606 3.8601499791731397 1.4487533608790042 0.8209676375762892 -0.6655704196184861 -0.7078933487564131
Ni 1.2711030723461072 4.952629916388165 9.070863256115057 -1.28393358542355 1.1302451226267374 -0.4856980993374538
Ni 3.7806592656804416 8.688194554853606 -0.31418325716815904 0.08041742201680344 0.32754620145264884 1.1338495521485439
P 1.8566957483132371 7.260521384697091 9.395375501856535 0.12902772682533908 -0.29371794004929414 -0.24193257994688658
P 2.1347284693556894 2.243478491266725 7.537597888997738 0.13607897724516566 -0.41306803457555313 -0.5186681265055713
P 2.4117449213971898 6.622156631153218 3.997069130028764 0.7907276077448252 0.04321664459679008 -0.7226969894281489
P 6.644098802764696 2.4619116548078535 13.103873201302967 0.6126316626379256 -1.1082989573729494 0.7945927471271864
P 6.191027604521795 5.196783924462495 5.3112389109925155 0.7212312035158998 0.5144368620330431 -0.34649240353784844
P 7.774023633260278 0.9735949417217615 9.643205632071584 0.6973492546919796 -0.09959759448968009 1.4620873803515788
P 0.14796045161051977 4.014170165672067 2.063690342308188 -0.4208949868191396 -0.5029154916570048 0.5707090542622106
P 5.622203367070385 2.7652494739740274 8.053688851870625 0.16371242269171804 -0.8044909800775049 -1.0494266085167732
Ni 0.3363517796025767 1.4727308421351175 6.12650283788949 0.2661066060899288 -0.21167378106234513 -0.8822645367135579
Ni 2.4956425468303824 3.633494275533395 10.390657624058626 0.11206950170444571 -2.072535405074624 -1.225143254758219
Ni 2.7805858970793134 1.5016760310440695 5.4836295455050275 -0.3387613534421779 0.94268057590777 0.08839324113342842
Ni 1.6899260052569032 6.566973224401488 7.188475303576826 0.4563011342325754 0.24708378513052287 1.5776785220560376
Ni 6.313718989364081 4.7778870810789025 7.3795264847086495 0.39594345908012457 0.44207881998560633 1.0646639942918181
Ni 2.4408379312517345 4.3925548311540465 5.873818637373527 -0.05712862669219193 0.6332295413939353 0.3760824584901394
Ni 8.148546476538638 4.5099616171913794 4.572346675636225 0.07916760877010236 0.6183845059613027 0.14423451647276447
Ni 8.441980292350072 9.268835229143367 11.790974680471315 -1.175780130944059 -0.747974533048015 -0.8155798909018147
Ni 4.5234872337131495 5.624337531972385 4.071534855252207 -1.489512823552383 -0.22041836002419457 -0.528267083047916
Ni 3.3157161977445933 3.947022501136394 8.029768651230928 0.5002741973794158 -0.255725777076237 0.1742320912761193
Ni 2.113978104118056 9.025679012451791 7.403919712374242 -0.4636735154372466 -0.2688867399382272 0.6689236523614351
Ni 7.492304627387097 2.771153072988653 6.553944655809275 -0.28867523541906415 0.674725860865509 -0.5093311653753615
Ni 7.2128306521251115 2.879912333708788 10.945192195475734 -0.3669013062115036 -0.8100147381092114 0.44547910391640694
Ni 7.963123577910272 7.469235321065471 4.854697616051816 0.06966738258915098 0.2793367316269576 -0.9430276748345436
Ni 5.558243091674063 7.484368490370566 5.352034720333486 1.6634608079291804 -1.3876814546361778 -0.2831080257439318
Ni 2.647001956308634 4.8555115551334875 2.4822610557305658 0.05788864478666804 0.03029119478437364 1.6410202195374772
Ni 3.948676247965217 8.334320449912786 9.113470795920453 -0.47497891314773677 -0.09507759513213948 0.5146443500581589
Ni 4.156808139360325 1.1695593215327358 7.478033438970991 0.7517923641322085 0.17364716530692675 -0.09824930799190176
Ni 5.905456015254094 3.5812580488844272 3.6040409521239662 0.15261862677140167 1.0295018445683883 -0.209442063518349
Ni 5.8002998900827905 6.07259531067441 11.061993839517044 0.6146258102498189 -0.46180149522551434 0.47333109313166866
Ni 5.216481065462778 4.065685765211269 9.6018148434246 0.7686240909775666 1.1734034031817662 0.5167254009569037
Ni 7.342284845228283 6.204165191061384 1.566718170985951 -1.6996192601276086 -1.2269957345859257 -1.0310537624365403
Ni 4.607024545591459 2.3038818251597126 11.065253291367373 0.6178515162759681 1.8389118592140652 0.7408991142584724
Ni 3.5955504865614616 5.976576367702582 9.54365746402372 -0.13619339133584285 -0.8945343552198466 0.49700092594478273
P 3.950912039767313 4.5501134815381095 11.422962425965423 0.07850812080923253 1.472864930583057 0.9473039336123943
P 0.026338920861963443 8.43239040850472 6.432693601305611 0.04470737020970365 0.1946564205687422 0.7510750263502097
P 5.118595883052836 4.836479608388373 1.4429116618853461 0.17678545382559233 1.6145417136309743 0.1417235771254527
P 6.172383687758864 0.8827441885602323 5.6933819240162 0.5189365496756095 0.38616683930933493 0.15899059173601648
P 3.7886508355515693 0.4153685421884671 11.141800520280947 0.7624339030064546 -2.0438395798018285 1.3892565124327816
P 2.015307622934651 7.299047218642297 13.343644318340461 0.04044370983734325 -0.04335599838813179 -2.320123640645391
P 7.367848630006793 7.274989359747017 12.729870502976912 0.018755683340948345 0.6957675120271565 -0.931559269183628
P 4.331948243460869 0.4282058674323192 1.9390856001013805 0.13661659491619052 -0.5296277108408686 -0.2966286859381859
