# total energy = -340854.1469398275 ev
CRYSTAL
PRIMVEC
9.45018731890467 0.00000000000000 0.00000000000000
0.00000000000000 9.45018731890467 0.00000000000000
0.00000000000000 0.00000000000000 13.83130438078441
PRIMCOORD
 96 1
Ni 8.876447573648349 3.398136167312654 11.956194643966194 -0.3140224559346011 -0.1425995519725028 0.4462002983531477
Ni 9.473718314411272 6.869445135260213 3.445073357832278 -0.6327898827533553 -0.11850754402030558 -2.585052681487451
Ni 7.173882920673293 4.435766738113717 6.1397158435352415 0.04131428536775465 0.0439568651969243 -0.8226707363103252
Ni 7.662542658246628 1.0647526084895789 11.717134199644727 0.4079196576053942 0.14901573991149178 0.06652857984985318
Ni 7.611171439823362 0.8223260074347815 7.825918442136117 1.0671710769843878 -1.1048115130449814 -4.109958796937463
Ni 2.432960182908055 4.059101170800522 2.094903356004767 -0.7745232300708209 1.1928504561627842 0.056839120476231145
Ni 1.6057096828462751 1.8523028715027678 1.7375851572489587 0.06950643153125449 -0.16117397254058047 -0.9920496132592012
Ni 2.709085207026782 5.119043633930012 7.5831922701423915 -2.89455590939546 -4.806450331614839 0.4558283083612149
Ni 2.869152480325766 6.936569815992454 6.5536727951420435 0.8308067351538981 1.8631820446153395 -1.8220045419357653
Ni 5.5488098039511415 7.1704903034153915 12.369376680210468 -2.1973400949575512 1.7356532709330301 2.8574664607423306
Ni 6.060858755210566 7.360835976977095 8.776612959448771 -0.20005702275902318 -1.0914752009473911 -1.6463195202632035
Ni 6.902397938542393 0.6329489780762396 3.8049364920408797 0.3695868234634667 -1.3823808683588708 0.8272637549976463
Ni 8.504932358439769 2.3465476697987206 3.5718655764605183 1.4177492205558357 1.0558816201134977 0.7591043244125895
Ni 2.314020124947197 4.769462303555942 4.56233876737675 0.6543280139354474 -0.5960421337103605 -0.20558720854863302
Ni 6.79254896081023 2.094983682597224 1.8600198944910753 1.4036724307477955 -0.4961861433529713 -0.8272048767352527
Ni 6.956642013919424 8.378564453223449 0.1665179711826704 0.5342898922032282 0.14837810632749285 0.9709858506103665
Ni 9.298096032737618 1.282428223861452 9.641456304780558 0.006355767014698731 3.222279774076554 -1.252647630826075
Ni 6.463294983421524 6.090390590672799 10.770989947540093 1.7115903164465553 -1.3643265819603212 -1.8522903374035
Ni 3.8444590655673294 8.492609314138088 13.335050689488302 -0.9135378929055429 -1.8256246551868558 0.698571557134855
Ni 9.306582300976046 4.746290444178855 2.393036921438054 2.8300299617979325 -1.8346870224994403 -1.4374071039960794
Ni 1.3299626662214643 5.1677782500832095 9.714333314551473 1.1466256208672898 2.7359664097526046 -2.634123470872173
Ni 5.312526769691224 0.781482297717093 6.1872814715135025 0.7016052017548562 1.7208506587025587 -0.84572221881315
Ni 0.9759869987306135 1.178740768280129 7.41923624474974 0.02637437622847071 -0.9643732303898552 1.2957452333464974
Ni 0.3712411597754914 0.10016348071928548 13.535107375568725 -0.26291252463266335 0.15161486809723568 -1.2612744532631375
P 9.132235794594363 8.389451069048247 7.804492977380924 -0.04335728393971243 2.1076204217032153 -0.3779999872278264
P 0.7522831088495053 3.897748672022222 7.524519836974126 -0.47069905482546026 1.1523360409885057 1.2084426541740865
P 8.485918581495763 2.5389912849516607 0.5366118782141249 0.3596047725500903 0.5228829359178672 -1.0929453577350143
P 9.29120684616099 8.887901200714023 3.6915748796714962 -0.6005243378514303 1.6164780114217385 -0.8851973940896368
P 7.414333487553642 7.8720911124992945 11.946457170922905 2.3063271010819313 1.3112011628902513 -1.7921568624467137
P 7.3111752424638015 2.1022792272298143 9.285383640717203 -0.6511287902718592 1.9171459004263047 2.5568643919786935
P 2.4500933725698246 1.145504459377512 9.607390269428793 -0.06744723500938062 0.4947013312773287 -1.6429369769442155
P 2.9511234053815802 9.160321751392367 4.675976325216693 0.12889094413715868 -0.6619477352642341 0.23735961586422347
Ni 7.092800313228183 7.7060324204217325 2.833024414094687 1.2949577044481955 -0.19941630385123077 0.737969085095871
Ni 4.021026365975773 5.888884245853209 11.110064559620751 -0.037109246147471575 -1.1020316363069989 2.0148627329535045
Ni 1.857840681288646 4.583038457743624 11.703759349491222 0.533725535059326 0.5067772886052562 3.528579664555916
Ni 0.9564062105457338 1.484227524488828 11.861395089585587 -1.5708512147215592 1.9132337098560923 -0.10451380084437485
Ni 4.428508994230517 5.238739706878703 2.941752599607388 0.05527820374701448 0.36085510001742366 -0.17821987227927372
Ni 3.6019389076577877 2.736528551085127 3.7021562544449567 1.004086489819077 -0.039610158192454364 0.794272130562974
Ni 5.280339431584225 1.431788434895248 9.855799784093556 -1.100820389607717 0.3986125212718554 0.5594496792983076
Ni 5.040569278192927 8.519438396018819 4.399544170009158 -0.5112954881905839 0.14865167170385366 -1.487618691853464
Ni 9.04159904774051 0.27811523357419815 5.628469213181655 -1.2930237206502764 1.0309617169433665 0.30490378146278463
Ni 7.843126288277936 6.785820427418513 6.920548913381533 -0.9503730594560212 -1.2879115962346914 -0.06893384685723611
Ni 6.515110360650142 3.6128066231078897 10.686038433394746 -0.016271740576830042 -0.10799353186285918 -0.6023541919713175
Ni 1.0192499564093682 6.034851839629104 0.6304153828482636 -1.2153509512581457 -1.4989752545168638 2.132293498969863
Ni 4.7070060153735716 8.381928719919307 10.331596871667644 -1.0326912980399634 0.4377295418779752 0.5386900781534529
Ni 4.22354388084159 3.821088752255936 0.534041427255492 1.3408387832510262 -0.1823169251667828 -0.04053061312419471
Ni 1.9376947643785276 2.97161141155186 6.049674458484308 1.478984927437866 -0.5149536537684615 -0.7605935073636062
Ni 8.814331492210504 4.352444436267151 9.401621890115292 -1.5882007617436003 -1.545185948744971 -0.4916463465010888
Ni 2.9590899133158723 2.723317189172742 12.69146647057072 0.4986214922673413 -0.8858630526980937 0.42124002886338424
Ni 8.985370433020417 0.8170943837189758 1.7045425771869742 -0.9750870172629337 -1.2293058707763411 1.282993590107784
Ni 2.551484432625604 0.12470372722435105 11.395598190263064 1.6272648176245974 -2.8095518964492388 0.7403519835057507
Ni 6.914182322165242 9.235346788747464 9.690378034643242 1.2346334536368415 -0.8822403683438419 2.062527128909003
Ni 5.37984990435777 7.285489633252169 6.345014548537551 -3.7405977163315582 -2.6352465287330227 0.9402511405306709
Ni 3.236651365911483 3.2493713180817765 9.548966376187778 -0.5454759907270348 -0.6731567166061762 0.35719642021891385
Ni 1.3449412131679095 8.417253520225813 1.4311940181110643 0.07290003059383575 -0.49160623729177266 1.1734836216003983
Ni 0.12171652300367514 8.919597129078928 10.576176225400296 0.30281167482044624 -1.6900642694493218 1.1421606431174007
P 1.469664785785691 2.384613024436122 3.772128276625123 -1.0816024219183695 1.3486289687194064 0.9061763103341491
P 2.887410242281937 6.789959609476901 1.8033943719023688 0.44830706028350537 -0.3099331163565759 -0.10886436450358669
P 0.6196487844027841 5.877118762605055 5.059477213038634 0.7902799786844453 -1.046343084495443 2.6658138599969186
P 7.328242280814137 1.8233852982181482 5.537183238457001 -1.2361612031352776 0.49925398364501755 0.548707353180139
P 4.1388985527663165 8.060036438474627 7.945296043771184 6.882216584921934 -1.2172157723810264 -1.3382463399335016
P 0.9510290539447702 3.2099923874030147 10.424225718014435 0.3318566559025446 -1.6340293900419407 -0.04981203842612066
P 2.811468536754093 0.6683522149377334 0.22099924626213494 -2.308197835742083 0.7069829211270018 -0.8990001043006841
P 5.506094957138566 5.1126931080322136 12.800789072867603 -0.7233706184564058 0.22196847812013387 0.18550946396215148
Ni 0.8737662122256871 3.582925130713783 0.3403881881220186 -0.10676197344860322 0.5174136852731799 -1.2716601673728356
Ni 4.67383585778239 5.224810130727876 6.7136323363052615 2.0142389833265764 -2.0802800820170497 -0.02644482445508994
Ni 5.641506691646838 2.9336594591626333 7.846651208158708 -0.16098396801696147 -0.2060713472739032 -0.08115378596219572
Ni 8.252432802690828 5.38242980550375 13.043224179091014 -0.26147373530360773 0.9190827339831721 0.7745170594232338
Ni 3.0773495577876804 0.2644965685871179 2.447836667831143 1.2596675137873337 -1.1614128064787934 1.8799309819389043
Ni 9.144001277842518 2.644304172756825 6.143160436823557 -1.0189063284407291 0.9146810053710505 -0.1090775089556573
Ni 0.6151845158996291 6.546182576650086 7.44173997588133 1.5856715675638433 -1.8056728946552774 0.019093012075709053
Ni 8.43897950093867 6.89909982315797 9.244871632575427 -0.19228894877783015 -0.1070478801201382 0.4453184099688266
Ni 3.167012935344698 6.885945162369673 3.9749236269989696 -0.6029638005308583 1.4864125873605045 0.15922559056495802
Ni 1.4767051753598879 7.501435864339374 13.031550362660136 1.3197230843183336 1.8352354388037428 -1.3974997262781803
Ni 5.253727704012496 7.1596225879652895 1.5675989673096036 -2.3233452329064828 1.1013590357200065 -0.4456179434871165
Ni 5.425069050817542 0.32878902817118777 12.433332713124953 0.6914498584884091 0.3546831668787569 -0.7786524217478461
Ni 6.843750075861232 4.920003788008227 8.433430350927974 -1.1677176656508985 1.0735067893944286 0.24192769485088012
Ni 1.0360996404507006 7.979974451263092 5.521097129553381 0.7741079969102733 0.57748185420967 -0.9934603775637988
Ni 4.562011790894513 1.4642025774985963 1.042090114210544 1.0523273271033362 0.4283691837089978 -0.029519092505039483
Ni 6.676415608491703 3.3809651769014923 13.1234042936444 0.31448654005521326 -1.388689327075402 0.751525740734383
Ni 9.41280240676661 6.8374751514622165 11.36626197367893 -1.2143207102214182 -2.1985246021839555 0.5841063015047232
Ni 3.306431549288487 6.515630120954277 9.138536234499218 -0.25298806643009975 1.1520881866437578 0.298456483175544
Ni 2.5065771423483127 8.719933570792183 8.339668427118166 -7.260017825875394 2.5645129096628865 1.8520375979627457
Ni 7.468114503750626 5.12924983626576 3.22846183355578 -3.3506750095242164 0.6673653067353797 2.075856241917741
Ni 6.7751889666521095 8.625195442629334 6.082772794651645 5.060082973607472 3.662803076649582 -1.1250995738700558
Ni 3.37322547346355 1.1432080638519688 7.141462162938802 -0.7677699705073874 0.5187380605115582 0.760353366328342
Ni 6.36341595334141 5.188228455504098 1.096450426891955 0.4089100465431216 -0.24984000771942133 -0.7901858763087424
Ni 3.236320609354306 5.7623084365152355 13.707666851522916 0.7043552536961676 0.8346441066221173 -0.7081592008232901
P 6.034710086818884 0.020405789540352777 1.9521913517702292 -1.0527528446765289 -0.8027912237775787 -0.7203390307189336
P 4.707119417621747 4.73787977743921 9.2850793446846 1.6438366059403495 0.6576313672770674 -0.7942032249982516
P 5.5099411833891665 3.5463623558647 2.3608656486495465 -1.4032466560642864 0.6297631801118897 0.6790422288526757
P 8.31746899201918 6.502380958292501 1.2876277169402748 -0.1307580792528845 -0.6790753960834562 -0.10144467500074786
P 2.062881396176357 7.098952385191676 11.01634327161654 0.7487391791281814 0.08892057439180816 -0.7611792046637471
P 5.101778141645371 2.363151648969007 11.881629830734942 -0.716056858403812 -0.45432601278407564 0.32008588851986164
P 6.893921120491313 6.647705939328737 4.916558249701177 0.12030731623320569 -0.895595192384193 -0.9204508179752922
P 4.0796458780948885 3.079523100877701 6.283451303059558 0.3239872804567969 -0.13747765736490516 -1.0460777466491984
