# total energy = -381163.7222806328 ev
CRYSTAL
PRIMVEC
9.39698760649912 0.00000000000000 0.00000000000000
0.00000000000000 9.39698760649912 0.00000000000000
0.00000000000000 0.00000000000000 13.75344122418007
PRIMCOORD
 96 1
Ni 7.232212944817812 2.0872682772859688 8.826518072982632 0.7828577180784453 0.71590490620698 -0.06930254305056452
Ni 0.14865940374767042 5.042301372243265 10.927383791290534 -0.16059701699118795 -1.1696423934774371 0.07640315865108778
Ni 3.476058468075541 7.402157465123037 7.0038294984785185 0.18192277505215768 -0.04543833483845723 -1.3930630306630654
Ni 2.981588981846019 0.5016525435323318 4.9294125414009775 1.0189325536929743 -0.24392158535245737 -0.5111144825280295
Ni 5.7599305194187895 1.483333282787961 0.8732084925738879 0.09616542887967955 -0.7842972787384493 -1.1238703294486452
Ni 9.11183598764514 0.8516461648828528 0.7739885198591091 0.9013763178423444 -0.41976961496544485 0.43123159285845736
Ni 1.164502891334494 0.46363139210258514 6.302307727706376 -0.8758452634507754 -0.4591967106128156 0.5078149858411511
Ni 8.669989631839131 6.952878092144708 9.243935080188281 -1.8587222090717728 -0.4780647511619121 -0.2743585616860759
Ni 0.8752034730361936 8.652351486159677 8.574114986701275 1.7113059524369172 0.2190837003731711 -0.7615283604730497
Ni 5.2796504844284655 6.217770548078515 10.021500093518673 0.8005967872294212 -0.19497318047821258 -1.0119345251085863
Ni 7.190076852528699 8.577354128318595 4.852021770824382 0.8068921333198297 -0.2563469556000037 0.5250156659901539
Ni 1.1666360075141613 6.236028894937959 12.800588691603707 0.27857208554679125 -0.4268704876762841 -0.12973298042247983
Ni 8.803642986127281 3.178437077580265 1.300845663466789 1.0722088965186116 -0.0720615938529404 -0.10661696323030671
Ni 9.04005239955492 4.014609223022332 8.657928598285814 -0.6272141884377908 2.414567458848274 -0.1410617751717377
Ni 8.56485613484301 2.859587892151646 10.622978715464413 -0.3520668123018324 -0.35625565357219935 -0.23401692464423568
Ni 7.474194771877798 4.070474314159438 6.671257892093211 -0.9753122458998622 0.06669981532039482 1.5603102059809193
Ni 8.171159943374517 9.054674112222596 7.495625541742774 -0.8232574620517306 -0.6775558741151363 -0.020361080154855257
Ni 5.994986766635537 2.813984311447126 2.7513618465443863 0.8931472450643329 -0.368351665504785 0.28627099685294566
Ni 1.1252046892932193 2.2268981156722183 4.323669566493419 2.0125507969908756 -0.9909931469702288 0.7785467494079171
Ni 1.3551113873185232 6.893009884300385 9.921814969918902 0.37322056356131206 -0.7484748697232013 1.8885647463545023
Ni 6.315386455014135 8.851276316148137 2.314676316314913 0.6477454756219232 0.20870672801422122 0.568136408439028
Ni 1.8386615739851662 3.935505381610699 12.707120614983971 -0.714095363802067 -1.513668337752664 -2.250313818941105
Ni 7.3855060031390245 8.683868982488333 0.3031411809971996 -0.40517269098787634 -0.7288959191500092 -0.18573777792287366
Ni 8.252321725065213 2.4977005036266533 4.086230243227492 -1.000374588185129 1.0564930284452516 0.2801666837274207
P 3.048504930372063 7.889240919118116 4.035067404673231 1.3386078370379786 0.7213651579906029 -0.9908265394853775
Ni 3.4107306104497783 0.6312802283430837 7.307739353059404 0.6680119391804431 0.10763691985438881 0.3839204664773194
P 5.203694633854667 3.570291459483934 7.3046176737867805 0.13324793555427375 0.3017043006888804 -0.44675437108440474
Ni 6.905188380198398 5.031231720879175 11.929528350389608 0.6774640857322783 0.6401766621357298 1.1736456010995595
P 3.2413781003618185 3.3403565704959033 0.5187315684510349 0.02233620160335508 -0.9332577399319735 0.15452972775118548
P 9.02934923070628 0.6846522986763754 9.376917489563532 -0.42176401968765426 0.6114774944288243 0.8998454830201148
P 5.040450165690866 7.026851178340048 12.344758678586407 0.05023884155089413 -0.7501828535532434 0.6102449075733039
Ni 0.44085215452050636 1.8081495553271034 12.136421825842199 1.8875126509409041 -0.37201163085487543 0.8387445019437361
Ni 4.793337583414588 8.818527814447076 0.19665921628397595 1.253207359984287 -0.6087415835548999 -1.235483974562595
Ni 1.2140720007959291 5.82051289831886 7.626902397873049 0.1202101285337091 -0.22959642697903682 -1.6237051252977972
Ni 6.046003012183619 3.298013744480126 5.0141329622865625 -0.3249830687111629 0.7315269290149531 0.8119291815231049
Ni 5.941358158541431 6.435611514056713 1.39175212127341 1.4453114464448207 0.2258639565197981 -0.7063344889097255
Ni 6.108464788598815 1.381103454952709 7.1253005980736255 -1.8718350923046474 0.2588476105346703 -0.4738627972654227
Ni 7.267836924717018 0.4735386361035693 10.53194539832552 -1.0263951806186065 0.10386228330330499 0.254492161779452
Ni 6.843694493503492 7.475594923026566 10.996399026840972 -0.40595070680448153 0.9095040891558015 0.2457894917991315
Ni 7.599606968062123 1.7940446769760865 12.753043693266061 0.5336579150461841 -0.26386434702297135 0.8750541350080479
Ni 8.149161595459974 6.570354918903637 6.587485627254006 -0.6537744554248224 -0.5674851480082743 0.1315090984862961
Ni 1.8502198687031879 0.01960117638400152 2.8357806241287937 -0.5953201679426716 -0.07543539542117976 0.5878485421559747
Ni 5.104453048068465 3.8120007739042263 12.867939720654503 -2.4762816480286194 -0.7703626709352281 -0.14770730551271335
Ni 5.058699115562734 1.9129541577580775 10.288137736579591 0.4772114020226813 -0.49853073232574785 -0.45706552320242577
Ni 8.246514386743476 1.6304149323216837 6.315484183684921 0.30906048394363544 0.32916445378236214 -0.6392418090262861
Ni 3.4851923399990508 5.425106455111603 5.527398303064856 0.8428438688240903 0.8087883219012781 0.6720598839975717
Ni 5.854304465640817 6.067832214321802 6.031062741637129 -0.20493363412503413 -0.17510163836526615 0.10919243726696677
Ni 1.5975724607448654 0.07880501720672782 10.772107968590865 0.24093267792746248 -0.3120974709977464 -0.18380225146305762
Ni 6.752393362218695 3.5396008980619347 0.44424446703530795 0.8573438622124783 1.2140754269798317 0.44137048106467214
Ni 8.590848202477197 8.982909318107529 12.176003816908258 1.320579261671042 0.71949185222729 -0.19035856452433667
Ni 1.3275782137219345 6.987618755211803 4.40726234886993 -2.283456110021029 -0.9970694350712959 0.6229932083779077
Ni 0.46487743265511333 2.145990052646065 8.08057298314547 1.131076360278781 -1.9433557260524532 -0.49782882116271693
Ni 4.255999039865053 4.053202650995434 10.76872411336488 -0.4952075814897859 0.24200559927666707 -0.6537790834105127
Ni 7.453718735950505 4.794935071302445 2.39810465140885 -0.5689956711155297 -0.41760268922111304 0.0201600198876427
Ni 8.689460190095831 6.807497297362174 12.10108915255784 -1.6895101967180646 -0.036513521545001634 -0.39258765523401423
Ni 7.994365019126661 4.992130855576989 4.549542137752506 -0.5451432899779644 0.6486705585393538 1.9661801801461363
P 3.3489078291897245 0.6771760553612063 9.49456401521536 0.18942216875299633 0.06450743565476633 0.39475175276486857
Ni 3.7294388410647623 3.0369372386664657 3.1891618595003286 -1.0313939193847785 -0.48137530359238384 0.8773251904304117
P 6.861078920518402 6.614736891223326 3.563503075659301 1.1280560853952184 1.3705473660590526 -0.06703508717262649
Ni 1.5803665764938912 4.919153850064665 0.9464880810861467 -0.4460943689029027 -1.1108304655455514 1.421716689844016
P 7.6376177828055365 1.35625781980275 2.4495155704351084 0.044212432851156114 -1.3410989788909482 -1.1566626933883177
P 5.771911678577715 1.141968915128139 12.271796708254206 -2.841641320784616 -0.6984568859338616 0.05534428109825953
P 0.5310923659080153 7.566952436236817 6.7487445119430785 0.36565869205365414 2.578630580011191 -1.453570344019503
Ni 1.454775837545629 7.7556345497678425 1.084926381447807 -0.20223860379137432 0.2954495780284202 -0.01333194122221575
Ni 9.13932217630385 0.305467875120925 4.339444289536625 0.32103642535858906 -0.03958650404337053 -0.25438160434351675
Ni 5.5909726828090065 8.828817515842388 8.860256077475409 -0.2657996163724713 0.5027532550475277 1.4865162028179044
Ni 2.9237035383801535 5.351856936959587 2.9984565745442704 -0.7779633661006214 0.5635966115871455 0.641570714269779
Ni 2.7836978204908784 7.799650039572082 12.85849104964721 0.5334118604736491 2.0353238290213334 -0.43866799453184446
Ni 2.921683186051393 0.6168614906070408 0.8493448426255816 -1.0616583746962747 0.42619300199328536 -1.1008694976780975
Ni 1.598389998663945 2.4149882189859797 2.0303375677577864 0.8886467860908179 -0.037320590827329275 -0.9856293115551542
Ni 0.27139251877418435 3.583766739667384 6.13099500601014 0.22369471678262123 0.6646342809574618 -0.3988462345492163
Ni 0.42029060600627566 4.2118144042844525 3.360570430469836 0.7110730320359755 1.4447555739413507 -1.1059032034472631
Ni 4.153073834949204 7.54205981614898 1.97995937766609 -2.4626967102553334 0.4059771891670427 0.9733042143308981
Ni 5.2679324409216575 5.330610348051093 3.7865838019096687 -0.6075470490261665 -1.2068691390393795 0.09378484446264494
Ni 4.746803700940079 4.448815827929355 1.668608988322822 -0.3084881563799332 0.09191385269217718 -1.63673907566362
Ni 1.9008978226985473 2.517189855858505 10.273160817781557 0.06156377964541009 1.0546150946962483 -1.0269963045377153
Ni 3.254308355265882 5.645728929412187 13.387118585714138 3.709988733196449 -0.11631387880309646 0.36423430090230174
Ni 5.167168543148203 7.812852807115839 4.171735312575643 -1.3050449134808686 0.38637484155508295 1.1817769719574422
Ni 6.797940560997761 4.267923817098524 9.859387962357735 -0.7919547952837069 -0.18854002325835917 -1.4141375919451775
Ni 5.450976361907306 1.0390531071998659 4.956685418441721 -0.23615788224663845 -1.0180527221911821 -0.9170042541875886
Ni 2.4653184844410405 3.6167313720826857 7.252285849978111 -1.0152149956320708 0.06302596601323339 0.5443364778059528
Ni 4.385592895520532 0.6700888473316678 2.725643231248651 -0.651608043901123 -0.056410003358612536 0.44655279659655994
Ni 4.563816161879885 8.89062150312729 11.363670889246801 -0.10091245664636168 0.8779270856804686 -0.8839131280605744
Ni 3.7408843719318767 5.194899053483881 8.442027170543225 0.42092712560865575 0.29389483194679067 -0.050825053071667306
Ni 3.774610160340804 2.687322315915242 5.6435046624530365 0.3198570603385072 0.12058730936746975 -0.20185782341318786
Ni 3.3363158658383836 6.257416438660089 11.027357402408878 -1.077536736489428 -0.0895425242465232 0.5310338471597758
Ni 8.09286424289439 5.767081626963843 0.44331510496407833 1.1678439068161177 0.16498640430813521 -0.7839684346441208
Ni 8.547274371089012 7.885726445764831 2.9484627212444168 0.8168929532862834 -0.6670991975581866 -1.1324369880717335
P 1.9851324193264728 4.243219136762199 4.905398539651461 -0.4013458610426185 -1.3780974104921686 -0.26638505656229605
Ni 3.2235989998687313 7.872119607755323 9.148143128541092 1.2099184673886645 0.7858504821581821 0.7400084841234029
P 1.6691399181208448 4.779383056864781 9.316925241483212 1.1594011753654032 -1.7187086726588918 1.5173344737503416
Ni 3.3048171634848797 1.8698783667114007 12.088422013305895 0.46440422295568407 -0.14302918331075365 1.0140322881778796
P 8.773854535512543 3.6094862946618766 12.764913028272836 0.030436205002670164 1.9752443472309336 0.36431554776219843
P 1.2836754877686025 0.0024253624932694725 12.956305233020673 0.39262827866396255 -0.345127919090154 1.3320317264823576
P 0.4258113362069569 6.133329217723926 2.0650791705236395 -1.7386604331904703 0.8014959020049228 1.6676303659258376
Ni 5.7497723758495365 8.483027167034445 6.71040010414073 -0.365256571519229 -0.7014558206611855 -1.2080580171411581
