# total energy = -340865.6487249761 ev
CRYSTAL
PRIMVEC
9.29051828630577 0.00000000000000 0.00000000000000
0.00000000000000 9.29051828630577 0.00000000000000
0.00000000000000 0.00000000000000 13.59761261198842
PRIMCOORD
 96 1
Ni 0.7512452357846775 2.0874772392699046 4.5100021518602045 -0.24823461090551444 -0.1029135462367905 -1.7201256076110762
Ni 5.880963041352823 4.499871770837101 5.2623436687900815 2.4249130637486562 -1.485705791101467 0.7623017483039646
Ni 1.0958259098092231 4.005532589015507 5.693769319602646 -1.2397617760023423 0.901727530534176 1.8758177311014792
Ni 0.35682093172624924 9.278347600845885 1.129642466931372 0.45724267221023834 -1.1500801550747934 -1.2679456946357262
Ni 8.036261063334255 8.34686166711669 6.300861946259882 1.4672151884964473 -0.024454019277306272 -1.283105690205616
Ni 7.667464653674423 4.25174061129471 8.28607194856353 -0.4806350829922496 -0.4383432642025741 0.9538548473570347
Ni 5.736235349150061 7.379031226268659 6.217889257449146 0.16071965861198126 0.34129080473225093 -0.42794289480485653
Ni 2.021728242112442 7.397733039364317 8.573879195043984 0.6690740618963703 -0.884083849310484 -3.6691213055581264
Ni 8.344241740990025 4.1429672244472355 0.4383833198773133 -1.6125840756839713 0.7190509080351294 -0.6240807850151316
Ni 7.095521773498117 6.4893619148661195 13.072608232144988 -0.03854726414557877 -0.0881358737069837 -0.375473878371863
Ni 7.5397014476677215 8.935267345507354 0.289032665828351 -1.8478279307567722 -1.9682792287670103 0.20699385908817255
Ni 8.523149249575761 8.1408908790736 11.315946835164642 0.05606650397626473 0.8939602278839313 0.5818185339118108
Ni 9.078508554801372 3.11797222523975 2.213677780118787 0.36309915885659405 -0.5545630406299674 2.209556691628401
Ni 1.4062035411553457 9.394943604000632 12.383169097602323 -0.44637436203716674 0.2195791519523509 0.04060466089523975
Ni 6.878551011930309 6.39666112446946 3.9336806504658246 -0.5186046202574874 -0.40565554416156596 0.4217881880573704
Ni 8.185987054317675 3.254487099371692 11.702472340666722 0.4891423491323124 -0.7377523410993746 0.2297059559737076
Ni 6.267606536435785 3.055196193899779 3.3962074508396984 0.720649619980817 -1.263060855739599 0.8881983856994897
Ni 1.0850396182026363 7.680480669644128 3.548419584487996 -0.26872347488748555 1.7616329828262434 0.1972007842571507
Ni 0.253654372600201 5.2534814434985035 12.533082757052973 -0.020062575077829964 -0.5137835447197604 -1.6918642987725379
Ni 4.622004922826928 5.9816165153112735 12.147631235452463 -0.22640671639714557 0.5444040978190947 0.2303011663555453
Ni 6.2041058446778 1.5808374113784383 11.209586195888425 0.31298887246376417 -0.2688954816889756 0.57188327707597
Ni 1.4205852632974614 2.2797538035161735 10.233862530794955 -1.19421751171364 -0.6755069620059075 0.42713711107410957
Ni 6.121327327697019 7.614824577668461 1.9371018410657257 -1.3791762453786442 0.510149804621915 -0.806676674874914
Ni 0.25559887805520415 2.7256893856217332 7.744411512393831 0.12699706954855547 -1.7836776213311087 0.10049696637549789
P 7.56084666704463 1.878124702609418 8.200189469458923 -0.7766988975659012 -0.8298477136747386 -0.45304457496849077
P 0.11769135524813062 4.025284230665466 10.014138059638695 0.06738758541603879 -0.4155537771118844 1.083135056512812
P 6.071734541653988 4.540638564609455 13.269746524554673 -0.3248465431332986 -0.9460258382309192 0.1741531584090678
P 2.4662516654546933 6.292560868266355 2.7805759089235362 0.08812867461813209 -0.911041094625618 0.1378044445767046
P 2.96849707824718 2.9807141096534346 7.713001199480214 -0.5403309561909856 -0.6041377662343015 0.953423416246571
P 8.05092150102176 8.24593876813103 3.892031257466403 0.2158232844543444 0.1708318073453187 0.08846651757352507
P 3.241545407547424 6.430636549452481 9.871934601225346 0.06639411115451792 -1.11959304222953 1.9491309379733335
P 4.3687268162130035 5.835272272945249 5.617608438721238 0.39741053054395425 1.534334093632132 0.2652455436412141
Ni 6.87163886640464 8.860618031933777 8.870374934126056 0.3396098174854022 0.2682395932725316 -0.17549116049420097
Ni 5.423414311522687 5.336334284624722 7.538665554890689 -0.8562192616897318 -2.333015666116711 -2.046590660184404
Ni 2.0734857188913347 8.447134229829773 5.8240753404351215 -0.7233698471254575 -0.4760860301689866 0.46664519647106084
Ni 0.8371992518792672 5.321209321028233 1.7690902522010958 0.5847966427035283 -0.28498827348578015 -0.6371365897578253
Ni 2.406940997395736 5.929152959150726 4.915510044106968 -1.110787528122758 0.7796777776885669 0.4954981161470111
Ni 6.245290711768239 0.38618547253670454 6.513024864669716 0.0798648919474431 0.7629342396816409 0.7654310379615656
Ni 2.9255005601117077 1.7928284552019484 5.579848056631823 -1.8791596509905184 -3.4631445748805585 0.676489637634151
Ni 0.8273132114842897 4.845692729038632 8.162932633454846 0.9174701380804134 0.6951553323644545 0.3280300830676028
Ni 9.566074948869993 2.036732428972595 13.626711459312707 -0.479236145762194 0.254456166335194 -0.5216698894463725
Ni 5.232893655212373 1.9511481755015556 5.2032764123074315 -0.017149258085776914 -0.05806939333890644 -1.222413771642198
Ni 4.2885775158770665 0.7719045610607901 8.052696919045893 0.9840267429547248 -1.1017148763975284 -0.48083871436262354
Ni 4.261486364865174 3.480478954091952 11.792149067395902 1.763913294219988 -1.1577317580827804 0.3382314490806368
Ni 5.591461204356399 2.805141897094196 7.29755338183303 0.09967704157736382 0.41700387929484956 1.8010847610639626
Ni 8.134359644793298 6.576181807255053 1.8725411011834419 0.8534990345450915 0.4609214066134062 -0.061466334835597373
Ni 3.635101048156054 8.467629112934105 12.230005614892429 0.8853706864427073 0.009682774505402678 0.5122959044306403
Ni 3.664394051976526 0.12628229740886338 3.8163878584476016 -2.0680807117373803 2.0978026642818453 -1.7269436589741742
Ni 3.936996436404146 6.413198246829256 1.3935108352182928 1.4341600578136915 0.8605207172785632 -0.8834194762536077
Ni 6.000597043952321 7.298593919869152 10.693285158141931 2.0210174397009903 -1.5275911184813435 1.2837911463084148
Ni 4.415931939083863 3.1783420123711887 1.8373913547025114 0.17216929520981963 -0.17945220202447804 -0.2176215140053478
Ni 8.857877329070776 7.061286214006065 8.183899474882706 -1.1724986319793096 -0.10194835411004377 -0.89894791090651
Ni 2.2332919220996876 4.37128170871241 11.136852587163494 -0.5437633789113022 1.2088599442171633 0.009738053223370326
Ni 5.9531224960542515 9.180825031513981 3.767096085193591 1.2953765371531691 -0.22283725387833236 1.2529769891410356
Ni 6.505453092353292 4.685617100803069 1.9440502196122942 -0.5546491725858704 2.2771810756455944 -0.9462780634510414
Ni 4.8739823568957 7.332587925888533 8.719482983111089 -1.3655121176279903 1.166136694317024 -0.7269084564063352
P 8.07537414487063 1.001239144222092 12.519077300897134 0.13571105238278564 1.2900672091251137 -3.107300554924481
P 1.5068663056319753 3.7687265711341214 0.21272964001879327 -0.14385347898426193 1.0816661852767693 0.4245199851662366
P 5.134906559971486 -0.1896278375132476 10.425276005902333 -1.6309574359848362 1.6673146344576317 -1.0749386367449487
P 0.540191605245495 0.7577736829095254 6.048517536723014 -0.31240523204615234 -0.10664473114444858 1.7568651291239552
P 6.806317233083441 6.362304788241072 8.46829431403577 2.382676780787264 1.9726470188174028 1.6801842913314482
P 5.368804645662638 7.8418569704248435 13.34102523813267 -0.13195235667130178 -0.039347391449370946 0.7947655252596248
P 1.7746190395698123 0.017682643251349238 2.52717052221055 2.4638179683439696 1.735488977441024 0.2769744020423682
P 2.747977338734741 1.8489896375980006 12.099359561094579 0.24545062040247406 -0.5106581117169011 -0.3268854279401983
Ni 6.628078641806641 4.87702964685863 11.005159491966795 0.2018125719975492 -0.7722706865912183 1.5948761168812466
Ni 3.6068857444444227 2.2383831260621423 9.79888790203776 1.2879486201202142 -0.0020437699029061574 -0.3209649486907053
Ni 1.8883071105343268 3.8979576790132096 3.5753156346181156 -0.031956498301938516 0.9803109846660342 -1.6135091586014016
Ni 4.820106641971845 4.905514375597471 9.723000162390832 -2.963907046295773 2.839488536107671 -0.519905084236466
Ni 3.5188859562466717 9.033393798520937 1.1840217279405651 0.6642463014904239 -1.429676311010725 0.4774574565952164
Ni 2.011527253151174 1.0174696794819602 8.10680118071697 -1.3955685706937384 -0.6878181752730929 -0.36962230468709245
Ni 2.496566626274928 8.828640068359382 10.237696727647702 1.2959537498128777 1.9404974306680518 0.3225063250358962
Ni 7.769939069196086 5.627294732975352 6.326574384373913 0.8131275727065803 0.5216909724922951 -0.44807797499183477
Ni 8.535933002590976 1.2324151080866026 10.148781823409255 -0.2432579836265294 -0.7805074726787138 -0.12481111764083021
Ni 1.99902221568135 6.508974198743384 13.303577946505909 0.7280626246154364 0.8603769926118473 0.33706442535572917
Ni 4.362818046650739 4.952134195823011 3.6069702881598573 -0.6555207486919677 -0.810493734628159 -1.6612676569326035
Ni 7.827122208591901 1.3465398334055614 4.478998763642856 -0.4078324972082267 -1.45066499744725 1.0990830952016362
Ni 3.5451874132132923 3.8060465826618204 5.8874803398558555 0.8469746031630122 2.29284475032478 -0.46100985256215443
Ni 4.769900681728956 1.440346195465601 13.67661454866294 -1.0467984268653068 -0.07344201914023481 -1.6475503073465112
Ni 1.2892452077915904 6.778724394089848 10.982764697894723 0.8380011960198084 0.431470962562773 -0.33579327195278946
Ni 6.632658867269215 2.4940303148118805 1.008728230926717 1.477891951484003 0.8142331470659333 -1.525907045910701
Ni 8.4145988351646 5.99541293480807 10.209917149238699 0.21931175722357713 -0.1896921345849314 0.006023580486260594
Ni 7.718172301899013 2.846391797811892 6.089935595819762 -0.021391578301898643 1.3469461817003447 0.2353677822451753
Ni 4.38776308796313 7.310643721948172 3.649707600838117 0.17979827250998712 -0.9125143367370349 0.7312065695610568
Ni 8.006029717177638 0.9563194888234299 2.3196026940923766 -1.0509749268404995 -0.5643643429911055 -0.37846664245159983
Ni 3.0769452969583657 5.762583258707579 7.434997307782939 0.08833976218767367 -1.215945904529667 -0.11713508915281118
Ni 2.4185541451203125 1.8328612980381085 1.1290339379906043 -0.4160307167483029 0.3506791879256864 0.19363080751770523
Ni 0.030926276916456337 5.947000044573855 4.152873703982208 -1.3253728264049431 -2.1920220251787477 1.1485287514272735
Ni 3.527368199344702 4.58712831758048 0.06957483254384711 -0.7858345413185821 -0.8842288595287804 0.3111903858024447
P 0.5701656040485361 8.484221978402982 9.287250704417454 -3.181976446471817 3.8295900245015657 3.3181035033460984
P 5.659792965567807 3.154084469404093 9.854788020872963 1.2855896329697345 -2.516206766358331 -0.2980242807341319
P -0.16387545017104463 7.1069026582682016 13.578304143389401 0.90073174227981 1.197425991348609 -0.08956952082971671
P 3.5202330813827225 2.615754684001802 3.6582474451488616 0.5655323951572777 -0.33723334683342565 0.5010666113737242
P 0.9563473603779689 6.397051326233005 6.710136214576681 0.6614348001835577 0.35103040061751806 -2.222102903724528
P 8.177216805156075 4.102423403111194 4.077842550111447 -0.29306642250822434 -0.6470060263527373 0.38852711201139534
P 4.159476475252494 9.02698334097697 5.776742008413383 1.64134212165327 0.33137405983917123 1.8670793227872164
P 5.640087776508746 0.9677096641116946 2.0172734386452946 -0.46584429783632025 -0.49022581200447835 -0.23630340668556718
