# total energy = -340858.7282085504 ev
CRYSTAL
PRIMVEC
9.29835003146098 0.00000000000000 0.00000000000000

0.00000000000000 9.29835003146098 0.00000000000000

0.00000000000000 0.00000000000000 13.60907516267113

PRIMCOORD
 96 1
Ni 3.763925012019791 4.98097473802921 0.9350802245364528 0.8591184376143979 1.7271917704292383 -0.10164470682669591
Ni 7.889222575403975 0.8246575097868728 0.3181301288704506 -0.6404288873558518 2.2691654044299696 -0.8515313692957592
Ni 0.172480742274722 7.268399228637692 3.9648871916032418 -0.2680629584853512 -1.4179621078975901 -0.8347677766841752
Ni 7.569181530470533 2.5395737916600947 11.900176493525768 0.29931317474888447 0.32620280005087693 1.1631102487858742
Ni 5.777660325798122 3.1719897799044094 0.4480565280163775 1.117760102785849 -0.030615153782695664 -2.5381992114690224
Ni 3.2133306352397786 2.9384728453574076 1.1886262519080804 -1.0854575339984014 -2.489107596148694 -0.11110559512927962
Ni 6.1298335552154315 1.301386192762102 3.7871991095678235 1.2322243299747164 0.08176750828679466 0.12438817117079867
Ni 5.9409669881676885 7.129998047637058 10.420434706952818 -0.5065037232288955 -1.2469670355015299 0.25759368352291123
Ni 7.7764467414124425 0.36133983019893123 7.748283166853917 -0.27637662055736917 1.8122639176092337 0.10235150308573342
Ni 9.29705539386678 4.101037156420078 4.696438962293566 -0.4138411652961518 -0.5921212013893996 -1.6246271228914342
Ni 3.8452791782632056 7.87709704637413 4.389048854818247 1.959437204995348 1.140423862931952 -1.8614771461090909
Ni 8.582284906606349 7.704030127792414 7.86311108536515 0.40819425142301957 -1.0684152338041342 0.1245126125638049
Ni 6.343502765683514 3.5472454543291883 4.945156280533417 0.5572734975825951 -0.7576102563655661 -0.3209721477795569
Ni 9.232342277486993 4.93942820679665 12.516503017267105 0.45561105014408626 2.044208533105473 -1.3315463022055067
Ni 0.08261907301113866 3.1873874254804733 2.5768226315318064 -0.006136966135673302 -2.142564541878568 -0.8400457372536629
Ni 7.801688783340416 2.784627274258622 8.403851716888834 2.053796176793908 -1.0012575050107144 -3.3814182042443446
Ni 1.3329480940764862 6.53876398335301 0.6632355865479282 1.6146445577574255 -0.154638742525224 -0.8201150597680069
Ni 4.9435323758360505 6.246246113025475 12.555199067542686 1.8003250000798028 -0.08090927405155743 0.789959105009917
Ni 1.273788226920852 8.14140927207326 10.151206827310828 0.42531831269781595 2.9750849172894633 0.4804695039486628
Ni 8.031129595561271 3.7373647745689125 0.5749501425691805 1.4588465048167778 -0.5481635648615268 -0.7312006560237859
Ni 5.626320261083299 2.8157404281609533 7.776853418754616 -1.2002146098373394 0.9715484079820559 -0.85750712726322
Ni 4.547251015375712 0.4288435945474231 6.152658905351411 1.2887808862135224 2.9723117254197007 -0.6466668978457637
Ni 4.443197709205958 5.956420727170259 2.97272816603455 -1.0408324390898591 -0.9269359114790036 0.8782818979167261
Ni 2.2668942965070635 4.415094902526148 2.967651710935703 2.304564866975186 -1.2313923209917246 0.6093730464913119
P 7.3039718099472974 3.7394682780629105 10.017811049735466 -0.23906271459825926 1.3765838020611194 3.976115908111668
P 7.87001992572988 8.383714176772962 1.2691539750009644 -0.6745445980926383 -1.3270489285557854 -0.22405878499025927
P 2.4977935378170906 0.5500484007620144 10.927119149463458 -1.5588966134628444 -2.149056063140183 0.6821974866522058
P 2.608980058057602 0.8374206340980094 5.621605608585418 -1.3500641585040363 -0.37910273337370193 0.17712201122940463
P 4.35012936572708 4.090622476898684 4.438376479197715 -0.06649284151591128 1.7738040709711387 -2.474500130648164
P 8.864547028787593 8.954838747654392 4.854040923187411 1.1674641548791957 2.3530016223203347 1.1602781786537177
P 1.9769099792767444 1.349205838858984 2.020345924092135 0.2251695015559348 -0.43137737440770224 0.4468870400075271
P 6.213590389894214 5.066190001797163 8.430014625901958 -0.6725589351211771 0.5037310455797648 -0.7533175425274834
Ni 7.356129347694024 5.000139992085634 6.527137685819074 0.7474621121879708 -1.0291681153780532 1.6920033954535634
Ni 2.3096655342183507 4.819790276962476 8.750457673725364 0.26121456810495014 0.8150803255575769 0.46504314209126363
Ni 6.053855009012234 6.319840688602143 4.876631615822505 -1.2957056383578136 0.7630707652595052 -0.43795014252921355
Ni 4.210980272373026 3.8560584650568916 12.709762634500757 -0.07965817525327572 0.261802065177304 -1.7097090402634427
Ni 7.014183819709753 5.162334134829486 11.88167688146389 -0.7012159367362375 -0.7757545313747607 -0.5937147711287646
Ni 4.597192862775428 1.0244342482901512 1.0515563548965372 -0.24687346889192968 -0.8408772320160227 0.9229864399129524
Ni 4.948599482030481 4.118173698217845 10.078248912125009 0.26785778445308067 1.1312118574153809 -0.4411161989620209
Ni 0.2690689482668892 4.089379072611121 9.514903564609604 -1.3153704637765928 -0.44275939099239875 0.5739951812126501
Ni 6.898107822458748 8.923669500325556 5.5113203227307785 -1.9761925700768157 0.5054320874312715 2.183651798837181
Ni 7.329662599287323 -0.014375810323201423 11.582469870025442 -1.186919178280014 0.05524195119244034 -0.9485128663188309
Ni 0.14054581967406926 0.6401194854845558 12.11293512070356 0.6983368154162296 -0.06430277584312796 -0.04036837651471757
Ni 8.55062016734337 6.973254316168765 10.085309204741307 -1.1328051700444297 -0.06666844786182712 1.0869392607502506
Ni 1.7241716972468117 2.2446252061839407 9.849851437637177 -1.0037211360598584 0.38352065993573947 -0.28746990225705327
Ni 3.9859053985152677 2.8489196899396103 5.970072932291525 -0.3014027102880616 -1.0614801972471974 0.24849094989069462
Ni 3.6446423405534922 2.3078144511436327 10.919469875868842 2.8343717837063958 -1.0532904623475539 -0.4538678422007344
Ni 5.725895442036942 8.675876788732621 13.527887129880492 0.3925984538672916 -0.6703405873136197 -0.5258600162683201
Ni 2.4509929223017455 7.208397960084459 5.854929020810972 -0.8751865468208541 -0.34357497278073734 1.704445477871658
Ni 2.348510232074176 4.81056290830214 5.4490893404739085 2.7997788762228746 1.0425774468054239 -2.41351973431005
Ni 1.3084072199798458 5.95742105994296 10.489069688735858 0.8848127570567084 -1.2535004657446733 1.490712500287439
Ni 8.600029127191272 1.8130236848332761 4.3775001531909785 -1.3120007759734114 -0.8586615525826374 -0.707937314620471
Ni 2.198974505911981 3.666257007567371 11.667797320646407 -2.995768413780744 2.56715060439605 -0.2555301161256631
Ni 3.9123575674606887 1.0896335076996633 3.769137961123138 -1.913717591471046 -0.16111072340281285 -0.5011967091936852
Ni 1.752863484904941 2.4194216720829442 4.517272818469698 -0.19110855531648377 0.2147115394474044 -0.779608100792896
Ni 2.720961235173624 9.261810024211796 8.251121470087089 -2.068586190618889 1.1279257304649413 -0.07634068084426852
P 4.616460954780447 1.6751273446712023 12.722693104200971 0.8908450792937175 -0.6273154899023454 0.1958203589698563
P 3.769693286045553 5.806782163059468 10.677704402954042 -0.5175445544240893 -0.037783646506676864 0.8273015502141172
P 7.133485188984885 2.3374411292435386 2.0093992919093706 1.1781871977236547 -0.9716545945426168 0.8733006426520509
P 0.7189307497263376 7.408931959845575 12.325460025270905 -0.9523152707840568 -0.42715639434781916 -1.2421279622416739
P 7.023074627811049 8.615894217988224 9.439591595291391 0.28842660974336776 0.21533117530927431 0.37580709334156565
P 0.35292488133249855 2.9293576635500838 12.767641701751158 -1.271258818169359 -2.205316685405124 -0.681818248935916
P 0.6094644278986955 1.1318531600503023 8.476701184783407 0.04117158914230329 -1.0103836356816984 -1.9605134687786623
P 7.992883227588183 5.650963973128534 4.641843230274686 -0.522762351179603 1.9339778843819788 -1.5281081673270778
Ni 9.317772566056552 0.5358053448815453 2.360000970494054 0.2339711590079648 0.2914759380926528 0.739956290729229
Ni 7.426227433018446 8.667574961609644 3.3808667419679432 -0.08293324646012169 -0.6297071300629735 -1.2670689484577276
Ni 6.49005619133644 7.0843566962695155 7.278556813287596 -0.696142121757756 -0.713597341119726 0.9898886010521404
Ni 2.3693769867346335 2.8427400641194662 7.655840265080589 -0.2918623748977941 -0.9314397128866282 -0.7609478053792315
Ni 0.4865487721756525 5.321667512821501 2.190111744523937 -1.4231369672303105 1.5941536368929257 0.30378586580825745
Ni 2.6881559295716766 8.281353022302824 2.061162305889667 -0.24850766206124295 0.4878588544341985 0.11580274349463282
Ni 7.9079484309527635 7.2461301383145695 12.630455878324833 -0.17041297464034522 0.08641169192702537 0.9684646268504093
Ni 3.267713212237933 9.142424514796902 12.831021664360971 1.504624482382841 -1.7324363066576292 0.9443839317521221
Ni 5.8848829105655 7.576202557688276 2.140278344415468 -0.6259818586925865 -0.47660205057345667 -1.0104800520502466
Ni 5.880096271503603 1.9445908167045212 10.22137409452794 1.3556781622567038 -1.119419749876459 -0.21395897755209603
Ni 1.5916416282205368 4.1306544856155645 0.214315219763349 0.09133175493646206 0.8478071263666367 1.9032184917119355
Ni 0.3772610144223897 6.187946345076276 6.421366985907776 -0.6750161384124181 0.09217456255273157 -0.4803833719927597
Ni 3.5069049317665204 7.002282664385933 8.943333985877889 -0.9239441758405315 -0.21613438793686002 -0.2230938499738287
Ni 8.724248020190153 1.428297570233299 10.115316383251015 -1.000254774777813 -0.05323109140999864 -0.15728029391312912
Ni 0.1945890314418591 1.903306054795659 6.4576005347597185 -0.15818892177032756 1.3378514184879282 0.9346497351834935
Ni 0.7738920239079523 8.98002469615586 6.600095601004892 1.3208690249973187 -0.25157164569854734 -0.0839737719094941
Ni 2.046204058821239 1.4961519184974572 13.266403882658182 -0.8334302888196743 2.275176129400424 0.695038604280932
Ni 7.599069977894136 5.149937487571527 2.4075906335422586 -1.31747259772126 0.3039866689651539 1.6743409451767937
Ni 2.7980523010025364 6.877044740805517 12.415261861546213 -0.9407087968933799 -0.6187136071659473 -0.6866863756614948
Ni 4.868797233920415 8.72827739799421 8.234948800334793 3.005960780932713 0.9429639114761438 2.8249350637735287
Ni 5.031094214612863 2.9387065679678517 2.397068441620061 -0.11807765557173859 1.342147988980753 4.972267716464701
Ni 4.553570874762124 9.068727101271639 10.751305522763802 0.19339452313718308 0.37742277456811774 -0.2739862659483217
Ni 3.9102914595843625 5.115486774792052 7.175482337410382 1.8793547977204603 0.11404668003547455 -0.1570992882505746
Ni 0.5432358541127872 8.633788021043832 0.415764477266966 0.13826081538783286 0.8738634571340563 0.05174447956214315
P 6.533519247974642 5.37934090417471 0.5077389989289649 -0.3897185612163353 0.2945859444765443 -1.2327647758592188
P 2.046718248564216 6.494141662567005 3.4384728212093445 1.9664447466614328 0.4477936109821965 -0.07219580543795953
P 0.8423418973835223 4.154008048851149 6.451511593312426 -0.9177758422462903 -2.9343591574353267 5.3887303785441
P 1.1811966775672804 6.927856036316085 8.345275221368869 1.026558188559032 -0.7547450190026291 0.024240617714919543
P 3.8861806350909394 7.070286595120775 0.6904941871588136 0.4922335864631264 1.68540620185202 0.05461794445519626
P 7.0643780875287465 1.9124305855074002 6.382575576807132 -0.18041456593774735 -0.008653304799623807 -1.5531401705950414
P 4.692224476182036 7.828501441210573 6.444122219260621 -0.4448504691934726 -4.216550820467106 -2.074672248911969
P 4.175819042857801 1.5848075790911484 8.790042804811076 -0.42316964178592925 -0.20594433477773566 -0.06150027339732634
