# total energy = -340861.74398744764 ev
CRYSTAL
PRIMVEC
9.35719770412969 0.00000000000000 0.00000000000000

0.00000000000000 9.35719770412969 0.00000000000000

0.00000000000000 0.00000000000000 13.69520468003480

PRIMCOORD
 96 1
Ni 1.322340462162949 3.285153034132627 1.2024064523009275 2.9209788794736795 0.8135721164431665 -1.0883104300661643
Ni 6.150729324160564 8.523387154644636 11.57939177471884 1.0698553086847704 -1.5631119370957727 -0.097549967932032
Ni 4.302879282923942 4.1335420764551065 0.08062535811560334 -1.5422237807928538 0.01216697437983711 -0.23845053493555704
Ni 4.449993144895707 4.24849524999048 9.504883269727232 0.4409681034199309 1.2402561991402576 -0.8070371435381263
Ni 3.8818428159807072 6.349270344597971 0.62386589107875 0.2818039622205276 0.19653846808280345 -0.4951057658045989
Ni 2.6399087535075796 4.951529583505593 2.382540902676833 1.161651661962477 0.21524581468431964 0.6872599887767776
Ni 8.108311222625458 4.465507378654083 12.026169892487944 -2.4512491305400235 -0.78784565821134 -1.336881341265175
Ni 1.2378823958763983 7.286917695618369 9.30493305531877 0.8215803314596237 -0.3849162547316855 -0.15941945174331898
Ni 2.482904333584908 4.794927523083289 12.150193933457196 1.502495608965296 -0.40946720459817226 -0.17872612249173092
Ni 8.943721831761648 8.64503072452334 7.89460031330441 1.422502933190737 -2.1004778971211633 -0.5355921559544196
Ni 4.967305818799093 0.36327074276714433 7.314595350644846 -0.5249475317563799 0.6225514928547988 -0.12926426831617738
Ni 5.676281972842896 7.108438507013265 1.9581133872932872 -0.8299420731607577 0.9394443283586594 -0.23613705631103202
Ni 3.1858170235301433 1.1004251619134655 4.880313823379992 -0.1532809429457489 1.006529552042931 0.18987956800538913
Ni 5.365623009768059 6.038667524709231 7.622586576660266 -0.047038589446041564 -0.5259461482242233 -0.4462771743376701
Ni 3.3253141265879647 6.9845304952952825 6.290028990347275 1.5912701446975432 -0.20231907932032253 0.753638930422644
Ni 4.163185678714777 1.7332056552247879 0.5618763278685637 1.0261851214903297 0.10350901372894432 0.11644680483653493
Ni 0.46182729880263657 5.809556539441538 12.39124283152883 0.21275415861071748 1.5514342436475281 1.8137315032936958
Ni 7.925752295830577 0.8375749289602625 9.08967165834165 -0.9937920498716045 0.46038404605269745 1.8579758178240517
Ni 8.534157289177744 8.166868565725528 5.052174666063926 -0.3375362227858251 0.18768153191280582 0.094326833009044
Ni 9.027786895745514 2.308345810808971 2.180605090920042 -2.8084069842115182 -1.8377942006698542 2.364244799334322
Ni 1.3041594270649246 1.6164371853389174 8.972591593772938 0.06103747482829487 0.731434883521779 -2.025669336650705
Ni 6.342626734243058 5.12800633180654 0.7049375875238313 0.7308692408262961 0.34415784186740084 1.0050005169929142
Ni -0.09296843757921835 6.197739885319841 0.9874051854193957 0.2548958249757739 -0.5636686024756614 0.16762795569604033
Ni 9.08233935823727 7.993329977497036 12.873409870934953 0.6502515298732285 1.3587138637592342 -0.5676442992939579
P 7.6323947912715635 6.543881342008528 12.360716845527653 -0.07695903115455778 0.9079573134939718 0.41682621606640474
P 1.7871405426694673 3.0694602703423235 3.9660351378530616 -1.3373634231079161 -0.847206002447528 -0.5757047077045891
P 2.0010554389000053 5.410406557878788 0.45752953790684525 -2.0174587758154545 0.08193103044785244 -0.8786387670355126
P 0.2005181963078198 1.234279874768452 0.3076805670523461 0.5677936803876287 -1.0614177194403784 0.3032333357388971
P 4.04520077313012 7.243996229846553 12.069104458336517 0.6183580235987415 0.21999747043669207 -0.29584115703988406
P 3.8403155726636546 1.7851755311560422 9.884979189648138 -2.1483479813295645 1.0298623132316005 -0.28151959821088934
P 8.004521185925878 6.419046967719931 6.357478478405478 1.2910961646102603 1.6439728744078976 -0.2609140061453958
P 0.5050360305433197 9.506351414043692 10.17404454762997 -2.444045413702733 -3.26275716536531 -0.6465879649787123
Ni 9.248644832656822 5.588801531704744 4.2965276171367375 1.8134769640807282 1.214123506608948 0.4380622426270456
Ni 4.587300663695712 6.965497955208106 9.713392512856315 1.3933767052487422 1.72195237640717 3.2136130995404915
Ni 1.7170738464193354 1.2330540818719822 2.550663544886418 0.20395532937216485 0.41450296724986674 0.4608273042377032
Ni 5.73396909655845 5.630646919743017 12.077293877748659 -1.243584235072226 0.085507177834885 -0.3462070110869457
Ni 6.697049310881178 -0.15127220062208 2.855408759025614 0.9423990401116092 0.7460138097772184 -0.6487998850283665
Ni 7.5400392501405795 0.4176117325912652 6.604006015720496 -0.4726353526162247 1.7295957518850407 -0.9101023848614326
Ni 7.38527120046414 4.538297019429961 6.907696673680821 -0.7128946586257464 -0.5704126060677145 0.8286650062205471
Ni 4.395347110427121 0.636828417028978 11.813524767982987 -1.0647604106603663 0.447014823834643 0.18872437135502335
Ni 2.411508915263793 3.3543682253936087 10.275512127864637 -2.0026204252510413 0.6748880974749861 -0.9943751760685843
Ni 3.1429423437467423 4.168865497708345 7.291696416475065 0.3580582539985768 3.542487018665628 -0.4173990578507392
Ni 1.7961047380497595 1.1971130855716672 11.267839199265278 1.8069353063074687 0.8708218420942552 1.704573261698774
Ni 4.734919814342358 1.5059193235052755 2.974297569906447 -1.195356767524406 0.5352545701093427 -0.6818107927367484
Ni 2.013921585714099 7.959906067373443 11.763824948209622 -0.23355078364109455 -0.11376668690121053 -0.8442620893278557
Ni 6.292809013778888 3.1438032059335765 13.004240337498803 0.5903111447638543 -0.8306722664585628 -0.09675035484887208
Ni 2.4978664926799885 0.32781819218588093 13.423368871834478 -1.3623020953311247 -0.22664788587367418 0.32947118638950357
Ni 6.516932612681554 2.0646375971558344 1.6786625499307146 0.3723057650565265 0.43104467365863186 -1.5003271405590677
Ni 5.6137946067159765 0.7527491248047709 4.904800673996574 1.491060370545161 0.5125704982482656 2.147031062290354
Ni 8.513599525868242 5.551775100473204 9.041437175725441 0.03871875672643654 -0.17429739729641597 1.4379930584065364
Ni 7.133403510431447 3.0919830451652492 3.7581144624582383 -0.7785819735212268 0.08544315736616898 -0.008993204637545802
Ni 8.849382564721873 1.8620074813309668 4.834558062430003 -0.45802994399822405 -1.6180067893614392 -0.6764873236413058
Ni 3.7552399313300278 3.6978148091495977 4.156097601469923 2.849705585849989 -1.866278681262792 -0.6435661474332529
Ni 6.194698796072873 7.9640980919354165 6.643434439597256 0.9096457569399883 -1.1682228874220912 0.12809775881190197
Ni 9.121770589273336 2.784758173640064 10.480679915701128 -0.8205387775689869 0.4089105607637538 -0.6923826547153237
Ni 7.043901914593771 5.324863056661011 4.651535018630044 -0.204377504511248 -0.3769224378929315 0.19476723511499358
P 3.3515423516933494 6.033567851972008 8.497505145853522 -3.320209751055824 -0.5521330910322363 -1.2790767715518812
P 1.716942845651774 6.956253043897325 3.1183843784277694 -0.4493151898330456 -1.5255182951127146 0.07848112422603903
P 9.04751186846123 9.465460460169083 3.313527800386487 -0.5377590816987513 0.5542491089339745 -0.6454767341924045
P 6.5066864812186935 4.832122383873123 8.99166904840899 0.30332589545270344 -1.0337171682013164 0.6592647891154323
P 4.691932848186761 5.380005022606794 5.620485003059305 -0.5161687571224852 -0.6870630422746231 -0.269082143778485
P 1.2426545666947166 3.3478836873993054 7.545647018711988 -0.8221230913369711 -0.783285035423851 1.3588262209673825
P 8.350709428602979 4.652080543254962 2.5928991280680718 -1.0582868871208806 0.3547929529837438 0.9180591778146641
P 6.396374477734078 8.11227867444304 9.080098309392199 0.12018184639893496 0.06308433005499459 -0.9685469021515707
Ni 0.7186000318607462 8.268731019702416 1.5974495598006204 0.1829455598897172 1.3054341784994872 0.2782373279151918
Ni 2.2698502995412038 5.193796788715551 4.685485738983189 -1.1361910557975272 2.169829805352424 1.2523923202821594
Ni 0.6834946333135211 5.651906472878742 7.423335344918722 0.8968722593244038 -0.26326090911101757 -1.456275401655492
Ni 3.1351384408791394 9.107304361655453 9.167734080011888 -0.3003565284117343 0.23231228324830314 -0.14896328940700154
Ni 5.4841412756206465 0.6810814120310814 9.594024613454113 2.1267890242118663 -0.4666346549480996 0.3975308581719024
Ni 7.513361879546413 8.025116378026109 0.8571249220793065 -0.08642197633967053 -0.316259572795236 -0.7598476303365171
Ni 8.215563422467742 0.8027624107005148 11.779094959108473 -0.017057212592602882 0.007001628128813748 0.6775216784430912
Ni 3.334942683003748 9.088964254196819 1.8176412642368993 0.4779498228506027 -1.295704609916549 1.86417089089117
Ni 4.895264753837853 3.0764313826161414 6.118620100311429 -1.4905631191937685 0.5390189222477814 -1.146310403619716
Ni 8.335139051658505 7.8286245838812745 10.004922556707843 -0.3923374868964211 -0.07657028035657136 1.7964796581917832
Ni 4.29020963726119 3.2031278392436504 11.562574083323225 1.2735494139757484 -0.6888427598828654 1.1814892655136944
Ni 7.888042789168178 6.9078950462717 2.8021756614071576 0.3475907788083498 -0.3524794743592188 0.8171724321999152
Ni 3.1798284170130375 2.004068456553924 7.343752378625003 -0.20874580878227275 -1.304291580254612 1.0498361852503661
Ni 1.6253920235215262 8.774085194966958 4.183323303848312 -0.0455954292416118 0.14523647537471762 -0.20860311255682137
Ni 0.8564614967635834 0.771250176063553 6.495361464862986 -0.3147709040648514 0.7264369160865554 -0.1394293817746373
Ni 4.713033328961875 8.38946694140587 0.08108479652183752 1.2684231484927768 1.6784986760989091 -0.5252853747117728
Ni 0.3067673045584875 2.968758108878125 12.754850433412562 1.869731158587767 -1.3338944907227093 -1.496188692910662
Ni 5.114251251212564 5.647517947165425 3.5612053372967427 -1.8998698869546766 -1.7419956682112903 -1.5208689692661612
Ni 0.4201681189982545 3.700640682849857 5.69690430081641 -0.14664158325236035 0.8192727663723697 -0.5397486013249543
Ni 1.2524983386572084 7.725293049868159 6.157514228200491 -1.0589489461849118 -0.2566498315524032 0.8724390659827039
Ni 6.152862765232283 7.4793016799803755 4.321659178673677 -0.11027410036691977 1.136562837314649 1.2592386537800313
Ni 8.549315949424166 3.9587309093417296 0.6669810508426032 -1.9143559963859933 0.4130862894079983 -0.8274982396059556
Ni 5.9308538930059695 2.8119501901067956 8.162793506134593 0.4979807733595488 -0.7779607949974603 1.0195308493986053
Ni 8.31633108431572 2.4828575475964936 7.606275109659301 1.987667917706267 0.4474557680268036 -0.488387730354475
P 6.704011065957313 0.4419095678146517 13.801205964234713 -0.9944026868724101 0.7206902434107653 -0.5878490563766069
P 4.8539901548582405 3.781318441272485 2.061196955567804 0.7750359080411813 -0.6035692953253412 1.322456681199413
P 4.379645732715085 8.675862690888748 3.968404380306391 -0.8796270990907109 0.009716198846499397 -1.4241314699330956
P 2.5628990165766785 2.583971425758743 12.997941072018621 0.3246046023258216 0.05353962378935295 -0.12123188493000411
P 6.803365790955164 2.5254047254609895 5.954277765965767 2.778999477583678 -1.3249452519492213 -0.2871780820482473
P 2.7899794899471653 9.32728272198456 6.825758500730296 0.38131516764398843 -1.7764047418187794 -0.005612461090770979
P 6.872459338646267 2.4297928795363304 11.042772394836168 0.7903784519355227 -0.08283271632651541 -0.7485430039569754
P 1.048118426865624 5.404324379384852 10.515972458202011 0.16220935578363033 -0.7275224358412503 -2.3082754830575536
