# total energy = -340874.347197985 ev
CRYSTAL
PRIMVEC
9.16505509301859 0.00000000000000 0.00000000000000

0.00000000000000 9.16505509301859 0.00000000000000

0.00000000000000 0.00000000000000 13.41398454659849

PRIMCOORD
 96 1
Ni 0.8537496213349547 2.335595127700387 4.050473156171853 1.493679296225247 -1.1871765457064585 -0.7676375586945812
Ni 8.280040652609813 7.570289626329305 2.3879706676583576 -0.7007716501099673 -2.0558934256425694 -0.7900722335490135
Ni 6.356048146134069 7.336333266676633 8.325711038310647 -3.002638915648332 -0.324693305384886 0.2121185819092476
Ni 2.569441506692744 7.290535486710935 6.1087419673303 -0.0955326803916871 -0.623929604149248 -1.3217442285134204
Ni 5.184909919726841 5.825803887595843 5.228637313762132 -1.3514831503387499 -0.10861213928346455 0.363037195270407
Ni 4.989455956239049 3.7238260125121587 8.445122540246427 1.6032172897570904 1.2927283008970445 0.313856362670382
Ni 8.185631420785384 1.7793404429979318 5.248180877099906 -2.633316915810478 -2.330285668780058 1.017808724501176
Ni 4.015293092453956 3.591326811999029 6.084623208523468 -0.6025740212916074 0.6906764706574944 -0.7575071551287986
Ni 6.216051930609543 8.932620065637161 5.819415844242612 -0.41674059833113397 -0.7245276148789844 -0.32808330490304144
Ni 2.6578109672549353 0.6207904196691291 9.458187396595541 0.6351756093767126 0.9205168953265372 1.6321635404777957
Ni 4.929195719442077 1.3987798631468773 4.060064386256726 0.5210916483453992 0.43315966311910564 1.1454269725734985
Ni 6.466129622053222 5.806584767205995 11.50282685442459 -1.639968124123879 -1.8010595642529823 -1.4992151384418115
Ni 8.353874335900521 6.60590587625712 12.070118098389543 2.2535194703625963 1.521889697221192 0.23439796213273825
Ni 8.993182749249996 7.92769927718429 4.582740142354353 -0.5849943605366312 -0.11370318065312678 1.9914137579019449
Ni 6.386531119151061 6.441255662712236 0.558493707645345 1.2269821077391707 -0.031524810081158615 -0.7864518631876068
Ni 2.604671978213286 8.43449932496561 11.592231049699233 0.22505303058272852 0.38042659439144805 0.8894708246540101
Ni 1.690714360895008 0.7455369001356341 0.9928458284559112 -1.0417693490818316 0.24766742554813476 -1.0486272525439295
Ni 3.1496903054536745 2.735347332776211 8.368287301434652 -2.7489324829949693 -0.12588506743129932 0.21487634716004284
Ni 1.6632191958165414 2.3978625115480874 10.455436117486018 0.44044642658850597 1.215897567790235 0.7009601119716896
Ni 3.1434030777057314 4.773069007071518 11.913013474647691 -0.531566322624478 0.4587789063491067 -0.0933780959425295
Ni 4.248250461108777 5.605705091142719 1.112173928390953 -1.2212305499673741 0.7492153474336516 0.6523593202448507
Ni 9.067877947713164 1.0242865497231377 9.153005728312603 0.4268802578682971 0.4112101554312079 0.418146477539725
Ni 7.225665227235806 2.5969916621013676 1.0263386055434938 -0.12538241676326792 -0.6422903660446229 1.1915844449661672
Ni 9.016315348136013 3.916631275097392 2.5037069825286493 -0.6726111285153513 0.01375257369940212 -0.15500306784317822
P 3.150258538865296 1.5246343987660445 11.927741718074722 -0.31841055769996773 -0.5278248533041748 0.8079858806046407
P 6.704558528558658 3.472474378419845 11.610138650714838 0.44829651876054405 -1.5597368499759525 -2.467536040625505
P 2.9677089728543313 6.931137018915273 13.199897180980237 -0.7160689425886699 -0.10937987068742451 0.42184526654755083
P 8.583642265406239 5.785468480425732 1.1357437004017172 -0.27025096727560555 0.8011148645164203 0.18087479340361753
P 4.2521731046599704 5.5726742328284535 9.937857964993938 -0.003283298736962087 -1.0188448790751743 -0.7750001697072395
P 6.130514472050434 4.724246758947188 6.893942476102626 0.35173488288371035 -0.6912372282569708 0.8378065635104991
P 1.9632922624278983 3.595689378191479 2.4433972544345353 0.39595245794118905 -0.13389148267554363 -0.8235374551859945
P 1.1841800997094463 8.019358992500871 9.871136364403524 1.137548084046054 -0.5996056826919028 -2.8307881801201957
Ni 4.866075985476944 8.464973132927579 0.19262196148470995 -1.9219548917791738 -0.24742985561603192 -0.5167716808138069
Ni 1.9352288639378104 4.477917575009207 6.8859083888666985 -1.5225532989471198 -0.7511331332816548 0.7277170683505596
Ni 3.696065060837934 5.804027716853697 7.406182900547472 2.2376549925265143 -0.12983402477671832 1.6829613398559533
Ni 6.79678647728686 4.880593432638375 9.294804710160774 -1.429582208635022 -0.15460326130159827 -0.4642592127373875
Ni 7.34320705794625 6.714374302491669 6.395063785380412 1.1512919159947075 -1.2355477379209947 -0.2975807654388101
Ni 8.02939472775451 4.307511706907897 13.052772385656368 0.48412535553369523 1.011217958657536 -0.09389591611921248
Ni 4.335272658582123 3.7235693909714267 3.5315129133818304 -0.3679914539518888 1.1483240916156352 -0.02871742253935054
Ni 0.6048624705391735 7.76807151379374 0.3528161252758765 0.4139236977076291 -0.26093508919131836 -0.07856288530656791
Ni 4.38479145088844 2.929371547679923 10.820671808827838 0.7695476312331004 -0.23810832110478997 -0.49543743811240487
Ni 1.535036736220731 5.247928838086687 0.9447778643602336 0.7460922284236376 -0.2526468810405972 -2.14557093280506
Ni 0.43722078303375295 9.10283346758292 11.405253845605133 -1.9057047484688987 1.072539540385153 0.8241982286984452
Ni 8.418717100210571 5.5533634618883445 4.123029230791916 0.1003918082562013 0.7063825685388415 -0.032637840639679276
Ni 6.964882751521578 8.959079579497672 1.003218837734514 1.0027307471221312 1.031256879586282 -0.681252092019801
Ni 5.805897388079033 2.233514744819067 6.526963591294831 0.08253678235265141 0.18206418572602837 -0.5295978860441977
Ni 6.575019640818975 3.8740412643908475 4.872791221294609 0.08080000216720278 -0.5047769703457758 -0.5746729240059653
Ni 3.208429143116305 1.8001542829623307 2.3900905448859073 0.2900644024571069 -0.2986948244385953 0.7973260868979494
Ni 1.4850780212731571 6.209728042641496 2.9331154726581072 -0.17208547724676168 -0.11018488308722314 1.5241779790347363
Ni 0.9821272966028225 1.9658768079452742 6.57434142674704 0.7156143715497546 -0.3285592160981954 0.013888327946318016
Ni 8.897407924226671 2.343971987994293 11.695075798169734 -1.9223642114024508 -0.902499118592878 -0.42238519821142095
Ni 6.982241365741116 2.2216826587803005 9.759518825261988 -1.0318862856401647 0.3015436067413 0.9966495739250577
Ni 8.895538253001337 4.1953589285528325 9.936073528780346 0.5580000913359744 -1.2345123546779448 1.5712736469709585
Ni 5.437223884596902 7.105813802658771 2.6592288012674814 -0.7554728983075892 0.3661034929005566 0.7152775570356262
Ni 1.4276314563692145 6.2340612637359385 11.088590196385429 -0.5285578748154575 0.6820709883766705 1.162369771075424
Ni 1.5996412091001009 8.96544929274085 7.731686245339903 -0.6725159976983838 -0.050398249946893854 -1.4881254562865533
P 6.474607297952415 7.779665308401827 12.308913607096022 0.05651721836043815 2.5588163734987415 -0.8397225495862894
P 7.952591566635329 6.607133993630624 9.761624954906999 -0.3146811725645226 -0.8988090713358005 1.432823598390455
P 7.474423150755718 2.458397699995844 3.3397203893769873 -0.1914651673249541 0.05648636512250272 -0.6623226021051497
P 4.4712087547300605 8.037734927828314 7.04625835859331 0.08145640480427907 -0.0592191906726335 -0.24865627182396527
P 8.781359997485492 0.8375412215211986 13.228307935055817 0.15217331170386697 -0.2813923286044057 2.2491928179627845
P 0.3476149565485333 5.999664981442012 6.019324024473116 0.966889826164122 0.042241682278030476 0.04353880382289921
P 3.3159260735180824 6.132475793826031 4.154324227684227 -0.07121081581687091 0.34024230886307855 -0.03342665508956179
P 4.903863507349783 0.2618657852183199 2.1723279209589506 0.5019947796149483 -0.3762104994275714 0.20793745394836444
Ni 3.6626126099924665 1.1167619549370467 6.922541113806242 0.2866538341136612 -2.32132845958677 -0.7875643795254953
Ni 6.77001535155546 4.977449734154785 2.3076747040687065 -0.180397853767199 -0.8881335938998254 0.9594955905825799
Ni 3.771108531392095 7.86721907906669 9.232697714776032 0.6861976089505343 -1.8377643758731834 -0.9896194065511538
Ni 0.747701686132812 2.9443930728677916 0.4523788675415115 -0.49806484843292287 -0.6900668620979535 -0.2784401879546172
Ni 5.335354297981183 4.292132744574008 12.873011745889862 -0.7351169603590565 0.023294965972198593 0.7111743335005299
Ni 7.864176280798007 2.931259549015311 7.673671447024338 0.5971435943046555 0.7776795163116156 -0.18332119806158106
Ni 4.788924552266767 0.24785699861084126 11.070816405173206 0.394872594613449 0.6951519899303448 -0.4073822970446855
Ni 8.80982665839673 5.156342443210315 7.963842588185438 -0.48071247319740434 0.9499470276621961 -1.8675768312489254
Ni 6.770611080132159 9.037248333815752 3.4354283094986218 -0.7280438555623591 0.5811261358304766 0.6859353564280832
Ni 6.982965405088183 0.7832098588206462 7.688198059240795 0.90261918911051 -1.337939350216044 1.5587991686530316
Ni 1.7985687284428058 0.046243201639970144 5.169025046355508 -0.5264922505356804 1.1475257640840562 -0.7160242053936636
Ni 8.916498733846154 0.7953104809716793 2.662796757189164 -0.34809420080732956 0.5289635948943083 -1.073399831502919
Ni 6.951006858211978 8.922556835218442 9.977455585234443 0.01734363348477013 -0.17995716668535458 1.3551364308206209
Ni 1.8927946591667106 4.2601375374777 4.568843169418193 1.7390314433766438 1.6793419979358108 -0.7748836987340333
Ni 4.467185295573579 7.06721975594363 11.498266323043575 0.10872449649161275 -0.7944050565964126 0.38913826323283307
Ni 4.883957007832973 1.8736213640519932 13.316571997485205 -1.8499909998463622 -0.19665519616632585 1.4161355962118127
Ni 1.455594039254015 6.6547189593264235 7.939897965424103 -0.19184029127618574 -0.05208823605480707 1.6676807595477987
Ni 6.715382458544547 1.3278606673544862 12.428337940108838 2.211712561629139 -1.0299137352948262 -2.159773192447371
Ni 8.482056795496332 7.958319726026676 8.270016831927705 2.149920210912691 0.7786115412075817 -0.1408090357309833
Ni 8.951536739211146 3.828390125305567 5.545703308897483 0.2355549585553169 1.3981401880756565 1.366555728401156
Ni 2.0517442084853252 4.780886799008829 9.429896704740802 1.2853505203757345 -0.6073313334709347 -0.7181260822280149
Ni 3.0337615244278333 8.26063823111944 1.9012310923182867 0.5741412198722112 -1.406350491800591 0.41784077337384806
Ni 4.0855249091193855 8.345561630991797 4.649233533074613 0.44431825083908644 -0.4663942568025193 -0.5083415477685826
Ni 3.136950878967318 3.3111419147944297 0.5082334623874109 -0.24205907822242187 0.39437225793826275 -0.21841521355123678
P 1.0687370665999918 8.251968089064697 2.8490233432766225 1.1586272733138563 2.018363289907595 -0.2957501399879745
P 6.77037278870148 6.8756792709520065 4.4079158012249335 0.440582437945738 2.2057442598608463 -2.736281627000178
P 4.864802042828309 1.292025302202218 8.924511741455522 0.6761463953621194 0.5982368273688342 0.2639959875048292
P 5.1682936749644215 3.6337335216050506 1.513003943937853 -0.06483807952130768 -1.039950550705538 0.3315712634516419
P 8.793961948146455 -0.004177432080921673 6.499772706043234 0.43856232219191565 0.4887438281423131 -0.7724756035131729
P 2.9152298677745647 1.9643737389209848 5.005427897633131 0.4201537377777409 0.3820070515046905 -0.7105282152760989
P 0.8164350163014652 4.126758491682059 11.837170811295248 1.8739256562850888 1.4308957852401227 0.7561388140263623
P 0.9467410191468361 2.931919432977194 8.443191463152417 -0.8617615316641998 1.1594058033510937 0.361827491233022
