# total energy = -381169.11896772555 ev
CRYSTAL
PRIMVEC
9.15791232098643 0.00000000000000 0.00000000000000
0.00000000000000 9.15791232098643 0.00000000000000
0.00000000000000 0.00000000000000 13.40353037772541
PRIMCOORD
 96 1
Ni 1.0508429503180445 2.840042571131983 2.2634274510273595 -1.0945260719585728 -0.06907680019300362 -0.05586930036379411
Ni 8.20273279263878 5.181821455710905 6.484387022664652 -1.130562653867156 1.2809886438626132 -0.26462796466187327
Ni 8.366503736371842 1.6177177150150472 11.789839377179 -0.3366139680818719 1.928012153716847 0.8413176619875512
Ni 4.26211065007293 6.446153655053449 3.0805604822005335 -1.6425484832565453 2.844600917633572 -1.174368595308513
Ni 1.4432503298414996 0.9985237979640224 11.850490398045482 0.6303550480596176 -0.2721504982911636 1.1535544867766392
Ni 5.215586677963536 4.856962836517095 3.965729474631978 4.601940929511416 -1.6354350121402157 2.3752676328073865
Ni 8.964084980649282 8.04609586250344 12.259364619481726 0.2463780173127499 -0.08242776757861288 0.5578314269685942
Ni 7.523527076992288 1.9885032638527247 1.2653432328485628 -0.10231370786926251 0.13884728401892218 -0.1110531446247894
Ni 6.025915380377906 0.9100189871649716 3.06087005519609 -1.7213389111928872 0.808962128474981 -1.7501200970906376
Ni 0.8096033957687493 6.684689793923607 7.061449048884255 -0.151765534742487 -1.162467730105869 -1.5537027279667306
Ni 0.5850587151458293 0.387230411761206 6.0554468998240845 -0.5213510726543731 -0.8994428482650575 -1.2127482235279758
Ni 2.238871425275202 7.8692474201599225 13.02469317296608 -0.9361427747892522 0.49044975508982624 -1.6333146233631033
Ni 5.679453246322704 0.690352726366835 5.294313585914977 -1.2162878612501182 2.1531109499358467 1.6890903355718265
Ni 4.44379447005393 2.679870686890455 4.493358922420539 -0.3256235305086392 -0.7361238043570161 -0.9037772139743532
Ni 7.319690267418364 6.861950342315775 10.649774551537256 1.4783871459528668 -0.6619865589219696 -0.5458652557456535
Ni 8.45002389556468 0.6775481335397049 3.6074398969805537 0.24343050464865174 -2.0836608255638245 0.35368866417597156
Ni 8.24340308068433 7.768693544289597 8.220760142789121 0.3416242768122697 -0.8742879462659847 1.1544911396582955
Ni 4.307314104653615 0.025733733260073947 7.694577645126927 0.24031767005128288 -1.3093905920440738 -0.0814772307398855
Ni 2.986633271592483 6.873361100907253 10.825857392421506 -0.12259174139200822 -1.8143745361943333 3.1547330373748315
Ni 5.715196577608849 4.8566606254147535 13.181286145122897 2.3473359393941253 -1.5225409576519455 0.8368894510128684
Ni 0.6958135894070422 5.8990508227794 10.836834981766293 -0.633440886073793 -1.9870423683071259 1.5162546104226016
Ni 6.772550803495547 7.379418170735874 12.99864990227391 -2.016248557557437 0.029339372394065602 0.26708491084279806
Ni 0.4280069315881829 6.287190615221291 0.8301583296841357 -1.4868818136874393 1.6302542392702246 -1.5385694718697178
Ni 1.0095957138043885 5.766196990607196 2.806310317363244 1.5764526200687368 -0.15315521600116203 1.573574012969361
P 6.6825010529096724 6.138319594624933 4.974586144922456 0.8689696193768648 0.24405862515095386 0.06362169061570334
Ni 1.5282174391607046 3.6416987307003437 11.400131750169804 1.4917694807970436 -0.6417180384809206 -1.9273338967029001
P 3.0711516432142703 6.991635536869479 7.066462090018264 0.497385305867395 -0.3532315220338949 -2.377600651815938
Ni 6.62726052656634 4.68550840445478 8.698113568433739 -3.2915704900525764 2.0541946977839074 0.4683673213684902
P 3.8292436144843487 9.379350509004462 3.230223662201515 -0.41501538810991107 -0.8496125550064916 -0.1022715417774174
P 0.2308251768043288 1.655942840505278 0.42373293396808454 2.132055157706812 0.5979689184194282 -1.059503018916169
P 6.1446385540375505 2.919670617643137 2.5933421535424808 -0.5250508901034635 1.9984686078661968 0.33365385701228345
Ni 4.227823426825345 6.4583153624446865 13.335694955221877 -0.673598175018969 0.6953319671516347 0.2962098532332125
Ni 7.685484754111295 0.04841330280405015 10.499414454418448 -0.8613115886109747 -0.9802418219909956 -1.8475664495652697
Ni 0.4493705091501404 8.973233734929286 1.4540685715141421 -0.151451603046494 -0.8107361896562681 -0.4257320031964668
Ni 2.7050549454189974 7.812706470285297 1.8102536609437998 -0.10094768075967131 -0.7253408548088992 1.619052199906818
Ni 8.28546537138309 3.58437020037719 8.106026155680398 0.8224953870747255 -1.980925713886427 -2.1131878884886635
Ni 2.018165741443251 6.255705713104517 8.85655643885338 -0.24422137598106325 -0.1460988233750129 0.9845358213806593
Ni 1.3823868454121575 1.989904424418131 7.5259612500529744 0.2779943586664503 -0.6249948121889688 -0.2505424331030846
Ni 3.2495111410695015 8.855435510401055 9.903346097235158 -0.5474930211570637 1.5139709565947475 0.6001751820421276
Ni 1.441830853451709 2.072325634147905 4.412602621127307 -0.34347958485345365 0.8296579662614356 -0.06868676384343654
Ni 4.968744312735054 8.465326766837842 1.036923839577124 -0.19509145122363175 0.40616205148433915 0.6691815340085121
Ni 2.9289567406060253 1.8892864431624612 9.198561417044639 0.8317642139711611 1.1520213379615643 -0.03725579902766487
Ni 2.873386529423773 4.24693598957046 3.574802013718782 -1.660099090545799 -0.18536008286848077 0.36183134788776394
Ni 9.013107284614113 3.6880652401294376 12.769368749465185 -0.8049458082267363 0.8466385599798322 1.958399250649137
Ni 8.021708342335621 2.7605335774793276 3.7785490757532223 -0.8866222994616214 0.01094750015043921 -0.2405392991437857
Ni 5.124273135495137 1.880971058891946 0.5199752647783227 0.28317898819118326 0.6450324475661342 -1.0845417070523513
Ni 1.7997037460983887 8.559378525051706 7.7838590468798765 0.30315106043773593 1.9556276014412708 1.0047788879004116
Ni 6.406124420861355 6.494580694725786 2.0060260130412746 -1.1877195626941222 -0.8721127929915368 -1.1839670376302254
Ni 5.268684252853895 7.968070450625922 11.000947515624123 -0.5071488130120622 0.7610344515557668 1.458096771134947
Ni 7.251555400708417 8.849318025056668 1.5069188827753117 0.19219201818864967 -0.9491895806708813 -0.3556077355755553
Ni 1.2115643092911041 8.48370669660758 3.5871734372992212 0.47998536522339275 0.7119243242926772 0.6865357090162434
Ni 6.61221407683456 0.4211806238401192 12.705273437823216 -0.7738794258392349 0.9986159536228093 -0.3631482669269746
Ni 3.5304300975651484 2.114909925841622 2.150851068031119 0.06179723581245486 0.5726744055186975 2.848385838597301
Ni 3.956364593624237 2.070603946655772 6.82660538020999 -1.3704748609499042 0.9361098646687877 -0.5059637915650255
Ni 0.16907245910112428 2.535432095795122 9.639242899106824 1.395345913159971 -1.1964600278909137 2.826955436637667
Ni 4.510106912237629 4.230900485321923 2.0479655877166607 1.6336208417496123 -0.7068939609576212 -3.641808476675786
P 6.174117873384233 2.8434859461162496 11.99219168918657 0.08858041744357002 -0.5827456737117707 0.584885859983225
Ni 5.566499557344145 6.03706055951581 6.889427742057243 -0.3561273555244512 -0.5291433150052822 0.4192173420064006
P 7.667223877200053 0.8362675729075505 5.865572243178384 0.7298603399458076 0.4889672570070289 0.5625830827209666
Ni 4.138323150971002 6.976689824171813 8.8794905983563 2.756444217990982 -0.8566650909778989 -0.7113494256258136
P 2.277096550765433 3.4804370549079446 6.1487220670840514 0.5845228202168513 -0.9087522985914415 0.3955089426458672
P 1.1972138608859315 0.6284031135514982 9.773545512987834 0.08072852549931904 1.744768345860421 -1.1434580217725856
P 7.786643052186304 5.681623671512256 13.182921748240423 1.5858679998453653 -2.366290369009441 0.21970230779377647
Ni 8.233375166833872 7.225455350960656 2.87344880322668 2.4842237856938314 -0.07154120257309615 -0.06064975247157297
Ni 6.91665970975196 2.5620816202744154 9.740559629062759 1.3609458384135464 -1.1432520764093665 0.33621981796724676
Ni 0.6399549039907357 7.871601003593317 9.981608699038457 -0.28472062164669026 0.6377775657759338 -0.25074400759092946
Ni 5.398900606314745 0.9223391264371343 9.692239736963069 -0.9329962587404705 -1.0128891757123717 0.3391521611226933
Ni 8.263239118492628 1.0253198490383912 8.175858899310779 0.32286807925068917 -0.49168028506281775 -0.852410429466603
Ni 3.6757203744943556 1.7668085255040165 11.439389888155315 0.26940970232123285 -0.49571434592287533 0.9818611027619734
Ni 3.756978529375721 4.011577646230994 12.255611707065365 0.42139043839831947 0.5580458569722454 0.7920103311119908
Ni 4.921636012418391 3.4053055432831587 10.325154953851664 0.17808360381172555 -1.0174194594825574 -1.834282330861854
Ni 1.5872951307125684 4.105711825654588 8.470092544342661 0.36588263513900215 -0.21497456330080394 0.03366653901450976
Ni 5.3376433316611385 5.537771186797222 10.970078940997883 -0.8329824026489784 1.2133945988627233 -0.46055219619944554
Ni 6.0210433710916575 1.7043424064410397 7.561641391744994 1.6149505190336189 0.6292556443478518 -0.0939527374990769
Ni 3.748525776422323 5.222720691561257 5.6029434689129936 -0.9672672641081987 -0.4690746318481599 1.6351401066076159
Ni 2.5281790293389017 0.7829602818279902 0.8093369005239562 -0.693285111924935 -0.33492115376048126 -1.3280449739204676
Ni 7.56075399005357 4.477275797028603 11.024966887721817 0.38526592476162036 0.16906365970130238 0.9014210550373508
Ni 5.807627385364696 3.629509549572529 6.085752262850503 1.0319017122591323 0.4978799861156264 0.7450599305043814
Ni 2.414794918487309 6.90648526930643 4.607262286893429 -0.2419888871061187 0.49078142739763214 0.19193645053441782
Ni 8.280281993082307 4.35018229162529 1.7388265248007582 -0.7040328373597423 0.45491402407706166 -0.14209433020131013
Ni 9.063173590568855 2.9918349657176506 6.072442153270364 -0.43625218600150034 -0.3468459302225252 -1.6173861250583046
Ni 6.742439588207602 7.993318814539809 6.6158488521836425 -0.7754531980842579 1.1360020797151724 -0.8836827572173231
Ni 2.2467563876726837 3.0973615879083383 0.3180460483140335 -0.2610052803076215 0.42854813248902324 -0.3950811110798293
Ni 4.200908322892477 4.012081331401564 7.956067175115609 -0.266375029259967 1.246807884215846 0.8076714346880154
Ni 1.2886830878615965 5.031842327739292 5.1602518251246225 -0.556685229179293 -0.2017632068168525 1.1006280710912526
Ni 8.481289007788842 4.79054049938709 4.120217958567028 -1.424563929484824 2.446911422396618 0.25210617804577873
Ni 6.599896684936054 8.239456020529492 4.078895627173396 0.24656982160858182 -3.189859962984951 0.5430308716206519
Ni 2.000591707946425 5.530747068145807 12.893056427324218 0.602837045145007 -0.8920879505618828 -0.24573318463989938
P 3.964286187670488 0.04463474823354961 12.665464909314954 0.4346421612019031 -0.6376407830877535 -0.7086497673064635
Ni 4.274446357795821 8.061957366420327 5.481374016144015 0.6869717681123976 -2.132588918723095 0.06213096500278978
P 3.2049670561666543 4.666542368304741 10.248995924478912 -1.094273846738451 0.7201863071911532 -1.0346527926417084
Ni 8.808263104699048 7.305229924066885 5.164915949804109 -0.442707968929173 -0.013588537317712082 -0.3836610421683457
P 8.655408392299085 5.33822943804144 9.150965000008133 0.7003792997675551 1.6962912241956398 0.029754605554613272
P 6.150398880806442 7.7764319800920045 9.007052073072632 0.36440245104904984 0.8461922164710329 -0.813884762587579
P 2.8356467732797284 5.347240823638561 1.5612033230857796 -1.347700543367866 1.3115963414461411 -0.8005934447953116
Ni 3.064860157538231 0.7616159358816362 5.225661297166171 -0.6778798331134583 -0.7564707434444842 -0.415631167317039
