# total energy = -381173.56100668176 ev
CRYSTAL
PRIMVEC
9.23933588263028 0.00000000000000 0.00000000000000

0.00000000000000 9.23933588263028 0.00000000000000

0.00000000000000 0.00000000000000 13.52270199061127

PRIMCOORD
 96 1
Ni 3.893705496919956 1.6804965612248057 9.263997265558055 -0.5621187414900384 -0.19303534002555142 0.6705187647626969
Ni 5.551695036547908 4.230072749898213 1.3748528710199541 -0.12592491953029925 -0.8581982397929736 -0.8649111330367749
Ni 9.258276268935408 0.9850425289519281 8.625427974897455 -0.26245615382153514 2.0743871135713823 0.3261776032398963
Ni 6.746636792362443 6.58234292617392 10.49580674234054 -0.6929462405282776 0.213840963916993 -0.21245976729875024
Ni 2.8862113823849604 5.603934240204973 13.032720421531808 1.4232806918970262 -0.6232320638615911 -0.8369161904857457
Ni 6.066529296572477 9.123917850190976 10.836822305074698 -0.5944570486114278 -3.955264518583956 0.8328337928862559
Ni 5.252340562107005 1.9222437780070971 11.322450101236452 -0.9774074378659943 0.6453834031476499 0.23734213236272672
Ni 0.27272763308623543 5.694063959284325 2.691977449084532 0.10769322701362097 0.0737873182947955 -0.35319578369995297
Ni 6.030948615057912 2.0862050281129076 7.34234018536352 -1.083276724296999 -2.1058383901021283 -1.6637706258601153
Ni 3.995938745675777 3.305224492581547 3.3458406120149484 1.0036314045595296 0.7259100970488079 -0.1415166033209692
Ni 3.704705647254428 5.702268489324557 7.588872454069051 2.9858223583116255 -0.20688535853476625 1.0776953735544794
Ni 4.571724902857341 5.8692879595241925 2.6061089115981466 -0.45856550478672 0.308125887944508 0.542541333578743
Ni 2.449458747777061 2.575280020398549 4.898841733001948 -2.9745490993906514 -0.5803308936226909 -0.13165256604269585
Ni 5.509914760825015 5.377358012528607 12.327281439242626 -0.3871250894575462 -1.4511337095535524 0.41858176530493074
Ni 2.122903669238811 0.16598928427679163 1.151976073330197 0.5092288354695423 -0.27570299152911226 0.6504399917349507
Ni 7.842403519514981 0.7237310189712228 3.2799586053653096 0.4440652542880159 0.778902332975123 0.20783152449811948
Ni 9.148845577723122 4.556008792949193 9.432747263321357 -0.9293175243373027 0.7969082826342405 0.45486285912415214
Ni 2.6881477444655264 6.635838679476785 10.1448256321949 -0.6353841258430929 -0.09784615901621213 -0.14016934526445538
Ni 2.116149714892629 3.16543334448615 13.316615639595103 -0.05881835568978903 0.4102056254260935 -2.2482631070596635
Ni 5.958872557801323 7.147023401927151 4.491876716468045 -0.47809946105458956 -0.6816287586329293 0.4530612871390391
Ni 4.974763201748115 3.6344682177883865 8.64979579869037 -0.007003942121658905 1.4088256928139606 0.429217390641906
Ni 4.01585875329598 7.318015786448071 0.6076184402306759 1.5861971010500102 1.6112273045457606 0.38382327877782285
Ni 1.4669385574523661 4.791713484228881 11.168832287369426 1.458498891669372 0.37460098884860643 0.5380971817644604
Ni 6.636790331046767 1.3556692384495328 9.472977178525388 1.3458352080243532 1.8079118112881252 -1.7855987496132215
P 9.474291935985665 9.339028062349405 0.03913043426395413 -0.3509656088178536 -1.7275951765152442 -2.211587091794869
Ni 7.8848767454101925 3.0781216227742196 8.029523164379624 1.537269522111372 0.14262526300411568 0.05443231080695141
P 7.689464796816825 7.365847827009199 5.860901414572033 0.25581062348055944 0.3497034542759784 1.4754851418147235
Ni 2.658332408384638 7.817614382017298 7.059553687575933 -0.26701703371934016 0.9802878447375827 0.5173607205480574
P 6.3116119135175195 5.712653502573679 8.550566257948152 -0.23869298996366636 -0.4651182183035732 -0.19168808196903758
P 2.996140997721314 6.389998437010009 5.505862388217305 -0.5321666752126383 0.694844743102571 -0.5470335650221417
P 0.1602304063780566 4.158514095436954 0.8948509063238489 0.9149049484563986 0.41130734313070455 -0.21180902108862878
Ni 8.581652002678288 5.704384297184031 7.432320227205652 -2.1296529760232223 1.0782409616453041 0.10564045824965033
Ni 7.744688305882668 3.375748341452146 1.9215489799676537 -0.42415977361334045 -0.642524593542616 0.9636924022727469
Ni 7.4206278479647585 0.7757272281011942 0.8774273671911126 0.3397944226923825 0.04997350370464942 1.6831608574612689
Ni 7.064636246106486 6.312397257046146 2.4677175228508297 -0.8336465185955384 -1.041447961186671 -1.6665980680065813
Ni 8.64082994739415 5.463736561341816 11.461882763109372 -1.672933523306306 0.9477381929363355 0.7060051305947648
Ni 7.8775961489330495 2.97465954237949 4.986793740673099 1.5802442259006848 -0.8125601302388845 -0.3410162109146256
Ni 1.961372364403925 7.882807134228873 12.409336902914141 -0.12889608634348126 0.003644281620806627 -0.11810362371366757
Ni 7.796493260765079 0.9637643389939836 12.225387274104458 0.19665545327664194 -0.06274777265118225 -2.083709933634205
Ni 8.635831466817839 7.7599794063517935 1.2589999176106352 -0.09707225696466508 -0.3582405452127121 -0.23000780348484257
Ni 4.6748266491624655 5.128745969372562 5.137639753850859 0.21917060366002256 -0.07828957704052324 -0.38182244629771017
Ni 2.4039919771374407 4.373263973505779 1.6082819139337532 0.0236052981237658 1.5313431293246078 0.7833683391662767
Ni 2.101708633301545 6.869298212198166 1.5257663313478194 -0.5369990636042752 -0.41423660096235754 0.7671351651368659
Ni 4.688159010477842 7.413236379460044 9.140494142246357 0.38882870241221423 0.49151573446049535 0.42448193283944957
Ni 2.426027792617118 4.830463257864842 3.931401062360433 0.3315105854170355 2.9898875295199345 1.6107557642259809
Ni 6.98533502838654 8.058908871353676 8.202275642338227 0.8702425725520173 0.8396515871390378 0.787472076922005
Ni 5.710371386672849 2.8558878828443723 5.01273040365614 -0.9843627861379046 0.07133885675430296 -1.7064015731567646
Ni 8.269750510450633 8.57991500757968 9.996332877802327 0.6651407882802352 0.4380175054320392 0.7426482357390952
Ni 6.20472203960373 0.45548538759953316 5.036841373918516 0.36503288554419716 0.34960780923837853 0.0794591718685922
Ni 1.4164825455720647 2.618409239123553 10.187557559487775 0.26291895239056656 -0.21290173993217526 -0.5535438553368338
Ni 6.687486565653471 2.937776114540969 12.808378265210992 -0.44819624573725386 0.7042416109364388 1.0382891038427149
Ni 0.2673715902210073 8.056109352657517 7.797149253594872 0.7716729051062194 -1.4939261221287303 0.34693977548791216
Ni 5.586536571212003 7.170537511107772 6.857781380334259 -1.4503482375377796 -1.367097716947555 -1.5267457397619126
Ni 5.632104974543562 0.24144324264003486 13.069217645140958 -1.421200926549862 -0.32007611832784877 1.1770409999343536
Ni 3.365760619635152 7.665996884314359 3.5407702672883836 -1.0109335946478977 -1.2671499382073081 -1.5787594138250425
Ni 4.448758584945797 7.3334085196091365 11.837921875419552 -0.17125398248440185 0.7925695460495704 -0.6722550307275132
P 0.6559263065767951 1.1673530996206907 3.1228649534339405 1.297063952157921 -0.0008991147755016773 -0.10537769150656691
Ni 0.360933722487236 4.358434839818196 5.886080452033339 -0.12652090124308532 -2.390281075497083 -2.2348856573114926
P 4.199998712419659 1.5996431351188691 5.658385340812071 -0.32665351443505036 -2.285568014157709 1.1840688533154125
Ni 7.992690552887072 7.74243390798873 12.258531542813158 1.1659916840987272 0.4522601313939824 0.1012641835588256
P 4.313189813233718 0.19023422490581554 1.571865072544592 0.37875563444692834 -0.1612459634290965 -0.30528199073780976
P 8.393631522589635 2.420604302601785 10.296401552887499 -0.10955162037859842 0.05947244433402016 -0.1884412928969658
P 0.36819214455886473 2.1461683163573975 6.288001715246338 -0.310812947858368 -0.1141227846890486 0.5941156061116091
Ni 3.3900138756662432 3.3866692361678608 11.197865051722378 0.7718927344265093 0.18743650578153526 0.368003795247063
Ni 3.6589986538884043 2.3725135606429917 1.297980674637369 0.60571848045786 -1.605129676288455 -0.2300656533059715
Ni 1.012261611720536 3.348187403265195 3.2066112155259097 -2.108987734364387 -1.554605185176342 -0.8030375354604299
Ni 7.926730935818133 5.388509890635093 4.52898281229527 0.10148529843069619 0.16177689623190203 1.0139245589554216
Ni 6.3819324970042395 7.1622405877112305 0.16008072914083615 -0.7452219100035423 0.3902736623888569 0.8168271330453546
Ni 8.173984796636436 7.75787283782795 3.810846211048553 -0.3444134095216327 0.38594058223114175 0.5708643488931524
Ni 5.8044093447240686 1.6895973068212344 2.591111622002083 -0.5765223185098781 0.8240830432768195 -0.22502320578605758
Ni 1.0626437089157907 0.28258508027083423 5.173393210941722 0.2203347991714528 0.18355465422862582 0.07034666804436272
Ni 9.099618397481729 3.067967592915869 12.33056694699297 -0.09992206770863435 0.7768061125677266 -0.5101091811919667
Ni 2.2227162120593382 1.4040279211416222 7.40630225806906 0.49138409397863764 -1.0135247524138415 -0.902131450840814
Ni 0.631305324987594 6.83392079606748 5.26149397191653 0.6833822509889262 -0.011558651371876867 0.2566359475953322
Ni 2.7565095887984974 1.00971155508641 12.415435788364094 1.484758082476217 0.06947197874889326 0.03804075682280546
Ni 2.059059860029347 9.221448277110671 9.379183138934826 0.7511627009680095 -0.9499020333568737 0.28316536134442843
Ni 8.169651548225549 0.3351208666016497 6.609382765831289 -0.5178700560843081 0.47266646296447623 -0.8391013710625226
Ni 0.77546575490284 0.7822769931299336 11.338595840251436 -1.0498199873004501 -1.2066271982319026 0.44075007387185383
Ni 4.182628761433582 8.602865517286816 5.254759420175173 -0.018212923463600893 0.7322116137868034 2.423781007026742
Ni 3.47325105036495 3.46444596350871 6.589504335221425 1.1986953449793356 0.7486286216922462 1.817083450485064
Ni 7.43897716852771 5.13441892144993 0.10653785522625348 1.6443963350985615 -0.13474431759414213 0.15252503861633088
Ni 1.6350390299208168 5.445747574868469 7.161446928780537 -0.03588977191807368 2.524599104187084 0.6892325391221162
Ni 6.265609261411309 4.230470041330341 6.661647839628119 0.7032000570458019 2.598598795603002 1.3918710672374932
Ni 1.2140302232279572 3.471477097923819 8.030077524517477 0.6730057928506087 -1.3398900461845118 -0.8419264992161436
Ni 4.67757073184484 0.15603944373588396 7.701367832910104 -0.15005909357434155 -0.4379583700593296 -0.7634518027480077
Ni 0.9826310623522653 8.190310702696223 3.065109866405234 1.1754667134686982 0.647823122937394 0.09174287433195168
Ni 6.522878562053498 3.9687566202496924 10.410059240150918 1.0465647135879461 0.0018421954150613434 0.09870799279587517
Ni 0.7048291861375439 5.987440583572041 13.448272476601064 -1.723699955225896 -0.0015909986362037116 -0.31226022182785573
P 6.324510026058245 4.480338634132187 3.464570694539727 -1.2589105810166512 -0.8423677005186203 0.06714744438077468
Ni 5.950409326363426 8.557417225318458 2.7201047585456566 -0.22805813595763952 -0.2509556093811033 -1.271676622433068
P 3.822839792631014 9.149307544504666 10.766883306149534 -0.3146086674553743 0.13288926666327436 -0.23806332679946743
Ni 3.3179655364165472 0.89707943407802 3.544637853183475 0.09223369792544116 -0.4904870360856649 -1.0517652839522789
P 3.0345396766033015 4.369383452540804 9.343875941754934 -1.2237085791942215 0.48415363766846936 -0.8789367578919056
P 0.4832726895094411 7.041667257728089 9.984608160886726 0.2887454265353672 -0.9786351396255081 -0.0020458267854351862
P 4.464770353594134 3.3956498704010873 13.101293846650726 0.30307007068815545 0.2893506642195339 -0.6436155126139496
Ni 0.5024720289504349 1.9429768471628188 0.9185941510281154 -0.4689705021701278 0.8427073432462261 1.7902408763709232
