# total energy = -340893.8809659487 ev
CRYSTAL
PRIMVEC
9.04094795375589 0.00000000000000 0.00000000000000

0.00000000000000 9.04094795375589 0.00000000000000

0.00000000000000 0.00000000000000 13.23234120334793

PRIMCOORD
 96 1
Ni 6.371644375207656 1.9033456100860608 11.341055773651851 0.11467197232429928 0.0039322451748706475 0.5770208554128514
Ni 4.311564887926716 0.3415823908637384 6.022316604060528 1.8198301599922657 0.14919777401531079 -0.13998808249158473
Ni 2.6841309335993837 1.7206732526378299 4.8500763073824675 0.7126282923382372 -0.17927145347223963 -0.9660331345907816
Ni 3.3465431229345484 4.385944768388314 4.680345163121635 0.729707359307711 -0.5194024335684345 0.6047136933424295
Ni 5.486408977673081 4.2873351468744385 3.2338251018266138 -0.2780370389789276 0.23572927934965207 -1.0423589030367144
Ni 7.412139975388037 6.111364518806908 2.463464895629478 -0.6444912303506837 -0.06531681892993912 0.9914037521450861
Ni 4.9789043940057205 4.452486146800538 11.535399995166681 0.25211337713463033 -0.3414851801312442 0.019853030170185165
Ni 5.6005961528560135 8.002495807937137 12.495895861513041 0.04708615485452536 -0.12171653787590651 0.035290961991810185
Ni 1.9485684327515425 6.245297124757816 0.3033102491389252 -1.2836965297120795 1.5571310369219893 -0.26435825594025436
Ni 2.475737078653493 1.5650423711177186 0.37810058864670776 0.5060833478620252 -0.7505062983309333 0.5020991664032965
Ni 0.38702942904343496 9.107941579654666 4.716919414783159 0.5897267330152941 0.32137195432113685 0.3737018740731048
Ni 8.632170724007267 2.1153739261897937 1.4128036533449257 0.39640780031105277 2.056814651905258 -0.337273970263374
Ni 6.857839444076427 0.7593564681991039 4.976696594466554 -0.5843294732591225 -1.059853203166736 -1.119655262926033
Ni 0.72883965180065 7.432852787608471 2.3725590660374847 -0.6038965967577729 0.521179065852883 0.12958591332165423
Ni 7.908695970841102 3.892697759959552 3.7916742052886026 -1.2585146311298132 0.7032010854870664 -0.7386774240168053
Ni 7.575527990424138 3.663663420378456 12.712998861815521 0.0926144783036276 0.24763451542767026 -0.23183045851587816
Ni 7.991963103337921 8.922701592930746 7.058302579301775 -0.7010583281124506 -0.2315414665205496 -0.3318646263223446
Ni 6.766788055219158 0.903370635436353 0.472255735005189 -0.03239178606714421 -0.8799384596835428 -0.9207786336283561
Ni 1.9218614719051148 6.331692425315861 9.411079146683855 0.7501121482163082 1.1628562237935394 -2.1633210576996293
Ni 0.10092681652570347 4.810824126877779 1.3655249190692624 0.3539686573102355 -1.0866543825199801 0.2606000744494028
Ni 6.555492055915886 1.9918564925121034 6.9912015661988285 -1.569458705249407 -0.057720751750236075 0.8318166644756514
Ni 3.325070871069191 4.480892805899887 0.5306430822774691 1.1577075897130642 -1.444640388519725 0.15465956846083043
Ni 6.185373720394199 5.902609025934863 4.764727948620638 -1.220162513714176 -0.4961138953541391 -0.003445535346439227
Ni 5.330597277189892 2.9039254241672605 9.12671601259092 0.6033888038834189 -0.3354803686980609 0.09544680554610013
P 0.09144647829159237 5.316619971344064 12.368375095992832 0.9969953873002506 0.07306843785089998 0.47449683130499576
P 4.070668824367789 6.1440656282793285 12.60512859710767 -0.08783839707122292 0.34082826327353555 0.15413840585003777
P 2.2303747867065717 8.394158722909413 1.214774341362591 0.6010329020567327 1.137886441222079 -0.29302657040922436
P 6.095940661256466 7.746103559242538 6.024433994118156 1.4553081526462162 0.9236641827062674 -1.1358519272905534
P 4.688934063867778 1.087110728861552 12.511166022944868 -0.022339544037464753 -0.18118281156233956 1.0370302917349494
P 4.030291949912764 6.200761414152026 8.49930494993851 -0.3549150803839049 -1.2606725580130804 -1.5410978947185265
P 4.754634634101696 0.9971713766272039 3.6836592854102927 -0.5492940789215444 -0.30071982528842406 1.2348316856905766
P 0.17265679508341303 5.832360858779568 3.6301603788047907 0.6359132588736854 -0.8450917843180027 0.5702439417003341
Ni 1.418877362314672 1.1519343271245472 2.843365537053614 0.4302913404323751 -0.3332188263573939 -1.4524362304150598
Ni 1.9841355227887283 6.54203912506298 5.0198074516433 -0.9768988736606916 -0.7270256987104899 -1.2340935219729714
Ni 6.0945664371370825 5.631534277438436 9.179169785589838 -0.5215572751279083 -1.0433696036894158 0.46397562005869775
Ni 8.498717288308512 2.228430982853497 10.147207610886126 0.7968668878733437 1.9033984689332253 -0.07031427214453051
Ni 2.549285191884939 5.3408768352408025 7.003759443184506 -1.3219589156273879 -0.8582725446743348 0.8630018318292041
Ni 0.42501949318584853 0.1400334377651157 9.218628099712435 0.09102167989521098 -0.014752732829142336 -0.9295769486462764
Ni 1.1819593159434323 0.8931019265232275 11.487233439782312 2.122881975847976 0.06434828436908273 -0.8132689833804511
Ni 4.044956367818283 7.151145884083135 1.3702488144796412 0.7935846175776462 -1.2720201218154157 0.10358383283093774
Ni 5.658159869751479 7.825672943944438 8.12385064681643 -0.602501259072143 0.646867443892344 0.49465479431010945
Ni 5.240323409873853 2.7125014289061173 5.021527944076975 -0.6183474820757803 -0.1352060877219091 0.2076767440878101
Ni 0.8222010029112247 7.558919768665544 6.929406685567368 0.28877499422172204 -0.4511082771777263 0.27993168489847925
Ni 5.044957561217637 4.619707523853866 6.892752873562092 0.12438817117079867 -0.21761920001250265 0.4926423918657709
Ni 8.140704782364809 7.185266422415707 9.185243494559586 0.6892610783672065 0.06244026871309246 -0.43787763742006525
Ni 4.637020939568459 0.3762336328529409 10.37260748930938 -0.06865951014992691 -0.5132927211262709 -0.3721119038781656
Ni 7.972280959207023 7.287745569739424 4.853411513156417 0.8809185642086248 0.8687713873231295 -0.0230450547449216
Ni 7.223364977935967 6.0317499293642385 7.038242523538046 -0.13746120230467296 0.9021157671115303 -0.7371651011373369
Ni 2.222382588538582 5.537761563186861 2.759048750476136 0.5373315072430295 -0.3185676521031223 -0.8804506234332709
Ni 2.4209218099967926 5.129734532056146 11.262535138935796 0.35460911910771187 -0.6314050865906868 1.4164515847903347
Ni 1.203711837201559 3.426031139103064 3.7249836512318404 0.014006598691737166 0.2675297116897005 0.07791933818529806
Ni 3.8536137410905247 2.603359102793024 2.5700251269498353 -1.2338852626169072 0.7885830505979967 -0.01879476410899989
Ni 1.1639407062728397 3.4100467427670837 8.20157748628458 -0.4149241139476854 -0.1298409667552538 -0.6097833945558531
Ni 3.5875115140787064 2.6498566991481964 7.146178787167418 0.20448523373370592 0.2895180430353336 -0.9195483607656809
Ni 4.119941991806188 6.796062645341275 6.088703382259321 0.6874404802186999 0.8183739087071841 -0.17599715359634205
Ni 0.7493065502313011 7.127955852068548 11.367679557775263 -0.10811308815985897 0.362661299988227 0.44306843759238534
P 0.1664212531417132 5.690490300349593 7.8469508154244885 0.8968228941437071 -0.5508837920061673 0.735425749848727
P 8.564996479224275 1.789709932740512 7.9565542298934275 0.21325758060969727 -0.43717624047766646 0.09397202077278653
P 1.6591676823472923 3.091344279396255 10.407091473757736 0.14300141539661176 0.1482562360376479 -1.5323342895932837
P 4.220965546477138 6.079630790786948 3.662196074493089 -0.2501086879997757 1.0533735089796632 -0.426178346705266
P 6.82853773110985 3.8635587840597427 10.509006465916652 0.4326135608076485 0.8113383420166415 -1.2899383968567333
P 6.371499720037195 7.679191501956007 10.289931634821823 -0.17204074005175532 1.0365286695081826 0.4222407022137567
P 2.478467444995951 8.49152069357806 5.571781746994926 -1.3778117609309497 0.13681225586676438 0.5002533714438094
P 6.93684828999279 3.914703427765986 1.6121891075503358 0.16530393554855402 0.9057173684198595 -0.10906645321206378
Ni 5.243343086557233 2.9927165759860714 0.5279000586075958 -0.17412616182587431 -0.465951769948462 -0.7594143994538405
Ni 1.5843447954261558 0.9588015926623292 6.823322912214717 -0.7420165156923673 0.7023150833376872 1.2704944291995086
Ni 6.927816382787109 0.7126066293904397 9.242208700687268 -0.8735621238435536 -0.9143904707138252 -0.46364549041278863
Ni 2.7878396498720224 1.4886554001659686 9.059866337846652 -0.6785714598638443 -0.042908883548384166 1.1211652718126561
Ni 6.360551131822901 1.9969375053745584 2.5886693702326737 0.6805686927995311 -0.032348591534034604 0.6347734888422875
Ni 4.343859154732214 6.825509013478315 10.569333096567933 -0.3259402904181096 0.3669519569437809 -0.23864233923138903
Ni 8.410694617082777 7.00896793341593 0.34443119362701174 -0.781883527090634 -0.22772492098793684 -0.47321385082751405
Ni 7.680945445897851 3.9209959276810546 7.967722513147859 0.3460427175949395 -0.4883782172727783 0.7242064840941398
Ni 3.0825112730499584 8.382098098072198 12.19626256598828 -0.07541894036094753 -0.1428749171210765 0.9395520575811174
Ni 0.21594756712841995 4.940182013062846 10.006296297055272 -1.2188039428037525 -1.2456182347831193 0.4498306960168834
Ni 8.560611619369665 2.3513969186938035 5.795738690092828 1.3065420668516852 0.9030318511678963 -0.5163446205787172
Ni 3.3836290922615784 2.5216108495860503 11.508644213200224 0.7865611350719615 0.3033359227550324 -0.19748797648026634
Ni 1.1328308036754944 3.322783511186271 12.5040860564456 -0.5912205439520011 0.48341727372307713 0.8797471696083429
Ni 3.092176046626408 8.2580924531942 8.154814086053683 0.10391370536653072 -0.12601927901631846 -0.11164604101378192
Ni 5.694477358485433 8.055105085244303 3.389781457480263 -0.9565501348010107 -0.6580779678961827 0.8238120490036198
Ni 2.9241681070836965 8.14428499783373 3.404787623225998 0.9442047258617804 0.37801644228805864 0.02723929533192728
Ni 3.373168715247592 4.084311615131926 9.171494924702047 -0.40961941390532036 0.8868187317431437 0.3057679292352928
Ni 7.3371724332964385 5.993000425576904 11.333116917077968 -0.48189363798969914 -0.6680551337135527 0.5877546968905878
Ni 0.2739723723797314 9.128735760408487 0.4916675547862876 0.7148612954338139 -0.08572700715517495 -0.31813596388234244
Ni 4.446103237403931 0.43109772262967166 1.541144432862687 0.22237394108866865 0.12093235141171431 -0.5692139577739229
Ni 6.148531856667322 5.726735461498317 0.4122744685733877 -0.7983586419275218 -0.47711421432318474 -0.3683652923515398
Ni 7.972977112214868 8.64304698463633 11.520566511530685 -0.6445992166834577 0.6153092094700887 -0.07453705197662647
Ni 0.1424238644569896 4.928980278300245 5.606371510536683 -0.02477386451057024 0.0258562989414716 1.427528925650419
Ni 7.8596217042620875 8.84651352283838 2.6500673532401806 0.4182500929971249 0.7005158253454193 0.1153420018081304
P 8.448223592869345 1.840474856624294 3.5430788702818696 0.2798159852562213 -2.060064269190807 1.207485689577456
P 1.906139263065596 3.288473112942468 1.6289275189623456 -0.6659640555124788 -0.23152166902620772 0.2177510976046766
P 4.797425441713796 0.9804908272833788 8.089089105259752 0.2522331905419462 0.16626064303486848 0.9022188683482978
P 8.55944533705782 1.682800720821416 12.286771497956318 -2.7127838009885537 -0.31401757083859466 2.044222159952228
P 6.4429774561414135 7.775721705394501 1.3672445074081219 -0.28699759060632507 0.25859872774865783 -1.138102928108259
P 1.8152234884306337 3.396105600713871 5.965920073571722 0.04657707642859075 -0.28682018448819635 0.2303258489458936
P 6.878814443793325 4.0518274884151975 5.777994925246113 0.10166810386546361 -0.3189103801545217 0.7315912065939852
P 2.1222812105793234 8.384023820028965 10.227991194925085 1.5520052856596496 0.16510184684007695 -0.7922476439337776
