# total energy = -340896.8346351344 ev
CRYSTAL
PRIMVEC
9.01506711304305 0.00000000000000 0.00000000000000
0.00000000000000 9.01506711304305 0.00000000000000
0.00000000000000 0.00000000000000 13.19446197689504
PRIMCOORD
 96 1
Ni 6.362762277411363 1.9477052588223231 11.331192966184817 -0.24124275296871356 -0.027130280557888763 0.6172642763139304
Ni 4.7036743935540795 0.35833629831439484 6.041229990756966 -0.07841041888910368 -1.0943172983818767 -0.25825702813852297
Ni 2.9106496569760214 1.5500236014169582 4.901716487306835 -0.7062527278291966 -0.381578191497388 -0.34531972338598593
Ni 3.413068364587347 4.218600675148837 4.804222142053145 -0.11211758133356174 -0.08952812606882 0.1269649307590394
Ni 5.082505545538489 4.629011607376961 2.6468615799690864 -0.03630886173336328 -0.4718524517036132 -0.5432201048133225
Ni 7.246761732489352 6.115578151090377 2.760716469095542 -0.2013978530576338 -0.43650209722877725 -0.972017120088358
Ni 5.028334007004523 4.8108996022948 11.195884020243064 0.18324997850401342 -0.9529120238277912 -0.008175593832256887
Ni 5.666907273856736 7.637835345670155 12.317083414767955 -0.6584772602171305 1.235802277133962 -0.0011752512550237825
Ni 1.7421617276899513 6.4724666296196895 0.3135449371551321 0.7103217556922476 0.3526707644344184 -0.5615523274636072
Ni 2.9391823445213703 1.59963351597053 0.5721763957494476 -0.09805416126196016 -0.9360239898232009 -1.1942756186450851
Ni 0.6252670277315376 8.978862645234402 4.583505351392312 0.46495701013536056 0.29161606321494293 0.5073233909167134
Ni 8.544354438501156 2.2875462453616664 1.4137473387694799 0.26344114344262376 0.4340297244288848 0.2941347158717386
Ni 6.96417543745096 0.6661115924903726 4.740598305607236 -1.0463543973493528 -0.3640782349404117 -0.012809750170158582
Ni 0.6382415123809109 7.23947755822817 2.3365016660397906 0.6633415302879673 0.685866965083993 0.4689417058147214
Ni 7.567698123204811 3.7131168447048353 3.7481241534808545 0.44706676011850105 0.18919642589543545 0.05409832450630038
Ni 7.757294000540114 3.7565063629215065 12.689681549321447 -0.5651079060253494 -0.4404880784597188 -1.054620751123203
Ni 7.932781297777954 8.912511750974128 6.997946780520039 -0.5259428057901135 -0.5807828935584449 -0.9686204357019834
Ni 6.822620852984271 0.6324376121465678 0.5150127564267608 0.15744021652976112 0.10032033158831755 -1.0157672685911152
Ni 1.7758330035136094 6.619060636625984 9.148775926450352 0.6062818091604977 -0.12935142871334498 0.24177060044772553
Ni -0.02220320889587364 5.089961006075615 1.3060100742143592 -0.1984626816887098 -1.6218264202178458 0.9222750156682246
Ni 6.318516327814974 1.9848924108364039 6.8290053235433925 0.5595131855463912 -0.09983542153209903 1.3896498912164583
Ni 3.342182891548143 4.340808925501048 0.4579852446181135 1.2466222505676012 0.18192868858942862 0.3486019936816835
Ni 5.915407599982342 5.577901515836126 4.783098036695716 -0.1883091381944757 0.4120794454100387 0.07402848777132412
Ni 5.293746599112776 3.0558553436404563 9.083938661965389 0.12868037078824934 -0.46223678299072 -0.026818919965057038
P 0.11742575722652243 5.404911392200201 12.41152886430985 0.7910528522947279 1.2241919465885434 -1.0263211328475614
P 3.8925978166923088 6.186842256950087 12.546389761414003 0.3702134013038721 0.3046978360995655 1.1792117823334272
P 2.4025424419899357 8.497548209832766 1.461656110150917 -0.4617791266280112 0.30897640887026145 -0.4981196129302582
P 6.301793378242582 7.720458436145075 5.817754589546725 -0.7088132894675212 0.04310505871959028 -0.40102832980219966
P 4.809114618998124 0.9001968262352485 12.673861007971261 0.41188301312851644 1.2122136911807446 -0.7534093309103412
P 3.9604181668988367 6.2136620817359995 8.299659372221644 -0.06814811773114714 -0.0962289351277633 -1.085132546558815
P 4.698544820342925 0.919645030608576 3.787430747783058 0.46663722605126084 -0.015611481285011823 0.11520470489931774
P 0.25233804021345985 5.662625116958145 3.715019925381241 -0.692307578503014 -1.2020884298212846 -0.290184472974739
Ni 1.5617251585840555 1.3080141236429 2.681352325397128 -0.20952048216476818 -0.923107795982165 -0.3484924646870127
Ni 1.973461305683954 6.22002671914738 4.874363872052067 -0.7120824471370962 1.029319296243937 0.05661260628772185
Ni 6.027446854583794 5.757968467188669 9.035672893924618 0.061980812578170674 -0.4698763018138489 0.5728386990107037
Ni 8.548843941944309 2.191256313079874 10.269394750650465 0.5162109232143304 0.8597234181882485 -0.46947212439689473
Ni 2.370079185165038 5.178254573790986 7.026393824927416 -0.2868446099682286 -0.5995357486859157 0.1459566413701938
Ni 0.5487047669048755 -0.04503927550602326 9.091023603242448 0.33568348584780255 0.8355409074047738 0.3463288813767907
Ni 1.3881039802472857 0.918635343087224 11.583642793230998 1.1382811055573363 0.9890195681836258 -0.7355550763377396
Ni 3.8975741337618293 6.797063137600049 1.54497876983706 0.46336035507220197 -0.08599928697995513 0.23772291274091314
Ni 5.751865266724783 7.949630458290516 7.994867163767231 -1.2119295842814226 -0.3503238614687966 -0.8222423905236548
Ni 5.3264712928851665 2.9099825420065564 4.749016575316508 0.41782097587950623 -0.3450363878176122 0.04558745882181181
Ni 0.8026339664711802 7.60049493751444 6.976188915941618 -0.091389604757591 -1.3819651209776909 -0.11107551322229257
Ni 5.125669687076288 4.725130253382809 7.024269875105714 -0.0929608058994528 -0.24952916134722186 -0.07076164409459425
Ni 8.243683918749976 7.118810884359451 9.066350265946124 -0.7435339807781581 -0.5170038514292709 -0.19717790143901523
Ni 4.624540134068116 0.3333041613453046 10.283921629863917 -0.3148647493302384 -0.2869968192753767 0.9210899942211879
Ni 8.098865879973204 7.31271596379481 4.691977343920559 -0.07863076243002587 -0.5487423201831323 0.4573061784583221
Ni 7.3434753729274265 6.066698456976353 6.76094787707069 -0.3297288109262644 0.6040385216522759 1.749739573822767
Ni 2.1420160162796544 5.166363700213634 2.528639792312784 0.45125688694044863 0.05032137396237141 0.5208839032099674
Ni 2.5699071637211848 5.149938247857355 11.337130289413052 -2.6447660381876834 -0.35060436882369295 0.23982350402368374
Ni 1.0186935734397764 3.3186986416095543 3.977958783062181 0.29813895193512524 0.39281725474631707 -0.24685084318411035
Ni 3.7224113789415667 2.5536529976408486 2.6749921955193257 0.5706357778221139 0.7391574489770173 0.2589458266754314
Ni 1.0666447156368417 3.289210356945783 8.272782752512654 0.18730332263778066 0.3108869956294129 -0.3915993231788159
Ni 3.9856242946640172 2.649942929922641 6.8774685215548566 -1.3949149962701397 0.3287055118680726 0.5132258724440774
Ni 4.025524981891731 6.816463562117455 6.034593098317506 0.6787604359461988 0.6025323694203946 0.06962213117351235
Ni 0.6403384170011472 7.26720790479673 11.32152160214101 0.9026819240276455 -0.24358271395579986 -0.16454546011597468
P 0.3297774670742965 5.542769799133368 7.886197741268291 -0.5653081949616136 -0.1307755627543812 0.3184725212861547
P 8.465445555694064 1.6399939716231453 8.038792176972905 0.45099771974179104 0.9419192722617132 -0.021578240391408
P 1.7160721233435878 3.202818968400102 10.408847021456625 0.6151827111945535 -0.5817010344973401 0.3146770587994645
P 3.86845546685141 6.099891934240802 3.775081007287522 0.4537038058190444 0.23275477010236045 -0.21903690629563566
P 6.829914042312609 3.9242857777418827 10.41301649001578 0.9110881458134696 0.36184291785198974 -0.4325667667301131
P 6.271610933407881 7.790658764080504 10.1639707523273 0.39928435052789946 0.04045399424998839 -0.32819411944929283
P 2.396051593638387 8.431035044363703 5.854369284796467 0.4598711109720209 0.4351664091364893 -0.7980182278689676
P 7.012577333005773 3.997109490219396 1.5995514788594203 -0.9450632172073337 0.3207559180036927 0.05549109108876894
Ni 5.425519835716368 2.9527590356566926 0.37341489963772834 -0.3154684443525083 -0.26990309701788356 -0.05005192235106864
Ni 1.4283472400268868 1.1375211736088902 6.97423625239586 0.051884604684433226 0.15447393481258556 -0.019719589916114423
Ni 6.827939742605679 0.682537946353368 9.085297232585637 -0.22898090488222497 0.8522170825088742 0.9175025339802457
Ni 2.6041193435741388 1.4843217919918383 9.226544403262343 0.146570877915425 0.7331739777000728 0.29858683810582126
Ni 6.20477322552124 2.038162442654877 2.61505011249949 0.7015023576284047 -0.44866495784355637 -0.5091810129507425
Ni 3.937150278571966 6.835151796329622 10.422252426316003 0.5973030027006552 1.4628065179057903 -0.729527382086421
Ni 8.116093673306272 7.146036387167334 0.22747899253374426 -0.3474246855441307 0.1300065457988406 -0.06289432553137554
Ni 7.726489516071723 3.8468733960825108 8.196373747827627 -0.8080339602337567 0.10085897770060694 -0.08856807614839585
Ni 3.1804165265201045 8.365964289639427 12.361864859353348 0.09737333314485165 -0.05603616495896155 0.7246515420513585
Ni 0.0706141195178402 4.80914166419959 10.24978788109521 0.01806122837708502 -0.418180416101454 -0.21192806316499632
Ni 8.499792961554343 2.3166739273392407 5.812160740377092 1.00317246264524 -0.3446836324638838 -0.12569994800368675
Ni 3.624895397526704 2.792885834731189 11.592021396644789 0.19086121519236807 -0.701463019750037 -0.3960653293699695
Ni 1.3489876038620503 3.447713267663737 12.70358819191464 -1.269604827505704 -0.4802010807786245 -0.43137943129023126
Ni 3.121196550379379 8.444927262849447 7.93095394366565 0.22820648861004567 -0.9109886441211279 0.6686284897185195
Ni 5.413061012908257 7.80874298879329 3.4664222365303607 0.5041989863551187 -0.3074355467457028 1.055602141199866
Ni 2.8256375737050448 8.287785627271887 3.6070888368822893 0.9986591481559187 -0.34588048098546237 0.17691066654954693
Ni 3.279627340560094 4.349923158394681 9.289890575639879 0.36924846628744146 -0.4322505210412749 -1.0247815562745834
Ni 7.250548060694422 6.193242954630087 11.187004179095458 0.36584046904715706 -1.4499859691023542 0.781397588593151
Ni 0.5242054204046415 0.034013848375545594 0.4905756138898959 0.07887578856129641 -0.03640862053602117 0.22282954056884846
Ni 4.649647096094593 0.14296454096971967 1.6467742036303672 -0.3997810876586599 0.4192577083260328 -0.5197701013204984
Ni 5.827123047334126 5.499407326118162 0.2491773576689419 0.5724571473015689 0.00696846089803316 0.9278630512789634
Ni 7.930888133675419 8.788897150145747 11.316692230666115 -0.4643733697177487 0.7590043084996154 0.1587188261318686
Ni -0.09412992219147144 4.781816995653001 5.7470061455282755 1.9829322027934946 -0.25684163584823505 -0.20124641508143404
Ni 7.866953277412665 8.694311065556237 2.5791872738504686 -0.5603230830421962 0.2869605667208026 -0.2986128062477502
P 8.539251910491464 1.5339497366797203 3.5224995602608784 -0.21419809014609562 0.9677105222932044 0.42357459053383184
P 1.9089314549889753 3.1888636444442726 1.65355623865102 -1.0889380363478343 0.46715427489699546 0.37737315227710494
P 4.574118863470601 1.0498857057958293 8.231972445009008 1.3252818093530336 0.8561531843384868 -0.5467090918031875
P 8.67937309928052 1.6792996644186342 12.416634998346401 -2.2478771844751546 -0.3064027346058142 1.1901680242346147
P 6.272458349720444 7.567896454682218 1.2895936369252343 -0.058115158975177335 -0.00978664707311863 1.1043104050388464
P 1.882832835575457 3.1402634174120525 6.061311954351284 -0.3422331140408622 0.40179708964742417 0.09560261439767406
P 6.970314698183467 3.899305026655576 5.981630480289017 -1.5944272022692862 0.6022891430613369 -0.23799622100695786
P 2.368095870390954 8.557570526950279 10.276071309385406 0.13342791277556376 -1.0102175424174795 -0.45939108601180884
