# total energy = -340861.5456597254 ev
CRYSTAL
PRIMVEC
9.35426327423711 0.00000000000000 0.00000000000000
0.00000000000000 9.35426327423711 0.00000000000000
0.00000000000000 0.00000000000000 13.69090984526676
PRIMCOORD
 96 1
Ni 2.609848841567919 8.72266353090223 6.432961547761376 -0.8351534421583682 -1.0985948427113081 -1.0698668786489962
Ni 3.9622321176882207 4.960266542129014 8.408053460978877 0.5006549777576023 0.17370013003204923 -0.19952660417684992
Ni 2.0478166339847017 3.5676131620917024 1.5278234215265567 -1.424955765606604 -1.681555717757678 1.4552731856432228
Ni 3.3549439837982673 3.8564915242671085 11.102534065189946 0.3473845763348146 0.29398044968206144 -0.6680888151649655
Ni 4.609042014423556 0.7060831867400132 5.016130203126086 -1.465736804178708 0.5910220547879499 -0.2273731940754729
Ni 1.3353117454237757 8.730464986573958 1.5772887663612027 -1.975729257287152 0.23402258107119053 -0.7926392229452414
Ni 3.2927942577995175 4.506603475981005 5.867869560621537 -0.8769112428214445 -0.036674215492582 1.9573409845879515
Ni 5.977299475525778 6.919872472295502 0.18050734988751946 0.6873430354088872 1.583537809050292 0.9454082592515785
Ni 3.9059007435213826 1.1741845584387565 2.799900346397721 0.5468384182922001 3.2898172548068954 0.09996963311711815
Ni 4.788466140609893 1.9542833542945297 0.47186833356805324 1.442824932577541 -0.16847976217337435 1.2768872200997299
Ni 9.024759467255276 0.45754227917806445 5.812681277441612 0.11118324244475046 0.1986316031664063 -0.8452995294534345
Ni 2.5739565329199356 0.09786710992124058 8.63799248035282 0.662341114047911 0.03831123687537273 0.06442618879486968
Ni 1.9712987594106837 6.12983944871386 2.3382019679930997 -0.8931773269713198 -0.5887612837782312 0.2858781322899012
Ni 3.3147954853053965 4.181505405938778 3.433419705700934 -0.5271471105108598 -0.33992426340202747 1.5921589750604
Ni 6.085228966581405 9.266408153547525 10.221413901796017 1.0706459229068657 -0.7646291108855605 -0.156796155187859
Ni 7.547899008132962 1.3583793589567257 0.13041807568440286 0.44250330911753466 0.6901931032631726 -1.2615223076078852
Ni 7.808723934385693 1.6838703080615578 8.076459790434914 1.948958159840895 0.4915694705165663 -0.05489253827282159
Ni 3.4420789473260154 8.94840061515898 13.929816211398556 0.869954094777321 -0.2134804952537807 -0.19821302757174897
Ni 8.897578902132006 2.990455110598193 1.6526439059951779 -0.06554256178750002 -1.0824326311291488 1.0398081115904028
Ni 4.502534371404025 1.7199777647676349 10.452489464172496 0.037497996945458 -0.07264574849118458 -1.0144567773098077
Ni 7.087744083188574 8.593827261157983 8.00674527162834 0.688204097857602 2.0158901457767535 -0.754026909889682
Ni 6.714237700075376 6.13270185331284 7.106458222537325 -0.2791752663484289 -0.3183349672670259 0.01083077206691683
Ni 1.3177537930306913 1.4393030915899565 2.8890287034550193 0.4963578930441452 1.1760382697014522 -1.1522434812746996
Ni 8.381083248757385 4.2751977081066705 7.961661463768078 -0.533767701151171 0.7161082804670377 1.0128547229300104
P 9.274555716964882 6.54665607134756 1.0921083805552174 -1.9649841029555064 -0.5453762319243769 1.1199666235188648
P 0.7214241787083983 5.837724511403661 8.553573994915084 -2.7480616503542414 0.44049270644540905 1.308202485273244
P 8.977885253381142 0.7496497330775477 1.6710306461250912 -0.7736359423698612 -0.22364997958761484 0.38489002947944034
P 2.9435434796704794 2.3436639223896485 8.86010011041217 -0.6495694162045393 1.5231742203605703 1.9519738067387675
P 4.879529894763691 6.672368017117759 3.362404944282404 -0.24620729606284047 -0.49910511677197916 -0.7154624193529228
P 1.7182191632493078 0.39351047538416867 4.64701003411897 0.6447041176924381 -0.5465584251579361 0.9787858062707595
P 3.2606904258266534 9.207027289513801 11.390727695284811 0.755800456850337 -0.8085443242112721 0.6919810484015309
P 8.352870790356988 6.827555246846726 4.642533083657952 -1.4967036848738675 -1.0536483599076047 -1.5351509331064723
Ni 1.8071688538757547 1.398041435753038 10.54535484945624 0.13119696656251598 -0.42902301524291275 -0.10271042908704892
Ni 7.741850305372289 5.809268842154986 13.19090423727254 -0.5140797358039404 0.29547323217750404 -0.010199566240821144
Ni 6.553821437108404 3.7145405772425706 0.6408465538207956 0.696448083033949 0.5335602131260553 0.7630100872248988
Ni 3.852282105739198 6.7906246149618585 1.0299913944783512 -2.247560424565684 2.645860299693127 -0.0606572086707407
Ni 8.94962602366377 4.698365875585818 5.6044151509283715 0.6182682920984126 1.1793776184873301 -1.6297364190935415
Ni 4.7554362365608895 5.090262740534287 1.8748881083001 2.1211968748360692 -2.117860868484301 1.3508149206271318
Ni 2.6369294340974765 4.662670006469137 13.526085267828622 -1.1471444694852373 0.982623691959611 -2.2616572689783823
Ni 8.319653801040078 4.999563802652908 10.496300156784649 -0.14800683903100317 -1.0988077300530625 -0.5059941305823286
Ni 2.9078850276073798 8.598513747119057 3.0354940179941567 0.27830263393548843 -1.9902559901484174 1.7679334711229746
Ni 7.295427439092284 6.325128405618723 2.344376717260374 0.24265557415584016 -0.6032962441696126 -0.22929637924011476
Ni 1.5518816515530744 7.073001764077492 13.74498906267506 1.6332223207596128 -0.6395588260460727 -1.7350408341600116
Ni 5.018291037970413 8.835120485441209 7.098914944535309 -0.5008724930850471 0.2599547275559201 0.2122998446821182
Ni 8.599598841672918 2.1436417082067356 3.9413664977585383 -0.7394433556485523 -1.0235451127643211 0.9180159832815545
Ni 6.3140061864416435 5.736707820997204 4.7827965215659685 0.3212639679883628 0.6990322988213574 -0.6835020643962422
Ni 6.441738653105239 1.5880920051565004 2.23509553514412 0.8847965591067922 0.5136932989987991 1.7490659447945105
Ni 0.017887222464601112 2.7419965205541232 9.823077561926185 1.956410245243566 1.1370292354281064 -0.5216765743145919
Ni 1.0607173434530794 2.869616736056975 12.26995829747288 -0.6046962098409328 -0.24668295014767835 0.26162414483854296
Ni 3.2638241040640974 1.700399291481153 12.554290487638141 -0.9543837232773112 0.673642140883027 -0.1758868532707229
Ni -0.04042538468937358 4.492787228946064 13.854516261918613 2.0232409297148704 -0.19640065695335854 -0.6093918155443893
Ni 1.9946657093722848 6.121588988399156 7.012785564322562 1.91092665898947 1.7914292402520695 0.052761607972747836
Ni 5.59577648868276 7.020514992166146 9.846105887552874 0.6903985344057595 0.303361119566013 -1.7060717006211714
Ni 7.823615921711101 6.9529210848712975 9.025129896085732 2.172415820912046 -3.25331993121181 1.3255085806518592
Ni 2.5872302326779466 6.270303067858537 4.858356519568302 0.22287582042575163 0.6061905349982721 -2.367723501911542
Ni 4.441815847704764 7.2853528974154855 12.238920851527084 -0.9465503432758213 1.2307981390511513 0.01073795524279441
P 9.39682529380559 9.168487724324931 7.862799060221572 -1.4325965699813135 -3.4916151715164254 1.5141105674964053
P 6.730373804432366 0.6538835907149042 4.418001763952865 0.9982133188677518 -0.30279033466420757 -2.7599730570798466
P 4.605786730761972 5.132029526594555 13.464243297095578 2.283098983791926 -0.012700992506436191 -2.081430650681725
P 2.74597208249715 1.418096976472683 1.084071197445927 -1.3001454192967221 0.8218340993416428 -0.7388139495946695
P 8.858870960202019 0.9679978846783037 11.820540196053681 0.5832452390560084 0.5814696352128244 0.0840763589256294
P 1.0535145606386547 4.230138221331237 3.631801182084301 -0.12547086271201618 0.3281740648446348 -0.8258470771557777
P 7.642910261439599 3.6208482750746773 12.128722016171746 0.34177828589163073 0.6787411526724891 0.5975238604622096
P 5.2553093638819615 3.2731409504058733 2.9516919785141744 0.614430149299245 -0.2401590329862316 -0.44160985076898784
Ni 8.437564291138548 8.521135280312665 13.115317111906359 -0.6403864641536907 -0.828078794699774 0.06865616771581724
Ni 5.289798533020641 8.763653913100683 2.9644380978166875 1.4364773930929584 -0.7938877506403618 -0.5588421276212957
Ni 0.9328024686532741 1.5439398819304166 7.634667284535611 0.7222760998406463 3.1597657147027323 0.24253113276283392
Ni 3.2157151274217783 1.5739109418491395 7.002969200315475 0.9897888422494825 0.7295258394245243 -2.668208071260708
Ni 8.709380476880824 8.598513747119057 10.411321350969532 -0.03815080003810849 1.17048365843181 0.032188154696770374
Ni 5.511026862320827 3.3761968702325182 12.233375644186317 -1.169313806493425 -1.6640953561893854 0.410878483123402
Ni 7.410232313743498 2.126888222465652 10.352655152659212 -1.914693325120754 -0.7416565612497872 1.9005802827581395
Ni 6.6449787338961555 3.5369031153647463 5.735314035751295 -0.3201637929456486 1.1008427582052205 0.4761207400616639
Ni 0.04923897166047868 6.54848950697305 11.802345218323373 2.0022671556766807 0.8705408205187265 -0.3403919470670654
Ni 6.3665584381967575 1.3626823201185896 6.2456293273006045 0.1491728343146463 0.06496149247304941 2.5325934352464707
Ni 1.6253874533137875 4.016926495760872 7.9455197468530505 0.18230869763666668 -1.7604209647960134 0.2496597733878152
Ni 0.944668351770284 7.6904860450683845 4.384158038988464 -0.5391698460033488 1.020409909569449 -0.2985439006830278
Ni 5.860502142771355 3.9659083432025963 9.967215535732558 -0.35522335565294305 -0.37197872073441096 -1.5094501859062583
Ni 7.105994251072915 8.274781399532552 5.6889290498527405 -0.7705565321135891 -0.5151588278007321 -0.7173262120345387
Ni 1.7453091100422606 8.210274399158171 10.166568920082701 -0.7408579766078918 -1.812066456886447 1.63545995184088
Ni 7.757453216715743 8.518768651673641 3.120363378927549 1.1151594319382085 0.8501386027132907 0.210419854050586
Ni 4.361238222817161 7.793036834671679 5.0417870767668695 0.2754307117043321 -1.1481178891421002 0.5139648074926308
Ni 1.3970592380965257 2.6219064870845337 5.047537142475995 0.07749536327400201 0.12841451872137238 1.1005460529004079
Ni 1.33987662596071 -0.06995679422851474 12.825479937732927 -0.015628707676192437 0.7670287214659887 -1.357889568085726
Ni 9.198907788886633 7.108183148707428 6.533083035160898 0.10457190777581991 0.637285970851496 1.8641454369698731
Ni 5.976682094141685 5.544655439227134 11.578635202944398 -0.5324507821119604 0.30843699142702363 0.9639690529729011
Ni 3.533928459605023 6.498911910977659 10.348999506524306 -2.2013872684437317 -1.0384575110997794 -1.130350023635718
Ni 5.482608610125734 0.22151456976008424 12.343012288311595 -0.5150369575108872 0.14556454813809772 1.6763358641196358
Ni 7.331562958588547 3.913674136402924 3.35606649540571 -1.027329519507418 0.690465897308585 -0.4747110041983308
P 5.867573965898244 1.0727749889696943 8.495004145517736 -1.39106502639643 0.3504963824909189 0.6407248213297159
P 6.044360189807091 4.096269357880288 7.814497385753307 -0.06947892072742873 1.0968477781132142 -0.24897097485090666
P 8.817796389633008 2.7882814158343483 6.444339138329148 0.41676528092148224 -1.277467260972916 -0.674552054291806
P 7.164533231401058 7.357371371296336 11.447736318121475 0.4290070744033128 0.23430540241893194 -0.2061361390735676
P 1.4698354073124007 4.783358712796029 11.355309647790975 -1.0491651273252705 0.963859009757598 0.6338993137674502
P 6.095088360200111 9.258092213389054 0.9525829940290953 -0.8240799579530259 -1.0265854422525418 -1.6842322361485766
P 4.254272220891258 2.8449027721664426 5.57355543598709 2.4773147172788237 -2.0299078002120847 -1.0416680476172768
P 3.7016878193373506 7.589553543032486 8.144434416249952 -0.824070187761013 -2.3118176918828572 1.0672572089402907
