# total energy = -340890.3298913748 ev
CRYSTAL
PRIMVEC
9.09665135959453 0.00000000000000 0.00000000000000
0.00000000000000 9.09665135959453 0.00000000000000
0.00000000000000 0.00000000000000 13.31386876837611
PRIMCOORD
 96 1
Ni 6.742601804468748 1.7096337727006912 11.275249457418854 -0.04202313850932118 0.8438720529782886 0.28824740385302616
Ni 4.470358332053825 0.33766406366434454 5.870071918388685 0.5624447573708894 -0.2311113209616665 0.6036873089604441
Ni 2.6414947486211067 1.606550518316367 4.820991491709674 0.6326003924503686 0.27298430704636856 -1.200931433398706
Ni 3.565705440660723 4.509737736239294 5.016212909437445 0.5222478734370296 -0.9615612148623568 -0.39725163636858685
Ni 5.4099969449755285 4.212677486047406 2.8986288858745697 -1.547735197529386 0.7904087909528258 -0.48686229484888416
Ni 7.120076453597931 5.872843668089612 2.5831306328313235 0.5508493392238061 0.8231379057547307 -0.4997350370464942
Ni 5.154590261834983 4.648916503630766 11.748318087782467 0.020784026624886785 0.49471084435902535 -1.9759683698811517
Ni 5.525815511408745 8.223209183273028 12.624370197309196 -0.04450193906711691 -1.1866736379281113 -0.5498314394822531
Ni 1.9023099473489762 6.516268019405532 0.7182388516122871 -0.6240134221123059 0.8947243597434656 -0.9848340693473686
Ni 2.435146306823189 1.5718831795889883 0.4673204563038298 -0.42384044260070874 -0.21844143880348185 -0.38259583412862497
Ni 0.3683670816839324 0.1024865140483187 4.980598609292716 0.9495310231707002 -0.9091405351687956 -0.22135809822964456
Ni 8.7791055542072 1.9273439321765142 1.3417187945944946 0.2323588202155224 1.442688921220309 0.2952716576896592
Ni 6.878451197424581 0.7060975509039605 4.605720144491214 0.044616867378426385 -0.894183399638331 1.045611348535741
Ni 0.8505159895384052 7.702716979834777 3.1028368855831276 0.3566765431597019 -0.7040199818439359 -1.0160038100819533
Ni 7.701452545281352 3.8336291162150373 3.667557918102036 0.9597663277454633 -0.6231721571579332 1.113018731446122
Ni 7.391011120786663 4.058680273421901 12.52619367672428 1.288345855558633 -0.9277041571035959 -0.17609691239899994
Ni 7.838311666549633 9.040888990023657 6.9157556554112265 0.39932240285468645 -0.49466276472990944 -0.547329756106322
Ni 6.707834402575271 1.0047797340517903 0.3309498252191389 1.4282699175815015 -0.37328612669192485 0.0308295837863469
Ni 1.9710260525042165 6.303752047915364 9.263656887713182 -0.44774398869118376 1.3842919693386546 0.49918276408745005
Ni 0.025571596929030455 4.657403679446206 1.4329454734612992 0.36810843914572733 -0.5118289920965509 0.5743214542038174
Ni 6.455475097674995 1.8314561290998146 6.901456628975759 -0.8331747211654424 1.1165910221784123 -0.5693872501269935
Ni 3.6353857908710934 4.917076692123132 0.8128076402267799 -0.09120834198472033 -2.3637945991707805 0.006263207300892439
Ni 6.10157896913919 5.800252389410923 4.70705138380367 -0.8377240310990217 -1.5685973856903759 1.6303231448349473
Ni 5.150287545692749 2.6526290500124245 9.513891214831583 0.14741908484833322 1.1614709134102383 0.5268740593551313
P 0.2434273028282693 5.507285632377607 12.585160900506093 -1.010544586739595 0.8115720552940022 0.9665360423691289
P 4.0082939209656026 6.459759620514301 12.613959079709224 0.02657517938536713 -0.12477589352752058 -0.0489031534586061
P 2.3484552183760825 8.569145741778275 1.4253697821225004 0.4568714049137486 -0.11018102643248122 0.39930234825002847
P 6.299376558561423 7.871550830997243 5.807056684705616 0.0019499246375192228 -0.4052886477404504 1.0645410955607086
P 4.898974355710777 1.2964638632287537 12.349212864511108 -0.7156956184096512 -0.5315971758624135 0.3701326686646077
P 3.9008169839244107 6.087897605338094 8.286538251431587 1.2835589756929506 0.9432405621762981 -0.36452200734604967
P 4.551627816228688 0.8437326165420771 3.7051034373524647 0.3537843092135713 0.4869689956300775 -0.19688196746515124
P 0.1921221885741582 5.543271985567192 3.6981936209007937 -0.6510411156540594 0.3777613888544591 -0.007725907889347984
Ni 1.5844638485630016 1.062106831574735 2.7271861150723744 -0.5001178743072096 -0.5679322628480218 0.24404808362799263
Ni 1.844218731103098 6.411274468213873 5.0304855555836685 -0.1379535685600592 1.0657698257614872 -0.5300529713037452
Ni 5.945716942963669 5.415955251684117 9.342261962674387 0.21327454989056174 0.01832245245827167 -0.20868127409292445
Ni 8.856372511738126 2.503580415783061 10.021083204165059 -1.0783664314795751 -1.928267721371079 0.574438696507972
Ni 2.297550356786365 5.3352679532029175 6.950558534245411 0.14460809776209935 -0.520557115998168 1.7312803386763151
Ni 0.5214919254340881 9.401844120095133 8.851553105792766 0.7151065786754007 -0.5777045117434373 0.30162922447657087
Ni 1.3388087757913223 1.0822559145663762 11.325509366419809 0.650210392222648 0.2343509109448867 0.4628708170302932
Ni 4.290608499135167 6.988347843755062 1.5556320117494546 0.2676747219079971 1.4981766698749681 0.602133591320079
Ni 5.587372551862215 7.713560188379264 8.082849670521595 0.4672823158344275 0.1326331847884103 0.17885056388473716
Ni 5.682860102274522 2.734380656714853 4.676629452314303 -1.1728755557027544 0.6531193383393268 1.5888797900884957
Ni 0.4981826657240288 7.412833987647587 6.860037755532174 0.8182345549158425 -0.1590911218696228 0.20628063507123184
Ni 5.101602267060126 4.680027051635919 6.995932631745324 0.7673663073110655 0.5026347271917925 -0.10014858189714364
Ni 8.016515068719498 7.545690582271929 8.796512906447743 0.3412404111102897 -1.0063056089575833 0.6584554058402594
Ni 4.46914847740918 0.34612940751627286 10.298477403558019 1.565470152915304 -1.0748041680496132 1.1458234366809685
Ni 8.03489940132722 7.1910576249675815 4.630470313793091 1.1985467352166133 0.3934908837745739 0.02570486096527186
Ni 7.503172833331554 6.008229131820806 6.896171474475468 -0.5640972053726478 0.10284824021649384 0.3388837379526551
Ni 2.211887189954634 5.500390370568278 2.861922987554222 0.20445386627513823 -0.9033318989068185 -1.0344802716195862
Ni 2.2227394951505834 5.300191265159682 11.805687029902142 1.0114444728460452 -0.5438351126895021 -0.8273653135725171
Ni 1.078444417603172 3.314228510952407 3.638440446432535 0.22339389771275073 0.3016778183263192 0.15396279950412192
Ni 3.6854537605261695 2.5081651281206625 2.5178121269976983 0.028666000476124828 0.30161971139487403 0.2819695412641144
Ni 1.2276567915588783 3.466370006679359 8.399759723871975 -0.004724402058862831 0.40316594497049274 -0.8546480605478701
Ni 3.667433293976986 2.9806361084831225 7.430403260284181 -0.8222624451283129 -0.06185971361927411 -0.40594710726005573
Ni 4.2534759678611795 6.9245257370871816 6.18479786572268 -0.7748644154603236 -0.029147310987917542 -0.6094612353297439
Ni 0.576799566332137 7.195942526803479 11.152215427044792 0.65330574331852 -0.1005455602252462 0.18943862381322857
P 0.11265293172392057 5.645809440863706 8.357821431629826 -0.15360464483375483 -0.029552259735820076 -1.1969613930073644
P 8.571720094142444 1.9178743180030158 7.8578057906359025 0.5474230871510766 -0.9464102181535314 0.607267827222851
P 1.9018278248214109 3.131340333278842 10.652945711470876 -0.35747641335317787 0.9162208390543446 0.03890619014689429
P 4.1770004190075785 5.998049978833155 3.6021338911114347 0.6028689268242069 0.8929017047124299 0.006204586148815121
P 6.867835405166682 3.7213309538981933 10.339124880957499 0.5010848662061692 0.3348728170210491 0.8729648565791869
P 6.475496827546148 7.9179073668552125 10.255353817630173 -0.6495125948246749 0.03878663384989449 0.4407541876369118
P 2.373034370630446 8.492033427322228 5.93606812475634 -0.3506617044241896 -0.3416178490543665 0.05352522561164975
P 7.067707031122591 3.789028234089522 1.5359677802808176 -0.3676276428545669 -0.17887396092350483 -0.8240933276894645
Ni 5.228900807640272 3.0216983931893386 0.5077550720590644 0.4241998828226565 -0.014047222121685486 0.4850126432346551
Ni 1.8280721747553945 1.320497216395307 6.941718408353187 -0.9159997241824741 -0.23376007143842323 1.2864879764142876
Ni 6.96031196394457 0.7786196950315271 9.025298239080373 -0.8574726744808586 -0.045273784236134935 0.4015525777367858
Ni 2.8418939803618986 1.6099708592666413 9.414422969738853 -1.5107419081344884 0.9042099306363975 -0.6910407959754485
Ni 6.205371762337667 1.8382786176974357 2.5986940938202165 0.86272183869494 -0.11676073653252796 -1.133107531776197
Ni 4.482784357952959 6.9250715361749915 10.403896678038167 -0.9416379935758685 0.16415722353862053 0.6980879326302171
Ni 8.513310495095343 6.947831358136655 0.9950654199539243 -1.1565109983018018 -1.093879953734142 -0.5052425971282848
Ni 7.466658874357086 3.7656134532224863 8.182757283880013 0.8355437356182515 0.6263479837827536 0.4009895061444642
Ni 2.894254306185775 8.529839110804513 12.359836843755323 0.7214500043949252 -0.6300637420714439 0.1554653521915774
Ni 9.172335603671158 4.6775618590893115 10.368654430938294 -0.07649880368868761 1.925043043786194 0.6715757452723015
Ni 8.794988307662463 2.1697424037242623 5.7353750711732765 -0.07774630294254352 1.6617841915577058 0.3311053795588169
Ni 3.633994003197179 3.032587084991142 12.135764486245932 -1.95304749941892 -0.4018114878251273 -0.880047217347265
Ni 0.8304915306718139 3.293479048964175 12.815690970889419 0.47926288523507143 0.02808724515451937 -1.0901816789469483
Ni 3.293460855661248 8.660576185637861 8.194500151254239 -0.9475597583769422 -1.304309835087057 -0.5516116713111274
Ni 5.830107599514113 7.874971171947517 3.615887118459092 -1.3489390437606577 0.5011098059068338 -1.1382782773438591
Ni 3.2374072893431927 8.117496996615754 3.825580399000137 0.17657719446952813 0.3001750085285475 -0.28436375252790386
Ni 3.3610125894291607 4.429787266526638 9.5485867531785 0.9716990746273072 -1.13655281001232 0.5928369965095016
Ni 7.451622109487929 6.3560305038760685 11.671097523174003 -0.6994480462025373 0.45863749567523593 -0.3856729303920519
Ni 0.5135432713852863 8.638744222125474 13.538207977684987 0.7243232121776623 2.040991311719756 -1.0452128275457417
Ni 4.5191345772010845 0.49829546420217613 1.136923151201395 -0.6001687542842244 -0.6677556001952629 0.8232898579515628
Ni 5.991318456750169 5.52122170241968 0.3319877531511237 0.3363604573101691 1.6555605792454973 1.6244576871931056
Ni 8.256266414691368 -0.04765735701724967 10.9448390636315 0.21008406797772206 -0.6422600270273197 0.3544713079782669
Ni 0.1863285312570583 4.657112586599376 5.818027246370591 -0.9687579897211122 0.1357136234859469 -0.09795980177594096
Ni 8.071367877044372 8.96981685213937 2.362786083091672 -0.6837221508268483 -0.08007032309002983 0.34007133050285304
P 8.548086993640284 1.6631771736766228 3.6136638968414143 0.46982256575777803 -0.29393159872199703 -0.9309216355996289
P 2.0242232702627345 3.4872832083939334 1.4931634868193424 -0.48172625917389933 0.05387489564158463 0.0732306744603771
P 4.703223512867831 1.205297222261608 8.058458818952525 0.4729053184481598 -1.2482654425979791 -0.1738680230684812
P 8.728810168265538 1.418686472292271 12.552102759422604 -1.5742972642886306 -0.2949315007414211 0.09458317199422421
P 6.441038711802428 7.813632451129171 1.4723139616650123 -0.011839930057721545 -0.14063677181917714 -1.2465181208895693
P 1.920576023487674 3.3543447439064193 6.000201336904271 0.005820720446835137 -0.5052312842743751 -0.19065038473314264
P 6.97228315727053 3.9439896917701573 6.049049445598093 0.028076189410925836 0.6094581500059504 -1.2094350999943428
P 2.157689340535131 8.440237093889088 10.235569510362218 0.7829235383193742 0.2592327617882309 -0.6794636326608106
