# total energy = -381173.83749325376 ev
CRYSTAL
PRIMVEC
9.18055949497574 0.00000000000000 0.00000000000000
0.00000000000000 9.18055949497574 0.00000000000000
0.00000000000000 0.00000000000000 13.43667680606952
PRIMCOORD
 96 1
Ni 1.207454712543521 3.000831086423482 4.49095430450401 -0.00017509212528356942 -0.17014815101473277 -1.039700382367945
Ni 2.2003597521618343 8.495597853156093 9.613136330930079 1.2757669904523579 -0.37577418322110123 -2.029181206458705
Ni 4.817223122692124 1.2267797900577513 1.8488600026044275 -0.5435103823602317 1.707540571857214 0.38697622258450776
Ni 3.2193008582078706 7.899807090476282 0.7694015671208355 0.16524428595521218 0.9283309920543173 -1.6495346847663914
Ni 7.5013340907481805 7.47314977342339 1.3818816687142432 -0.8587469132075921 -0.7668919387778083 -1.280700423198233
Ni 6.430651351984709 7.157347710994881 6.70830084570365 0.34323173050870565 -0.928861924857123 0.1811938673059331
Ni 1.6838614809263965 0.5603042284168637 4.055982154812334 -3.2579299191799955 -0.06670752862987867 -0.7599281058654653
Ni 4.783998678262671 0.7959186948605518 10.761192824225585 -0.8604489835003633 -1.015039132175839 0.06265418449611145
Ni 7.30851480189717 5.021885333155182 0.8454248613667213 1.112215518818536 0.13734447422115056 -0.23271286112083145
Ni 0.33540255672441316 7.05713272470256 9.06732453356498 0.053180954898353575 1.8042263920167378 -0.3001500688278831
Ni 8.833075216302461 2.006071573808554 11.069537518262258 -0.19154435730232172 0.5090863963544071 -0.3448332706678706
Ni 7.477051511163792 2.6998280857303376 6.688280799843658 -1.0626127681897442 -0.39904523793389984 0.3290068451585753
Ni 0.15201721070172627 1.660864179656493 6.068419528501348 0.3895694372329807 -1.0819999144671044 0.2191819165139322
Ni 0.34208141368004386 8.463686228719293 1.165764874301302 1.5745507750603336 0.3758230341811657 -0.016271740576830042
Ni 1.994797846878637 6.566661339335456 7.400115669314622 0.9038304358097918 1.8264474081984674 0.2514243214874057
Ni 7.728020463185889 3.897064835673698 4.745364130185172 0.33926374699989315 -0.9332181449432896 -0.5649497831809303
Ni 4.183085163443695 7.973756496356151 6.027048255669933 0.2618689138594974 0.15420062654654088 -1.3346591368028757
Ni 1.9288079859891893 6.277960288223817 12.83668870619108 -0.5516458669831725 1.6423042284562233 -2.2958889364677426
Ni 3.709790604693753 1.5567474556237682 8.833956550003824 -0.10692575271997715 -1.0789935235406127 -0.17513300582383387
Ni 3.660784778674294 -0.08888525795013127 3.698364480477976 0.657862509451267 -1.9110984086806442 -0.24576969430478962
Ni 1.7591237067989192 6.996192171477163 4.717523165781536 -0.5928976745441078 0.26310587159039206 2.0230128728644643
Ni 5.533784144136639 9.03389995294084 8.015407776248937 -0.9366955619689287 0.004521542019437374 0.3053547529572741
Ni 2.3507373149566524 3.974603840274738 12.348413310629867 -0.5868962055450344 0.4517399972244543 0.6533299116882361
Ni 5.542083369824461 1.0119914225884248 3.9750793932510975 0.8221886544675839 1.1757356508593688 0.8827728438085441
P 6.44681831706906 6.1584753077736 12.588795241564359 0.8007865346427241 0.21239548971971808 -0.42214145763173105
Ni 2.754213719551858 1.209621324559368 5.887346765388796 -0.06260816174952442 0.46567794746178515 0.2920225546247423
P 3.2275725422175245 8.88388961252159 7.628055188108952 -0.21105183120763008 0.31634596186145514 1.0120347981318762
Ni 7.73867909263673 4.919485373728235 7.23503268649021 0.21458555539250143 0.7778070430284152 0.30032644650474727
P 3.603690879832965 2.7708488931650574 0.5481932344706534 0.11324758117294689 0.03892547342060393 0.23030759411344853
P 0.916639378604553 3.8525758448737166 10.679416991466438 -1.3136347120324086 -0.4648102001448511 0.4676715808530461
P 6.525174391455737 0.49656268652182683 0.8649739445300476 1.7772825164380426 -0.5284383185184576 -0.36521800497180973
Ni 8.306597677010982 0.37900562354333805 12.910859363552229 0.8378592711253053 1.5652611222282913 1.6268935503281077
Ni 4.646896204344612 0.3040215686203077 13.275409278281357 0.047031133246873844 -0.15331051063210369 -2.2646906564880673
Ni 3.0869539140534084 4.957878473093798 3.4516938663618943 -1.5706360133869597 0.23940184310523285 1.0166936370601267
Ni 7.909777177972934 8.813952111094794 7.547220362687196 1.0557270968135044 -0.561794268271084 2.1381306744769306
Ni 7.116099457659282 5.670620381832413 3.113734523847594 -0.0758961371076822 -0.13881385967782545 -1.415768185570065
Ni 5.264059309282442 7.51135926160117 10.293435060843258 1.3924598498614278 -0.2437557491985544 -1.058479462747661
Ni 3.0283452229128636 5.709316439657819 1.1040485638075188 1.0778038741078857 -2.046789663569088 1.94374113441633
Ni 3.308949020643243 2.283746773093784 3.241706013397172 -0.5401221826142892 0.542305306308537 0.5683451820157244
Ni 0.08064203367458382 4.688190360477157 12.826584582527344 0.5889451176542632 -0.9805896922487175 -2.1070524650148874
Ni 2.287262927339841 1.1130785620227193 10.97264589446882 0.2510923920692837 1.2310521640434864 0.7208259976576812
Ni 9.498298549642666 8.860222130416277 10.898299888423338 -1.059369321551782 -0.7200240705816761 -0.1132043866398373
Ni 6.1738894669880375 7.639097564942262 4.399611410805394 -0.20058538445866744 1.1454092319616853 -0.20135542985547256
Ni 8.188370433197083 6.241017717241744 5.058922463898964 -0.06934162381861605 -1.4498268178166709 0.6834832953431648
Ni 6.7158729710878475 0.4736865686358606 5.830496151371279 -0.6061211152129174 0.49430846671428413 -0.1227436935888402
Ni 1.7901264558561902 3.6579571663824257 1.8261518889552835 0.7219058609854212 -0.7303465355536067 -0.7473844648724999
Ni 5.533031338266726 4.377924175360327 7.107196151163652 -0.3324603509248145 -0.2456128570119512 0.2661788540887609
Ni 6.898143797200688 0.592686815550329 9.924154403860882 1.4982756573466778 -0.285675786471108 -0.4258248200205892
Ni 4.367311448706432 5.554825986256647 12.42223418867829 -0.41067819418713786 -0.2762786615269242 -1.349660238197398
Ni 6.515562345775264 1.840619532496697 11.931715064402361 -0.8230947112216213 -0.6820031112532126 0.020228411231732902
Ni 6.697833171888103 4.192293264511046 11.434249010836638 0.5714888698510288 0.6980380532288882 1.0885801387877834
Ni 3.2752563676849418 5.568752894850038 5.81924996611953 1.819368646974815 0.15612689703497626 -1.547403011000948
Ni 5.440078174451248 3.6162682461961455 9.590361199197392 -1.4203684033462378 -1.3613471876170233 0.05611432649506465
Ni 0.9920512475951193 2.022660844624807 12.881822172260181 1.438999902404496 -0.31322669950618315 1.1783432636855449
Ni 4.845572690085922 4.147042287281763 2.309751625619584 0.6522657320897799 -0.9682887633941777 -0.09631301020113735
Ni 8.067590993872992 3.0001700861474605 9.076918218126675 -0.6608303338303394 2.1047299875292977 0.1577405213789993
P 8.893060991351383 3.7999528784549197 1.4587798702699182 0.8374633212384675 -0.23215596017609694 2.225626086386438
Ni 2.3074509774366545 0.9452120335915074 1.3361193343269824 1.1824488012134862 -0.14697505533237912 -0.2755150438880223
P 2.635444822733997 3.510425576998254 5.949088781448868 0.489259334326151 -0.8562624562228416 0.2439331553166831
Ni 3.5016581427815843 7.824012392159187 11.589483089548335 -0.9942965003118488 1.0509828972602997 1.2256739304507085
P 1.6820712718455058 8.917242584782493 12.67180769567323 0.10688924305508687 -0.18324149386358118 0.7048314220016377
P 7.673946968383601 7.618533111910492 9.807537430163844 -1.9354395565291698 0.6974050476305795 0.8428119871448904
P -0.12980484725959793 6.668106520585928 7.013931766384881 -0.5907690582368793 1.5560110643849332 -0.31554094946165656
Ni 0.7239118953474335 4.809263577701703 6.346236108401171 0.7458883399429476 -1.4621809685066496 -1.7236549609205734
Ni 6.626013655786525 5.514128566484398 9.348688481612783 0.4142391720655188 1.4784048865646795 -0.45338730301989016
Ni 8.859809005243763 7.070389452460541 12.607834803681586 -0.42375559619638636 0.4096374116274493 -0.26060495954540924
Ni 0.42959876828118687 5.9811803448496965 1.1054935838553763 0.36727617305241905 0.7247194191748164 3.3508025362410163
Ni 6.963188060473049 2.519576982683118 2.518893031008624 0.557335461168782 0.25190357511666944 -0.11821315270833835
Ni 5.4258299462792365 6.093605475129632 1.073065093924965 -1.5315927834415686 -0.0020347710418416568 -0.006946606521162231
Ni 5.189375458651438 8.021587210773795 2.1501099603451412 0.14248873742625137 1.470835558857854 0.24668372147862677
Ni 6.869812590925669 8.258133503995484 12.019335241268662 -2.1965880472828747 -1.0641271479517416 -1.3349851526837269
Ni 2.7476955223855377 3.349407745871373 9.770089928415368 0.46682234547887347 1.0041772497606705 1.2328300818795155
Ni 1.268000501715183 2.766047460604515 7.942433345776197 1.2455012495892808 0.6713260911553406 -1.3913691879004102
Ni 4.740877590811678 1.8609361104249589 6.755450362614616 1.746663506000605 0.8018185754516642 -0.5987705883851172
Ni 3.292671888846222 4.480562829331394 7.780857336638454 -0.30114122909655877 -0.9931636722589864 1.2671136856527339
Ni 1.0616857905620727 4.948349052447826 8.742184006125795 -1.1045726575612977 -1.6189874081071538 0.3712616400627283
Ni 5.8669925471670386 3.404087157593347 0.2767442905631671 -2.5062961921128384 -0.7914125496269918 -0.426412317092943
Ni 4.657692542186291 3.4092190902919004 4.873885535242163 -0.2662282192694576 -0.4643795403653357 0.1990131548755411
Ni 7.628980588495382 -0.09776469499134911 2.9774059710860428 0.12258994161979532 0.5566430630874478 0.5097813655389026
Ni 2.0535809686475757 7.544482719877341 2.6118076364746674 -0.2870852652241249 -0.04729107177647984 -0.26461485203575075
Ni 8.056298905824296 2.82127770588984 -0.12411932682987686 -0.6986371202654678 -1.8022433001484381 -0.14952867499216826
Ni 1.1496630911886139 8.916866181847535 6.921769966788751 0.4538333894183732 -0.8181808188597715 0.7721876399591089
Ni 0.5682720359107356 4.9898910836838795 3.4506867589969015 -0.7160771701187861 0.6783724564791607 -0.21119169921960404
Ni 2.1637935841147184 6.178635816192245 10.414861729604288 0.8897940123213838 -0.6813307677765362 0.518373735193604
Ni 5.83158312960296 5.431677962610146 5.010281106087255 -0.6676203601689792 -0.2885664777553417 0.6466956942011702
Ni 8.699048229779779 5.573655313563861 10.718517911960907 -0.2386297408258987 -0.04727487382656374 -0.4336260612325629
Ni 9.393823783793763 1.5369908918182462 2.0585118470955064 -0.8480572947042299 1.2019598746632203 0.5437731491033151
Ni 4.155929068770492 2.855530372970882 11.735257519865417 1.600383162742405 -0.5834568408461822 0.5258489605247267
P 4.259366431408417 5.50231318655052 9.805710498845398 -0.18918305615899675 -0.4507079564155141 1.0391717635579845
Ni 0.10559387603844442 1.1637368887322315 8.806626024702226 0.23984972927592887 -2.4712721106291697 0.5545614979680707
P 6.261820864817633 2.060943777277701 8.341878566743612 -0.6350809927803771 -1.0080159067804704 -0.21568804442806078
Ni 4.371084658615386 6.632412505680785 8.055260584557379 0.3891171801869105 0.9437586394632972 -0.6089560135585513
P 4.540153840326581 6.453235528082099 3.472615443153904 0.4367558651107962 0.006078087873279855 -0.015627422124611795
P 8.322011836225421 1.5515879812470472 4.195387113025201 -0.5312894148140076 0.707889234991355 -0.26804187543942865
P 9.147518555941371 7.206390259251898 3.3746478578000536 -0.38043867857630603 0.5124015767705691 -1.4480920945137512
Ni 8.611346345934914 8.400505619002935 5.340501237036475 0.7571078628078509 1.199454077522231 -1.0561258749138198
