# total energy = -340862.8246542239 ev
CRYSTAL
PRIMVEC
9.32590681706119 0.00000000000000 0.00000000000000

0.00000000000000 9.32590681706119 0.00000000000000

0.00000000000000 0.00000000000000 13.64940730387930

PRIMCOORD
 96 1
Ni 3.728870617083078 2.557210303014369 0.023672882088844754 -0.13026468455623372 -0.8220654986261585 -0.12013505232139955
Ni 5.96321802303008 0.9489110276315607 12.152940875208142 -0.8926847036056174 0.5413210880183967 -1.2808947985972263
Ni 4.331501395407637 7.005145646136797 4.436712546752386 -0.7722048663502895 -0.32124262783212415 0.3579793211315254
Ni 1.1627354211601741 7.586354816299492 10.652229924840286 0.41452199341326024 0.9106420594149864 -1.439294293716463
Ni 8.067030710021221 6.358934904842979 12.355075244430749 0.3722628276337331 -1.7592518841885765 -0.09952457515989957
Ni 4.120446796229948 7.743524325377376 8.822362955425252 0.24762063147059934 -0.7160720279124635 -0.03269286224733079
Ni 4.641839599500958 3.7283390403894665 8.357722958627479 -0.01892203371548354 -0.321766104435762 -0.07200322981117922
Ni 4.732319548297826 2.7698689581797993 10.836974275456264 -0.7107161629171889 -1.126347330234228 -0.49450027101011607
Ni 6.398392816960022 6.887620567314066 3.255861551428336 0.8306699524657177 0.2801304311728466 -1.719403384733071
Ni 3.6328324277705493 0.43552544802958687 11.857062489771751 0.19666548057897099 -0.5929020454194821 0.9456214037036488
Ni 3.7130911825990234 6.5825608265292415 12.824887389198295 0.0696162176362414 -1.577879068102618 1.085890250660446
Ni 2.142645763345517 9.14454599387921 4.749406474930029 -0.4593273226534089 0.528578700751064 0.006715978567594885
Ni 5.168361651569977 8.086232752339583 1.1491699569754776 -1.5441150842782956 -2.9358110593905056 1.1292354504153004
Ni 1.5067401491822416 2.199589750910316 2.008032825299893 0.7318395751593655 -0.0262591908068451 0.2229753221180934
Ni 1.731811586438852 7.6840623429481 7.981518671832895 -0.456428146728743 0.22257911512093925 -0.5241695159397748
Ni 2.0855245835495135 1.049919925324705 7.064769899346229 -1.5943333570038996 -1.3398825899853442 -0.5745721367620428
Ni 6.224473979079914 3.6410392258473627 6.550719382581895 -1.7123459636656575 -0.11136579076920175 -0.5761754766934207
Ni 8.795253476641742 2.513201348327457 0.7282768568805731 -2.361900981692494 -2.08705879550178 -0.45287179683605233
Ni 9.25616777363078 1.629040092340574 8.208112097096478 0.43335018186335694 -0.7873970007096955 -1.3782557904469037
Ni -0.3878868503750656 5.538497570741171 1.6377103879905892 -0.39344820346209664 0.6363200073938009 0.2705417590431469
Ni 6.202959111848994 6.069561339473153 0.15646074015306824 -0.45319395606216145 -0.24227247978480854 0.02791009614670677
Ni 6.26767157986605 2.304105189599917 4.1298463777999705 -1.7864361579128525 -0.333982958216928 -0.4271705354152063
Ni 9.071803920016546 4.307039541594589 6.061838555964734 -0.8964444277583657 -0.24955152994472501 -1.5947455048406536
Ni 9.188564274473029 3.145814917353101 9.925453606380804 0.9481853077760832 0.17254750448484477 -0.2280537650822653
P 8.026714814468875 4.971211979588344 3.574970770966252 -3.016790524558366 -1.3662078581434343 0.3644435886996304
P 0.12340972608008297 9.499462032980679 6.200570747090503 0.9674626679484564 -0.7166975773116044 0.9613781523172734
P 4.086202066073063 6.236280577222239 2.1077687367004403 0.1662452164159008 0.429047440722945 0.47933230502042606
P 2.0892362944978906 4.13983535668642 10.189541840357828 -1.5391263728144524 -1.1968431222619451 -1.8228008125848154
P 8.411417800226412 0.6096336018198757 9.871156311195776 -0.9487056990559274 0.20684653487703086 1.1318448630136895
P 6.144308483320494 8.26400318977165 4.924719535892504 0.41999510071268953 0.24997113398064688 -0.5830716895926217
P 1.9692585021590205 0.04345499581672747 9.32366495744981 0.9173726932706008 1.2311046145479765 0.04273430564373285
P 5.233559066746117 4.28035812193804 12.114763410109221 -0.6300526863278504 -1.5946938256671117 2.0329008214021376
Ni 4.258162463503021 0.7066416854505735 9.626695380892004 -0.3202769214847452 -0.21743947990152876 -0.9854495914441803
Ni 4.261407879106125 1.6080381499894556 7.2468386472710264 2.077045891350468 1.1694493036300246 -0.940519049480077
Ni 2.7064807689433206 4.310975074308698 12.142171317913705 0.365328562407745 0.061683850163042155 1.670054401986298
Ni 5.567501141217182 6.003207511840735 11.222898022427728 2.7918182266149016 3.296158109423259 0.29953480384138736
Ni 1.0390086142453052 3.961393453957159 0.4425767662408126 0.8237572845062846 -2.485961080099912 0.22427784297960082
Ni 7.251191048023809 0.41143663049275814 6.477026066214871 0.5993277464401678 0.5674008158245841 -0.9888352200869615
Ni 3.9970370701498648 5.1283348591317 10.140008218420116 -1.7780805868593055 0.10820616209429752 -1.3849473435344664
Ni 2.784053662583019 2.3541853096822902 8.865071878689541 -0.2058846851843938 0.15515733403285537 1.080811550585958
Ni 0.2648035310366741 5.55990985299613 10.00740408072193 0.19141657347520583 -0.9180072415308062 -0.8072222629657387
Ni 2.0012650146585935 5.617460024509785 0.9926122273905926 3.3259445966570715 2.9301294356246954 -0.01778997699356936
Ni 0.30663954941461197 6.143124093143499 4.108935829336526 -0.05269424506992215 0.007469311793851652 1.0703337909830857
Ni 0.08544022870515289 4.140338955659315 12.145815882332363 -0.5594306531349139 0.7441446177789635 -1.4721038840473162
Ni 1.5560928485259884 3.7336641332324896 7.613762724103977 -1.4951517670057153 -0.12373588229878042 -0.38488694415564684
Ni 6.31985935490906 7.468363442131486 6.944914276387821 0.6993045786461376 0.78986525974453 0.4991706799025919
Ni 0.07308619982747694 0.4131581929075079 2.3792011223655223 -0.0782533244859491 -0.05035402697251973 -0.1240755250263863
Ni 1.8942502329183264 3.9373139623272357 5.049393854948969 -0.04341050577515105 0.7574490481973536 -0.1815185976352035
Ni 6.868996731223843 4.064155622148531 10.310857900337632 0.21887646945837144 -0.8445780779063777 1.4894652581438994
Ni 5.001278703451579 5.696152026978139 6.784328687610463 -1.8496446722505369 -0.6690979731557702 0.5734850743454509
Ni 2.0214182994813137 1.807808401811526 10.933188724409307 -1.1860897404001831 0.2597199858372946 1.1566140995385692
Ni 6.322284090704481 2.8098491210835483 13.582443863399282 -0.1473190689353592 0.9296052307810507 -1.0677804284336125
Ni 0.04385694240435322 0.37603548787959445 12.804891712202277 0.8900200122892608 0.5930347143426045 1.1511816156690884
Ni 7.345765069952179 7.95172519704199 13.96197843154981 1.8820428860755845 0.95827225969844 0.43756679104786583
Ni 8.738496007215051 6.848722209611352 6.135012419317123 0.14875425871998896 -0.16953082914570805 0.30492717850155227
Ni 6.921221809894474 0.3195568630693783 2.6509328696422703 0.4332470806265893 -0.820025328267678 0.46710233861313744
P 7.75660857276575 4.623047897086437 13.605538539259987 0.7192514540817098 -2.002981408134886 0.29628672921773486
P 7.693276338970704 2.555270514378032 5.699432881027484 1.3275927168743975 -0.7942363922290321 -0.5210620806590446
P 2.6831939794003623 7.345988891717911 5.876465639223328 -0.07960521052815323 -1.2047163543624348 0.9353737578337117
P 6.0518048127251385 5.301945942083927 8.854534536477052 -0.44998676197877335 1.6227077943815345 -1.091750566095965
P 2.1913083455782587 9.141170015579432 2.572121495565525 -0.28681735627471894 -0.29562518437433605 -0.740116470456177
P 0.8864302491369841 4.130751923360492 3.1153816853484813 0.9359915939233686 -0.9556942145586187 -0.7509210172708487
P 9.38419382362907 5.485750241283834 7.753490922087251 0.7266891413066775 1.7763859727657019 1.1366541114768747
P 7.3230005311959285 0.6834957171018877 0.024256683861127167 1.6821707256338576 1.821352510174063 0.42492904767919726
Ni 8.483824141440481 7.8610960337346345 8.14869581161104 0.6024827471293818 1.0883608236881255 0.9317631576643178
Ni 8.433995820844554 2.4418208568729907 3.303429272190376 0.5342227864107187 1.0564475199192966 -0.4190574193897686
Ni 6.711407556335212 5.724157725415266 5.292639619582959 1.5910184336980535 -0.14037349085546147 -0.412259936851961
Ni 2.935879427004069 0.2869646836161422 0.6164592330839892 -0.034606277219959757 -0.015375968235438037 0.35224576108185784
Ni 1.8598003328095205 6.899417839549486 2.8376571102942787 2.672537037653365 1.4927264453936744 0.7141151612964088
Ni 3.3324076627177424 3.1479785277551704 3.3993163818110363 -0.8288979481669594 -0.4009087735051999 0.9062187335363102
Ni 8.141087736757557 2.2149215418629082 11.77288685404298 -0.8616424895878322 -1.2140096067389028 -0.18845594818498512
Ni 4.217109821305144 8.868387238594437 6.2652832151075595 0.2125880653464984 -0.9811558491648329 -0.3252273235114851
Ni 0.4534852795481408 2.0950463344999983 5.1718290237574305 0.20274356845225083 -0.8278857048523613 0.396058387391434
Ni 8.64347434175522 8.51884292187052 4.40752991886379 -0.7399295512563515 -0.019229537653573332 -0.22032914274449794
Ni 7.778589735341943 4.0465110062833825 8.095408512143875 1.0542898501463456 0.4567942718189101 0.725690267728518
Ni 5.183096584480619 4.706514763890391 3.8467304959637163 -0.31225250851837194 -0.10235921639521726 -1.1412468730538798
Ni 1.9771761971217645 8.023087036682647 12.702793548582573 0.5870828676345438 1.5530470966606027 -0.26102224958848597
Ni 6.839993160747832 1.9841239977663396 8.77932576023789 -0.6321581627066275 -1.0280111189554748 0.24472119843561724
Ni 0.8122687722433065 7.660104088107947 0.9299533240741216 -1.3490909959574893 0.9713656025472883 0.0157084118741923
Ni 5.420011923507176 0.8570359231616336 0.9810303836046895 -1.4102451988693068 2.3959794114334416 0.02981836891301316
Ni 4.371481558311386 -0.020238150575560193 3.271121532897757 0.15655678548354326 -0.1154661860908205 -0.02114783772220874
Ni 4.4634629781200355 4.755895440954855 0.49127385432910475 -1.1230360064728078 -1.6447398344809094 1.4052199777405736
Ni 6.326723222391485 9.082911075140961 10.210739626753961 0.7197435632267798 -0.9556484489223477 -1.0156453983012703
Ni 2.835355476470009 5.626049184769722 7.906159748492556 0.11056540635509345 0.6486934413574893 0.34559174610044996
Ni 7.500948160859198 6.626215396753745 9.946446222825017 -0.5731343758742516 -0.20922043442584612 -0.7495858433991929
Ni 6.880085234534447 3.8800901975552726 1.8893513340208832 0.010292640175259693 1.0797262879415792 1.7734613429197392
Ni 8.305522127314802 8.268600861876047 11.433795013778713 -0.5781428848324367 2.052362786781491 -1.3477601929612077
Ni 5.454396542267643 7.991276368228089 12.37908479175888 0.6819902557374061 1.1720391758443878 -0.40728536645550506
P 5.8457209219280655 9.281291766834116 8.004053793279272 -1.7276319432904506 0.7288527246168995 1.9037710217812955
P 3.462989011208132 3.9972888696363125 6.45492739721167 1.1604540421099498 -0.18471242198215285 0.6519394590986126
P 4.931679460216057 2.7930997922813248 2.201567775764966 1.6287848538135496 -0.0591338300476788 -1.879074290365564
P 8.380763544228133 7.795236479168206 2.2447541854628157 -0.25946287552116604 -0.2021190474943745 0.7900292961262201
P 3.5216769433642536 7.582195461819652 11.00304629526611 0.4634125484663761 0.8263849519371187 -0.971464847129314
P 3.87964255402381 1.386473253729302 4.861768731689891 -0.12064155964417286 0.7013401210189276 0.7629676640227377
P 0.9731956892134043 6.16842527857804 12.509299632107885 0.11867286595357626 -0.438199025315226 0.36279962533830423
P 1.5866351936414023 1.9031191703854282 13.326271459203621 0.3391333920696159 0.1346818397873229 -0.3505138659924157
