# total energy = -340893.84833623405 ev
CRYSTAL
PRIMVEC
9.04679193666745 0.00000000000000 0.00000000000000
0.00000000000000 9.04679193666745 0.00000000000000
0.00000000000000 0.00000000000000 13.24089446306277
PRIMCOORD
 96 1
Ni 6.117621590045406 2.0267618266828284 11.377066313823342 0.9552093045024 -0.07339702483491231 0.3894845908286583
Ni 4.6956106586773645 0.39269499884839243 5.892793432834245 -0.4011466005476188 0.9494855146447454 0.15943642102418348
Ni 2.7344018857957675 1.5622271583712561 4.7300843637304935 0.08680892736544403 0.38060014385483487 1.307619101965948
Ni 3.516922241115275 4.403942089183614 4.949644574042889 -0.3464839188974162 0.9459366209512223 -1.1189271265107568
Ni 4.5028778049399305 4.536133811809007 2.519490821819068 1.5308726174460925 0.5639491098305578 -0.016577701853023062
Ni 7.221348290274206 5.8261249095969525 2.665154122199832 0.5582515452251482 1.2494010988643194 -0.4495627870674774
Ni 5.001283661966906 4.484404255966412 11.430626035658756 -0.671984807785262 -0.08067324678135138 0.07807951791224617
Ni 5.654606782765935 7.781082349304846 12.45964161468873 -0.9713992839987012 0.9616470897079437 0.5558763601247524
Ni 1.7469264609390105 6.494366190169405 0.3806329112644589 1.0801129818570365 0.14348221168777223 -0.2536894633724986
Ni 2.5362047697762553 1.4154791476467483 0.3187202865067843 0.3187476293244123 0.05570269287894278 0.5950525161035817
Ni 0.6985977906511213 9.06922790155381 4.817355146065432 -0.4946946464091094 0.7002823691783746 0.01269585030011362
Ni 8.575996809469467 2.2358331865153525 1.4746252634543242 0.6224471060664506 0.22800182879840733 -0.23906914235616247
Ni 6.771216114600167 0.5935355874487385 4.5805680346975155 0.5687069362305173 0.8171552058087347 0.7831281981310126
Ni 0.764926154514562 7.461015900169629 2.5163262540272284 1.6315019956343968 -0.9794954307432745 -0.05786627618916486
Ni 7.781426127395441 3.8561136082377683 4.07277974983487 -0.289568693767611 -0.3268278352293855 -1.482166667599957
Ni 7.528749230808578 3.7937178847948902 12.850592392066948 -0.4643417451488648 -0.3797380529648557 -0.3694109600072347
Ni 8.103012437562759 -0.07584739825616171 6.914501013401528 -0.6745793079853156 0.9644573054632293 0.19505108490399956
Ni 6.828645149313142 0.6969675587583555 0.5410397683357923 -0.19678915064102884 -0.2804207087197558 -0.4281508970506046
Ni 2.08697727328799 6.555631064630065 9.455455348903103 -0.5134372171239351 0.3516778043935298 -1.0956748408510357
Ni 9.167476061128939 4.686238182312739 1.306201139438656 -0.33639593853379485 0.17915472538871727 0.7805848628838685
Ni 6.528707812061411 1.9723996544096292 7.004816945875784 1.2406364652978117 0.1782646094742801 0.23119822424851796
Ni 3.274196815571934 4.0519766519579825 0.1901047607027582 0.008175336721940759 0.6172953866621821 1.0586931214203639
Ni 5.930723917056218 5.507623555453126 4.765503458532757 -0.18091207439945617 -0.40511484116674745 -0.4232971685027291
Ni 5.317659020024162 3.0597064274166197 9.109510551658799 1.1654995749536572 -1.0608723884598696 0.3131791340976994
P 0.06441587206471312 5.399812936884359 12.421931872188084 1.1240883589967223 -0.06586163568981561 -0.17227188222595494
P 3.8414035246770726 6.134656699113543 12.740812286910751 0.0930263690300656 -0.2519935637273144 -0.5814626932342889
P 2.3802471249405612 8.49894528321704 1.2816526697326605 0.12363689482707094 -0.2311889682771373 0.5241234931931876
P 6.475214131806556 7.978600955935027 5.856381000286 0.10262532557241036 -1.4216683531045837 -0.8875502105925296
P 4.538793568615184 0.9382427835668998 12.490082259931675 0.5933303912061524 -0.5317959221367808 0.49591514907977174
P 4.134284364279761 6.312408065534548 8.25000380698824 -0.4294883849151055 -0.07804969311557526 0.46897950103119235
P 4.6627798510256016 1.2170558618307925 3.7200290510759864 1.337718749564806 -1.3857389861978264 1.2865579104202747
P 0.2250479942533044 5.60745490360336 3.5503474229920915 0.20313797567719205 -0.5628057402547338 -0.7617391909322752
Ni 1.3404631495623136 0.9355739799688647 2.755231219369043 -0.1636671712760794 0.7537080930976826 -1.7955995695796754
Ni 1.8523668200410472 6.557865622218929 4.776347847932638 1.3759821639213785 0.5777291943337858 -0.40097022287075457
Ni 5.990866989326519 5.624453825504065 9.361802054912522 -0.7198608055309343 0.2239186598679692 -0.4677086047385687
Ni 8.721261146329304 2.379107229166485 10.202810824271547 -0.8813669645999531 0.8974376449095706 -0.03875398083974616
Ni 2.5366932965365736 5.385808503088567 6.955177198952329 -0.9943692625313132 0.13158751713271533 0.5802293350478201
Ni 0.36879247008104016 -0.11968272352368708 9.181487732358217 0.14942377398318782 0.027579452280165402 -0.7626743011520348
Ni 1.206471115357229 1.0445064007279914 11.32589042164244 0.40062235261303264 0.5209880328879996 0.7259183245789239
Ni 4.254706210698226 6.99779301667743 1.5372019227343574 -0.5719447264415246 -1.1900672369906924 0.08740619462981075
Ni 5.914394457752986 7.963339018071009 7.899994286162253 -0.914553992874883 0.1206274185767858 1.2124517753334796
Ni 5.192198110540932 2.9135555049547235 5.1969449622286925 0.47461407360915037 -1.092828629651492 -1.0169301785509646
Ni 0.6640037632662842 7.490987921594344 6.739125334522368 1.4300974577085437 -1.5122038373919957 1.0504789610406877
Ni 5.1861186664125265 4.91053529284185 6.924974484335242 -0.8819446914802941 -0.7767202377221398 1.119789731621368
Ni 8.105382697029489 6.829812185462791 9.131847985434762 -0.18935043497479648 1.7498133644834961 -0.9051334708919314
Ni 4.775421456446405 0.299936432572545 10.120942786034057 -0.0757855796717469 -0.4866357806603748 0.34102212445189656
Ni 8.29527485812359 7.281102350494622 4.662000017567464 -1.4557354699916218 -0.5461035970087046 0.12269741373193707
Ni 7.278315938602437 6.0586184135491825 6.879994739897712 0.617827090795936 0.6062144462576721 0.28121595092754154
Ni 2.247919700437302 5.276550397822562 2.46557375170527 -0.4813521636639323 0.14091290829869924 0.4124972496737477
Ni 2.2109002281554027 5.118828628574608 11.490607170354805 -0.1876560779915091 0.4089506699730699 -0.030002202789045102
Ni 1.2705676356693636 3.2788559133786737 3.762784189395697 -0.9276776747410346 0.4693050026914111 -0.49402410270464586
Ni 3.5567100317056446 2.448921321932716 2.517862399284674 -0.5936304389450744 0.5523012411789843 -0.992057326568685
Ni 1.165190604110331 3.3898962366406553 8.206150388136999 0.05829102243140928 0.4260397642448727 -0.3040964550701408
Ni 3.6714323992537294 3.0517000166225143 7.150003480325646 -0.6339517642719404 -1.064369860090167 -0.4140077727810031
Ni 4.366361715806534 7.1238691080069865 6.011538004042283 -0.6044416706279655 -0.992837142157503 -0.4484610693628664
Ni 0.5229678969207576 7.401913208962971 11.407374875905163 1.5172966785338708 -0.8062046203345019 -0.5004503179459638
P 0.4737551585729878 5.605889808611969 7.974289254935626 0.33625427074960795 0.21760891559985748 -0.6808833958264725
P 8.629508583308038 1.8189117837511004 7.9520440984366125 -0.5042038714511253 -0.6132577262576987 1.091022686791005
P 1.6889546187145703 3.270044338109228 10.415247590675152 0.6637714187365342 -0.1277833128952767 -0.7614131750514241
P 3.91147092761532 6.289881553808759 3.760652765234012 -0.13595864961721746 -0.12840500563967563 -0.025991281857439107
P 6.902756468211802 3.9461472808060627 10.58128878971549 0.23279565064262486 0.1961630870212557 -0.41628422752000566
P 6.397936435757684 7.701823405839128 10.146947789229147 -0.7618080964969977 0.8418208268762146 0.6733130396783824
P 2.4914502904559823 8.545174389610123 5.860367016778524 0.45294250217298765 0.05213374458076183 0.08505080702375675
P 6.5502120363072756 4.04480254601479 1.8393855784043667 0.45979629187002746 -1.4823132204801504 -0.8152441048289507
Ni 5.237006870612351 2.6473536545405296 0.590426205087231 -0.1759868691836969 0.16618942347730087 -0.3491925760778309
Ni 1.5521037982824375 1.149593934947576 7.1160535845210795 -0.08903113182774344 -0.09693187473205887 -0.6906651578035847
Ni 7.175110137089264 0.6480868376717647 9.303396871358096 -1.1956115638476892 0.3065791122826784 -0.4331547780230992
Ni 2.9274694708319378 1.5301924684029753 9.065775645780894 -0.5685691251010724 0.7941600304651419 1.0181776778048206
Ni 6.458957046838185 1.984893273965177 2.696746424046269 -0.2587265115757738 0.8489949760271507 -0.2964003719774637
Ni 4.201827712289697 6.8802751904453014 10.625208250147294 0.28021630601843356 -0.4003608714215299 -0.5194669682577827
Ni 8.416194278094231 6.996435997898768 0.45079801955477 -1.9682458044259132 0.11146632090280803 0.7520461320142274
Ni 7.679242613362193 4.097364406708297 8.51241233757648 -0.01795427048557553 -0.7388306617652179 -1.4093753946698437
Ni 2.996107480656661 8.349266111930621 12.179848768866643 0.023294194641250206 -0.13164202451973459 0.6116356172732434
Ni 0.10856421633051652 5.132842109162258 10.102895340957035 0.8085934322816526 -1.7101407284842227 1.632236045586944
Ni 8.902359825737674 2.532459397947148 5.842822573328796 -0.5453914014330284 -0.33506462131688103 -0.025640069165607453
Ni 3.3892086804594665 2.5448625495841184 11.56969512945441 0.4963028714364936 0.39530428283422886 -1.0898111829814068
Ni 0.8853579524040706 3.1446919901282913 12.607449909418966 0.11642906422472206 0.4544265429176819 0.0352703931665199
Ni 3.215347434537292 8.3448603242959 7.989926634661741 0.17902437045844008 0.233151748430463 0.10327761444442858
Ni 5.782130360792731 7.569070782118555 3.6167101646645916 -0.7876268573323145 0.9774837996298844 -0.14266742909596072
Ni 3.108857647579757 8.547617023411716 3.489438992130627 0.6547818136434143 -1.191515539401445 0.5786668756567066
Ni 3.5323651148164488 4.351461649616826 9.213398481278047 -1.5516828693232245 1.0418071442983026 0.7656572950397588
Ni 7.255834660835936 6.258244922682219 11.559777131540763 -0.010347147562278954 -1.7573107013018059 -0.2923485705055933
Ni 0.49670053676179043 8.988684313644294 0.19193311733720878 -0.010202394454298557 0.5657697079790643 0.6437618083838268
Ni 4.65366973162485 0.19627376807055558 1.6744173288783575 0.15042598999545706 1.570785137370314 -0.5639660791114223
Ni 5.836845357948382 5.461503010562334 0.2695265464219156 -0.017623369508718036 0.39581567525300865 1.0549115428907445
Ni 7.776586093751546 8.727250122539132 11.591767492228941 -0.7105151026499763 0.8418722489394405 -0.45046858671119844
Ni 9.15354400166801 5.155386714471762 5.680502319779548 0.5405834385214239 -1.221992110723747 0.9935017723246955
Ni 8.02170891913719 8.671313808482685 2.6468814120055555 -1.3256296796107556 1.654494856985144 -0.35606667748984483
P 8.520648536883773 1.6782794043224296 3.6890057924374022 -0.24158059592410652 -0.31628682648874556 0.02737324980663028
P 1.7231695855205682 3.156280930498065 1.581558343212889 -0.28798669399247173 -0.17266166146520587 -0.9380142807803523
P 4.843643313845671 1.1787336515213775 8.035845436094105 -0.6442279493869679 -0.38091124733735043 0.6106375150260321
P 8.284825813527892 1.6014902350338764 12.403381425483774 0.06951594461295124 0.6285982132695109 0.3012049924549587
P 6.437543290510899 7.742515875615272 1.4405559499972365 -0.13472734831327765 -0.6560977042413604 -0.27315554251691015
P 1.8530543762222362 3.3970793893757056 5.837751846492528 0.6270714922123394 -0.22403873038560124 1.5934175300578495
P 6.927987970703057 3.9245978226009104 6.056199301406421 0.868872431677368 0.7619708473271072 0.37191598581727564
P 2.2031199871577405 8.717072481699168 10.15183305683233 1.862787380280082 -1.681045096669847 -0.6739437312838458
