# total energy = -340891.907594622 ev
CRYSTAL
PRIMVEC
9.07311597388247 0.00000000000000 0.00000000000000

0.00000000000000 9.07311597388247 0.00000000000000

0.00000000000000 0.00000000000000 13.27942235239687

PRIMCOORD
 96 1
Ni 6.527154125097149 2.0153295497198394 11.450779298977885 0.21410450199102482 0.3788654205519153 0.24524930302494538
Ni 4.614477807289332 0.2400664776810486 6.071113014060312 -0.946591480926402 0.5823484382733518 -0.1998089113039591
Ni 2.6256961943358506 1.4561715705547256 4.898752134286991 0.9611668076374156 -0.4945316384686838 -0.9814394418435225
Ni 3.5540574007383694 4.341213706288246 5.121607818648797 0.42947552939929906 0.4797390535405415 -1.2878015530193887
Ni 5.059314527651947 4.6012854969481545 2.6410914571879207 -0.3952094091275774 0.008002815699818476 0.3074152350307286
Ni 7.300101931338715 5.847958824189411 2.4922687683280893 0.6804596780254926 1.5222169986536234 0.13372076142563422
Ni 5.102729386649562 4.328883341945977 11.549936659380652 0.11968562348880678 0.6525758071310309 -0.5994151639476516
Ni 5.488699731844667 7.909416094524481 12.560248062113008 0.7224619905992073 -0.5238141894828849 0.21202473664386068
Ni 2.206010150909786 6.540301069859437 0.15083329131623102 0.560538284376796 -0.15562244659473198 0.10051059322225268
Ni 2.8447665747950843 1.5253540783617936 0.6484610285214218 -0.28508263297179937 0.652637770717218 -0.5116883527536285
Ni 0.406512786628021 8.930676933377697 4.82130673994092 0.31912326749627623 0.4226744473170656 0.09265201640978236
Ni 8.382016549167703 2.168338574199629 1.375814613355502 0.46794925999446507 1.082868947335619 1.3319517651740416
Ni 6.672033637839872 0.7113885303111532 4.823019744199802 0.9858342284771087 -0.1816317261743001 -0.6147163130810962
Ni 0.9908296085338849 7.113994180500868 2.062161344119441 -0.7903080037089034 -0.3538894673328679 1.3347833210855655
Ni 7.454099925438304 3.839933132670842 3.9082536944790025 0.8741773888300493 -0.004955544233062433 0.07873232100489667
Ni 7.797245164161362 3.9205749857054943 12.832251000020955 -0.3176417978547433 0.58277626983939 -0.5908757590180727
Ni 7.789224529813631 8.892270434289525 7.012265499086622 0.5713461736255774 0.49416294227535545 -0.6229744393248303
Ni 6.899260749383507 0.5076852860450775 0.3516440262722881 0.173819686329049 0.6001636120779018 -0.08419977187737113
Ni 1.9747273566133963 6.717526240350644 9.113534694143873 -0.10664858779919052 -0.7758902856216766 0.6601032258563276
Ni 0.4567134289159852 4.898203210782424 1.2522732542994233 -1.105887005497347 0.5242808447066585 1.1764056803431997
Ni 6.458516004236759 2.0457426338076155 6.904821662043828 -0.3704229462115169 0.5968656580529205 0.8254328724364945
Ni 3.3941346620357624 4.072830941575712 0.262968836527816 -0.8172472513019087 1.2508450303996974 0.8666204024183978
Ni 5.950974980732552 5.819160754710115 4.708179503174803 -0.8185029780858807 -0.6003129931715726 0.15039128010277972
Ni 5.383206614694139 3.017455187397305 9.280722276649907 0.018954943835948 -1.002272319428474 -0.21680750274448465
P 0.4241010215636278 5.682111340883784 12.503399547894519 -0.9198916030377124 -1.0790855690337866 -0.7997020433292936
P 4.1894476986700395 6.133616801343211 12.674690900666931 -0.282550610578565 -0.7618991135489072 -0.43177898072149506
P 2.378989103216901 8.494405234309493 1.2802520214239683 1.076446845859359 0.5894775931189654 0.1496268911329294
P 6.126158700173716 7.8378927228466955 5.932103807225939 0.40586663173110743 -0.27674248853722017 -0.2394992879150456
P 4.83182429575075 0.9290053976227555 12.618266100955275 1.390074894569019 1.1838590512974516 1.364240192894102
P 4.019381216527655 6.326865094298326 8.510250523704151 -0.689104241074368 -1.1889902018764296 -0.9318456900757952
P 4.660950306304126 0.8069892293289546 3.833290704609786 -0.23425166636286107 1.706740444553422 -0.1689263627924897
P 0.2877266475511795 5.723766015420473 3.69708418323923 -0.526013768237365 -0.4588712089525968 -0.5577100708993815
Ni 1.4162135686685187 0.8938670348378095 2.66594997979642 -0.780611859467062 1.126871321058498 -0.1447047712409637
Ni 1.8677008828963895 6.376086747393845 5.157514674340138 0.24148058001113248 0.5178947386746564 -1.395867589991396
Ni 5.951864146078794 5.748072892589671 9.279341348428497 0.06185122897884187 -0.048096855507226845 0.2515238231797475
Ni 8.558543089744006 2.2719626294998947 10.010931171019315 0.04735997734120231 0.8356964591460317 0.21354837237723867
Ni 2.4362858293548206 5.037203344501018 7.082048647158192 -0.341137052763206 0.1601568441299758 0.7622223012162808
Ni 0.5049107272401723 9.224999736099466 9.116110551713241 -0.0772271972142799 -0.7772167177425839 -0.1193459807612009
Ni 1.2755893472256663 1.07867551549625 11.31398756163965 0.39598948182671156 0.9945752078945322 0.650738496811976
Ni 4.121181575556546 6.927786625389464 1.7041879122804369 0.12495689919007512 -0.35887457925228516 -0.4355713578843918
Ni 5.421477017045642 7.955561961371268 8.221582086735218 0.4986081225309026 0.2066804416128118 -0.27592873438667315
Ni 5.400427388440737 2.905483865581301 4.685192764351299 -1.0588178199236862 -0.5078424966449769 0.6828055525498499
Ni 0.8432635462093032 7.597464227846105 7.132988748382061 -0.24878971207803607 0.31936700807596613 -0.4637457634360787
Ni 4.938696526499531 4.497407394406105 7.302885563259397 0.2766339879838139 1.148765807138744 0.2890405891782828
Ni 8.338420227854527 7.028888354503452 9.153094386247426 0.37687332982255095 0.18114578767681705 0.31818558617335524
Ni 4.937008926964827 0.49712508659109095 10.475910208409037 -0.9273876543044416 -0.6755149324257076 -0.7566427502459743
Ni 7.818285719650488 7.264925461467501 4.6414902875835224 1.051693807284395 0.08440983100564818 -0.5735745487354638
Ni 7.544921814375845 6.587009469884458 6.897464272459468 -0.10912353170224433 -2.061086539807734 0.8026708961496305
Ni 2.5548895988045244 5.015337135476096 2.7947337851490133 -1.0115331759051096 0.06043352269570882 -0.30902577405095816
Ni 2.659430038798366 5.143122898093113 11.354968103674034 -0.7506407670262685 0.8024266413493083 0.4375958445135883
Ni 0.8889448695282575 3.0906570854940165 3.901706534133615 0.7933982125984529 1.2834422476094283 -1.2310544780363315
Ni 3.4757745578059915 2.7262172440400483 2.676295146406468 0.03445612479534066 -0.5238432429486076 0.31379465619451125
Ni 1.1035812183067946 3.5929810674258875 8.578692665263736 -0.6601914146947597 -0.5578021163925555 -1.2795195155162544
Ni 3.7248860246061044 2.5934140483978116 7.0074848743832066 -0.3852708098576268 -0.5560599368904682 -0.13469083864838738
Ni 4.181436137438086 6.68571589643306 6.188197036617205 -0.17208290614360042 0.7059534514212229 0.5686969089281884
Ni 0.8881137721229948 7.44802093786706 11.511957504045622 0.8882744903530636 0.36615774317725974 -0.9467303204971115
P 0.42267835700964107 5.574504187756988 7.8064008452929174 -0.5709815911973068 0.33347850777668375 1.4270265320927038
P 8.575927179574608 1.7094475974969294 7.869664052366434 -0.5707481350302622 0.43027282848961373 0.6623696532930011
P 2.032613835276884 3.22992941268595 10.487874926185455 -1.7425160594911344 -0.6742075264681937 0.9936071875543081
P 3.824055180059384 6.392146162320864 3.9328073603973617 0.8125729857546911 -1.6648448327609005 -0.256253624555249
P 6.952501792768671 3.9832702157313093 10.378147385901343 0.7412881221667749 0.49218087884832007 0.5267781572072153
P 6.650230940625395 7.860058344692291 10.244994875301655 -1.3210505448805054 -0.78495470981679 0.6521867992227284
P 2.3991858589386763 8.395934708771117 5.760254457833182 -0.3360388123046922 1.0016519122356558 0.6611877171697581
P 6.897037836017903 3.942985581677095 1.6531153435662091 0.09640222748083398 -0.6681353521321848 -0.4401422650845259
Ni 5.315493951643103 2.97372276934746 0.3630099184073588 1.1591705474118361 -1.5215788508489925 0.24065422745509524
Ni 1.4619602184210743 1.1850396517614643 6.9985478553419 -0.4678836968638522 0.35049252583617707 -0.2545163301491681
Ni 6.954452512660936 0.5278103641522063 9.109524376970008 0.30950168524611216 1.4745901408042799 0.14732806779642368
Ni 2.5926881991355732 1.6464529546504412 9.086099406654428 0.9202860102626538 -0.29433474769768664 0.981012124498117
Ni 6.129533899243123 2.0837226964542235 2.5990085315865112 0.7342857227070128 -0.4976383024184655 -0.2117838242776482
Ni 4.21190366022053 7.1802369987958725 10.613326176112796 -0.32166326030931053 -0.3917471616105898 -0.480833829266617
Ni 8.086650338131466 7.157064261098921 0.15486719859111922 0.3132207859689122 0.25496678742302537 0.3163192223885778
Ni 7.619384875565695 4.294850084662788 8.261234324619705 0.3691600203386933 -0.6477760717495424 -1.142033630621233
Ni 3.0755866401867977 8.819295364087264 12.439232658489518 -0.4380200765352004 -1.5294433411987338 -1.0967552183994078
Ni -0.023717124643629645 4.891343935254274 10.340034855764378 0.3061075719628986 0.0723457007522625 0.9592605917536381
Ni 8.660642861593573 2.4224584009091847 5.813850260045265 -0.19503565828503186 -0.21731143896409671 -0.12317872424372979
Ni 3.6945001598656626 2.459322470315102 11.662719117747207 -0.5556796707329139 -0.03619907562837637 -0.6061339707287239
Ni 1.1579110355853157 3.510923808329871 12.673694672554511 -0.18554880184051917 -0.28168594858542456 -2.364295707176915
Ni 3.084296831333655 8.680413180873781 7.848656160094108 0.02509782350889226 -0.4692633508201983 0.5378179599611447
Ni 5.686802141740999 7.866264355884427 3.4276843222479845 -0.7239704568239339 0.19005414591004044 1.1169532906138375
Ni 2.958062571514673 8.380047683043882 3.590078577688513 0.46411651651193614 -0.34863156136803825 -0.2355148493460008
Ni 3.3879014314962927 4.225377237150824 9.251613906611004 0.8438697389854434 0.8015288121253873 -0.8665918631733076
Ni 7.0147252207740305 6.069061582582911 11.448720609007863 0.9555851997845801 -0.05713968243578546 -0.3249771551738919
Ni 0.5065865317243645 0.19235459105098326 0.4709745522958081 -0.3355006804130351 -0.33950054560104753 -1.161988476476605
Ni 4.709119477969401 0.30034553697518873 1.6278975255729022 -0.35820814931287986 -0.09688636620610412 -0.22987539167203633
Ni 6.071384300222074 5.419635174542713 0.23697617444706995 -0.7675059182127233 1.4195083693387875 1.4878971423258311
Ni 8.225913592207624 8.900082386974363 11.406864511300903 -1.307405186182929 0.8854169662996106 0.034987057598146194
Ni 9.094800524685507 4.889375069130453 5.798699064007622 -0.5094316955089678 -0.5050525926046657 -0.5269447646920667
Ni 8.216885842008537 8.464953900494182 2.549118189858154 -0.71439335465846 1.2288492428548965 0.0926342757979695
P 8.445074703824638 1.5626536573250536 3.61476471109723 -0.832227783871141 -1.0521992861659042 0.28396394598632385
P 1.5314512121645936 3.100664732197124 1.4007130576734241 1.8484676212233004 -1.080725932850687 2.619420103223727
P 4.800839605368962 1.123188221503001 8.270609575153088 0.23674049422298585 -0.17029161857113254 -0.2583025366644778
P 8.475025059007736 1.9431166212429272 12.486016365375495 0.7090459743036176 -2.5820421767959014 -0.9645069277542422
P 6.373745883523128 7.7555269778142275 1.4773618324541886 0.6247374447625241 -0.8533982473011689 -1.3769450420552802
P 1.845489895471904 3.2249391990080634 5.893553952908475 -0.6187634865672763 -0.14192618005456203 0.6480732912749871
P 6.573644770343499 4.243305713928105 6.049639670948575 1.8108294991555522 -0.8457206761512532 -0.005319098220068258
P 2.4308238136564793 8.610677213004257 10.089134170532848 -0.042807324973513375 0.6370671699724706 1.1223256106693447
