# total energy = -340885.9234466774 ev
CRYSTAL
PRIMVEC
9.08464579812136 0.00000000000000 0.00000000000000

0.00000000000000 9.08464579812136 0.00000000000000

0.00000000000000 0.00000000000000 13.29629741562366

PRIMCOORD
 96 1
Ni 6.472110394628818 1.9389177178513881 11.241580165194158 0.047490075161163374 -1.4133660038864757 -0.04247076756970105
Ni 4.606596612344644 0.5941785129446684 5.784753398276695 0.8478744892694623 -1.2002007258802685 0.2268533170162609
Ni 2.831184344040125 1.7685170223768558 4.671242041193992 -0.6936394099405603 0.4382980127869354 0.8276990427628519
Ni 3.850526991356855 4.42088828921779 4.766097550159084 -1.0470200559578096 0.6437324978077882 0.3400265933078467
Ni 3.5900520358391392 2.723267840252634 2.6595254251650906 1.257398258137183 0.4592427333594027 -0.2899019087373136
Ni 5.188122939514008 4.562508827776861 2.8427618162538453 0.16216564702988845 0.2831957003617316 -1.045370950390161
Ni 5.718548135796543 4.073573207451685 11.458336172751025 -1.6208406592658084 2.5857437940172048 -0.03661070924449824
Ni 5.7279416592342285 7.790256116789759 12.046059136609795 -0.6334794526212122 0.43146839145961174 0.37268166033870653
Ni 1.8228977102859325 6.215968815010306 0.5928421615929435 0.8922460734063021 1.2417163286255517 0.5859114730342619
Ni 3.0122231593846087 1.7845241677319832 0.22612591091627574 -0.4256978075244217 -0.15546123842651935 0.010562091786562455
Ni 8.331482956561082 8.829521391668234 6.828220321694753 -0.4860518831324468 0.6836298482233581 -0.08716811047707568
Ni 8.876379993110769 2.320318389499695 0.9985597038269879 -0.14986806060945804 -2.257949223999176 2.2765118174927115
Ni 7.186327053839608 0.6740779700379408 4.597646419606919 -1.8512793796404827 0.3836844392071134 0.2274878652764663
Ni 0.7929987049086703 8.02641147632809 2.3491230749579826 2.115482340949795 -1.827100468401434 0.8664429963002692
Ni 7.5428176275516154 3.7859987544343405 3.5809455871989693 0.45401568063250847 0.20407668544137755 0.4032703317588409
Ni 7.505116348763999 3.5188647537717284 12.855750877608163 0.3623131726201889 0.44843047323524704 -0.9127534493310344
Ni 8.912273427445676 7.519942490205299 9.11665887323746 -2.03153787961634 -0.04406022354400799 0.30085763641786895
Ni 7.152786542686866 0.47400228006708395 13.346557026439935 -0.45258280484072383 -0.03717635193998114 -0.2260742727583913
Ni 1.724120359862379 6.291216933612191 9.154327447301307 2.2022449884583364 -0.7849508531620482 0.7331310402772793
Ni 9.078059123010785 4.5819408844820915 1.2970102944261472 0.7327309766253832 1.7369241672256535 0.4970127530193246
Ni 6.675424760717213 1.998512992272294 6.859426987420859 0.09995317805688593 0.46461453919427725 0.17826049570922203
Ni 3.5623256978006324 4.514287529510677 0.7767444571961878 -0.08973612831456804 0.6317966656021506 -1.0093078861190166
Ni 6.083287567614371 5.861613132988682 4.756138961771859 0.677351214303498 -0.1943293762466266 0.1980921857231685
Ni 5.5054041832868945 3.2659845618844816 8.769652669418047 0.5174895328164378 -1.187963046163496 0.03832872037686948
P 0.31622651643138283 5.576664142518234 12.484465050249527 -1.5164980938919754 -0.4507460087423011 0.21150768779812607
P 4.370513929970241 6.029206673006497 12.53618757088794 0.01797226820770453 -0.5547859552740511 -0.2685308992607053
P 2.5709910125326303 8.33110140145046 1.2032485767781704 -0.2554105598286634 0.9231934137174359 -0.35314127631293374
P 6.548257893134312 7.950082284912776 5.7555417207004105 -0.7535443138263087 0.43635425879700335 0.013777513400066594
P 4.9638502962778945 0.8405132177556552 12.53062958477655 0.8339805048961896 1.364056101907754 -0.5188794711854289
P 3.8384171589173626 6.250953784796115 8.186530170035917 -0.5311631736487885 -0.9873480940184738 0.16931794180395357
P 4.965794410412967 1.2457229283067532 3.5992411547532774 -0.14985597642459997 -1.3130500431735321 -0.08177290760343336
P 0.45906167209259896 5.915303387840443 3.229656881495104 -0.6405700409194065 -0.5052048019118138 -0.20727616621528172
Ni 0.46759033727954197 0.11919418270000821 4.6292119288299185 0.9096624691105365 0.7174038593500097 -0.21431764644309542
Ni 1.8399132512905598 7.041236180702979 4.474615791116065 0.29065267086040913 -0.5663937147163084 0.7033000729587758
Ni 5.786165152185995 5.788854207251329 9.270590014901373 0.7301285060055296 -1.3620059042469448 -0.19494464123312236
Ni 8.659547674531778 2.6278154700787835 10.180270089567243 1.01165401775369 -1.813528129033638 -0.45677653120709716
Ni 2.3314561648716507 5.642591414846361 6.718392408495958 -0.535337359631136 -0.4128790584931986 -0.3564664840314248
Ni 0.8919686498166326 0.7961701546495754 9.077355062985232 0.32417214277409334 -1.4811253708196364 0.5133446574101288
Ni 2.040147922557509 1.2389185288340003 11.277068424340168 -1.2323441433820324 -0.34196211976766266 -1.0143860719728726
Ni 4.385785219040598 7.098687478788011 1.3155357035113777 0.2968760260623016 -1.020171568306398 -0.039361532516758016
Ni 5.056613611386411 7.995905236769339 8.120473895741817 2.2590170031420578 -0.47026736660468044 0.33747245942742526
Ni 5.519876023554044 2.861254520615308 4.839054521168141 0.5761726484799432 -0.016896518645022514 0.35361615906682325
Ni 1.3304099935737783 7.867602788500062 7.4230565629729695 -0.7646579072409669 -0.8123084192393946 -1.6140547466922266
Ni 4.930600493780864 4.812645456725828 6.8430991540798995 1.7223195299386014 -0.43133983630154743 1.075179034890529
Ni 0.8978664016693845 7.433347649385165 11.514779075186556 0.8804174562024902 0.4509223864191653 -0.46482177010907694
Ni 4.677220646391613 0.2558099900580913 10.223389450925685 -0.1990694620347733 0.17814273918443513 0.13194104381739213
Ni 8.119937901657849 7.409282423479527 4.298758857559642 0.5539416049958846 -0.7461387653908569 0.5457562409716149
Ni 7.00679628964663 6.59057417183135 7.3085618673854515 1.039778286793732 -0.4259819144237437 -0.13542308882872162
Ni 2.592576130219227 5.218011423179371 2.789656612571704 -0.39468181875888153 0.5865771316427189 -0.20640584779518645
Ni 2.274023036077601 5.127455676925165 11.755189682672869 1.866973650447288 0.8877168180773808 -0.9208835346373367
Ni 1.1647242291090707 3.458270168346813 3.551108886012905 -0.5074023237837648 -0.00020080315689642835 0.45843052187075245
Ni 1.5559726564696128 1.1968293662742355 2.4783903125784024 -0.21235178096597623 0.2876483368164465 -0.38622648890267675
Ni 1.0569439950039448 3.7948108605606024 7.869533275666898 1.1971182303002028 -0.854394035555535 0.18189397869675125
Ni 3.783200683623115 2.778856786012013 6.946490595948328 -0.4826559700770203 -0.35027218229525486 -0.9819140674870962
Ni 4.25371264289256 6.832561873774898 5.953031012099982 -0.05942745002869766 2.498501378658768 0.35904787160535584
Ni 0.9308945388164341 0.22840252307631828 13.152723396385937 -0.2709407942537785 -0.2708850013151787 0.837804763738286
P 0.2625117330367959 5.84246270029367 7.5245338700364455 -0.7541991738014883 0.9590117089676257 0.31842109922292905
P 8.765801688194417 1.9851222248185723 7.8713284016159175 -2.0053416808369464 0.12391534529943819 -1.0125233077325209
P 1.863060928001607 3.464956467428183 10.445012103072077 0.13051845243825264 -1.1033452129120997 -1.41134743079455
P 3.94162781634052 6.5221758759296735 3.888062929596535 0.8390692322730066 -0.28364538630464053 -1.6497061773472492
P 7.141140027167415 4.059710038432431 9.922268883016724 -1.0280854238368358 0.8560775939055449 0.8473924074267213
P 6.771385871038559 7.620018944934063 9.789811117899868 -0.3793865831627079 1.1590083108023588 -0.3639152269999862
P 2.394866990398773 8.781554463475796 5.616263203748918 0.8370550300564551 0.46921938495614024 0.1543240394982826
P 6.891403122620051 4.087263768206609 1.5506935689747974 -0.552866369653835 -0.22443416605180702 -0.4894714503369571
Ni 5.217829730269551 3.0351346353128896 0.3520690767515417 0.474503259062899 -0.9679095256778879 -0.6469849433068148
Ni 1.397036783604712 1.2696337152390436 6.747803948273043 -0.03662279342935628 1.5145368564005464 -0.5117516018913961
Ni 7.161934780696295 0.7098378600841316 8.978071697807831 -1.1569663406716653 0.11436421127589337 -1.3734043758918735
Ni 3.070501160209321 1.8780051698342883 8.97406991146905 -0.029355313233665574 1.0164272707726172 1.7835295257890187
Ni 6.45169719621056 1.9815792130770855 2.1231125390394423 0.9806819948522079 -0.16094797257270346 0.9360173049549815
Ni 4.038797184512168 6.781406235015124 10.347763698484659 -1.3196127839927143 0.6727810784343123 1.1397903431130114
Ni 8.65627720215502 7.316192061133336 0.5355225908675311 -0.6918069847175118 -0.4319751558927012 -1.2560772253329142
Ni 7.78514146137833 4.214403381853039 7.869745856371387 0.05673421946725068 -0.12512144979239742 -0.1706430883732803
Ni 3.3170221002528733 8.566711682259333 12.322343192210935 -0.7075537060288072 -1.2444689516700245 0.391461512049371
Ni 0.09346555820497046 4.836174688547496 10.249184393332808 0.18616252416511808 1.5940919304170549 0.30918955332233206
Ni 8.555891869479561 2.4353118321246687 5.444660609675927 0.9190099717637076 0.44902774049961386 1.4691581711554311
Ni 3.6941529885204143 2.781427740685963 11.429789491224682 1.5219292922098757 0.6472006588620466 -0.09999251593525359
Ni 1.0351135918890915 3.195842014048534 12.499462891490605 0.9911720957502543 1.4600685501493371 0.16916187584206352
Ni 3.0862993587181555 0.00615757271379421 7.80388944427809 1.1755448750048012 -0.051020456911925034 -0.02703000753459861
Ni 5.798165968879595 7.957068377295348 3.5373601835268382 -1.138340498040362 0.4289057729387581 -0.6660964673252852
Ni 3.2672200736712567 8.765292948046921 3.3287939838801006 0.3969626443732583 -0.6348796754028485 0.6623989638690398
Ni 3.4535370680460065 4.184987299753208 9.135300565784975 -0.747432544501616 1.9059652012191368 0.23256193736526398
Ni 7.631692714389987 6.6518410210226 11.505099385415905 1.6858831414884388 -0.9310774444512029 -1.1509201344775855
Ni 7.946984420800347 8.961666644980198 2.3393234678668495 -0.8119785467038017 2.155905739072164 0.6244834197701891
Ni 4.581386721107141 0.5418209755864356 1.4569418444368605 0.5942719291838152 -0.7293836574197051 -0.10841596411225846
Ni 6.658381965776114 5.681764406203518 0.028236895115100573 -1.8512210155987214 0.7018677113876235 1.043441851688248
Ni 8.251983223869415 9.08728003818414 10.767408002256394 0.7660437318448999 0.29381307086626174 2.6666957483812395
Ni 0.025669574299346302 4.789543203242236 5.297165030877833 1.1038923436648216 1.788418992670836 0.7559644932320271
Ni 7.389459727018184 6.087366573439827 2.468404470254704 0.08368992212048812 -0.7822658501307173 0.312312672332346
P 8.679806433976688 1.861025967411625 3.441294599782346 -0.08299341027409578 -1.258156733569762 -1.7029434394048346
P 1.8950388801298979 3.153280449923238 1.4949292895574426 -0.9966125500395353 0.7778587222019572 -1.2572694458688025
P 5.1027999490626135 1.127086542839892 8.095809083233775 -0.6102523637724716 0.6625028364367559 0.005059159690462255
P 8.637726356062414 1.7875311853895015 12.193488397495805 -0.9498660379126158 -2.766502116447616 -0.33825536034003684
P 6.63608824574122 7.710320321114522 1.335453788750377 -1.685026449915098 0.14669403375685058 -1.572766429466401
P 2.0595618099717585 3.7288381650050204 5.693687094945895 -0.6237871650341128 -1.7173727274562876 0.06692041597163313
P 7.081381229127671 4.252095575995163 5.825200965396237 -1.7716764831051746 -0.7287969316782997 -0.26674346834297935
P 2.357520012785306 8.459067717836572 10.040778083446712 0.295911091045871 -0.4329868849866672 0.27769482514816046
