# total energy = -340863.26884523494 ev
CRYSTAL
PRIMVEC
9.29974817773225 0.00000000000000 0.00000000000000

0.00000000000000 9.29974817773225 0.00000000000000

0.00000000000000 0.00000000000000 13.61112149106420

PRIMCOORD
 96 1
Ni 0.9150096542288729 5.1041109399007984 11.964325860476904 -0.9408203827705797 -1.6767138162843445 -0.6308384154539394
Ni 9.178767665645664 7.611183528346982 10.508970153135783 -0.3980674474016629 -0.9763674266372541 -1.910017774021956
Ni 7.021105212381706 0.12642263546508561 11.363979692647082 0.7023976157491645 1.0867793381336188 -1.6316017544370547
Ni 1.0757111611482777 2.5114620695439687 7.33712925192611 -0.43902872030537293 1.1211971534918561 -0.8821130987373582
Ni 5.421957730070555 6.665808336659443 8.032290071417723 -0.675401803886611 -0.6631726088102707 -0.05127448190426008
Ni 0.9003569711405861 7.177052688078255 7.136120776841402 -1.1327151814337848 0.6050844464182868 -2.967032479298632
Ni 7.957450348675283 4.543987112528677 11.011151900042325 -1.174888729478041 -1.0113205456736711 -0.042528360280513856
Ni 6.243943864119486 3.0384880934690153 0.2572710210455023 2.9691446405456285 -0.9761707372454156 1.8079799455218992
Ni 8.465802478438562 3.752727346164246 13.08883558977012 0.5716832452500219 -0.2864710286788937 1.9213242001737105
Ni 3.027607388205436 7.188630874448474 7.890312677299764 0.02263187846690296 0.06710502117861346 1.6536011415262815
Ni 6.125065184303815 4.860132048798231 2.78335136460983 0.19907280446888298 -0.9608996700189579 1.3177798445490339
Ni 4.407652805550836 8.904685489980528 8.323513542759638 -0.8435771474456891 1.9258673394597026 0.5231372180205184
Ni 7.990380756656766 7.655106238569106 8.025607272441306 -0.6258533035345222 -0.5455369258719572 1.7493418241637164
Ni 1.6991662730032848 4.506713722189851 3.1345461214502435 -0.93909362988746 0.15050260886966338 -2.5817524134696246
Ni 3.26755948838567 3.2978022691695674 8.628416943539778 -0.3905865656435854 0.740284620602925 0.8150479296577446
Ni 6.90340760057328 5.241551916901174 0.7102171116469417 1.6176134105777626 1.2110942328643206 -0.896732648422746
Ni 4.4744063973303 0.21282659495561174 0.30835174737136745 0.06076442367256632 0.7110192959799044 0.8424026675216137
Ni 9.042740250354747 5.101200118749089 6.6082401060670195 -0.8110508926832096 -0.511023722586436 -0.9943273535497843
Ni 5.23777621917723 0.30812855341724277 3.1287477285170455 -3.8582403412484068 0.23091540290077653 -0.31474879257766436
Ni 7.924482741701447 4.168705078164163 4.476112901104545 1.1330440255281133 1.1157351019360204 -0.8246198896168959
Ni 0.5200986415739008 0.3202907639674214 11.313890319467454 -0.23133295005416935 -0.4405880943726928 0.8530820016123307
Ni 2.4157955609572674 6.979005252784934 4.651096961138313 2.0280257526980234 -0.2277215785538272 0.9094850629924079
Ni 7.923190076717142 7.75784055570309 1.1400868073415042 -1.5467430088194458 -0.7268038125076708 -0.0027431099627759207
Ni 8.777120845450172 2.3926670874610947 11.254124558401712 0.6177720691882844 -0.8269791338776918 -1.01780049697106
P 2.9361257662585727 0.05679449155145755 10.237591414239983 0.9672148136037084 -0.9173433826945621 -2.7757539740631874
P 6.685626099836099 2.6411842556308645 11.797153588837501 -0.200964365064641 -0.07373101113556334 -0.7410091574737754
P 3.618048394346164 7.945109582961805 2.842627958926116 -0.11753155326028146 0.1958069892334176 -0.2835625967828471
P 0.9272285932423915 1.8566947058748833 12.94956628229554 -1.1370847712563898 0.3250334623331241 -0.32292335796865673
P 4.473420624032916 2.288100719953671 1.4328289275462753 -0.75744596287356 -0.20663493308685704 -0.6526382849378501
P 2.883052103917336 8.243389703153296 13.315991236580539 -2.5883894591701684 2.453997382709122 0.5597924073497069
P 0.9445010153672171 3.9136687865843345 4.977069871187826 -2.3531445756561022 0.24045573829104394 1.8791575941079894
P 2.428499016846198 3.3451751859325363 11.062915227877886 -0.015198819227625438 -0.11987202846800003 -1.5923793186013222
Ni 6.9721792376879534 7.144308275058543 3.374006264956595 0.08225961743186479 -0.9334814259070052 0.16211062542223695
Ni 8.601504402546382 0.7081609373445679 9.194326144197774 -0.46489761765233484 -0.5393613931888647 0.43252717174142935
Ni 5.078527332909255 1.1841090248681756 5.4827911022168605 0.14368944260257188 1.9411684885931473 -2.8649684255463304
Ni 1.8555880358523482 4.971319836944688 7.481584098934855 1.0851412883095635 -0.751517513204267 -0.061865884266861196
Ni 4.904259353478303 4.013566680551317 6.866920038947934 -3.742968787666896 3.457377333379478 -0.5214297484111085
Ni 6.7669337973741115 2.190295269306608 9.540198655207123 1.4858304896047894 0.1591209466662937 0.09551442555924196
Ni 8.168908020712264 7.660072304048381 5.760920528250125 -0.6792306907143979 0.4306590081844389 -1.3088138936049976
Ni 6.570625414973345 0.23185015964550734 7.072488180520449 0.8572037370901883 -0.2174677620363029 0.3959665990085761
Ni 4.373243737623278 6.924071640825991 11.010730621453915 1.1575152711966001 1.2777423690111736 -1.1300949702021181
Ni 2.6706923563157683 5.520590858297497 10.250876104384448 -0.8638451536661058 -1.0771019629448548 -0.564547405536189
Ni 7.964983144626992 1.2631289843764095 0.4360149692314628 1.2797468010357123 -0.046305567934758964 -0.5392271816038455
Ni 1.2388101431249052 1.7178029681726976 5.055102197449058 0.12342452170594874 0.6431794535177955 -1.1884813805608112
Ni 4.740407091906505 4.821528794482746 11.842941828526182 0.5568348673832797 -1.117981988988668 -0.3411907888192769
Ni 0.9704845115265681 2.6251049911857973 1.256562432251099 -0.5388710838160075 0.3608805539387204 1.4149595736258407
Ni 7.384669564154673 0.21228069974281505 2.932543503294871 2.7656713930162047 1.8531231177174408 1.0031251543470723
Ni 4.848767756634049 9.158019927660156 11.787884529917662 -0.8324327007930953 0.12882203857243618 -1.7160702065947804
Ni 2.969549060888747 0.10549820226589458 4.227070297167773 -0.37806863568223276 0.4901502215715365 -0.2189700576134422
Ni 4.673672099623218 1.8142506555988356 9.967478371059029 -2.1289631490450494 -0.7417293234692516 1.09489553948285
Ni 6.481980216193484 4.35331437746956 8.635657727401506 -1.4062967557445198 -0.16849467457170983 0.6880050944729184
Ni 7.950949824761401 3.0534141891511046 2.356806328856917 0.35306620010062423 -0.16630178068544907 -0.6973716232894828
Ni 0.23774712990844382 6.27585129981123 4.475744631080239 -0.673440309284866 -1.2775320527725802 -1.2381247546195515
Ni 3.9444974514978095 5.856274565301051 2.7826845726718825 -0.08271778801520592 -0.778036385430402 0.83111809574673
Ni 2.6742634595817636 0.9200575574913266 12.003525228644863 0.8392186133666774 1.267687555878333 2.381241076782002
Ni 4.856188955608695 1.965334363045083 7.505403543714005 1.2027792852407222 -2.204904280458054 3.018152952123531
P 6.9282286282215635 5.676277941047567 6.916600223211667 1.639032756793803 0.8065879718158496 -0.9588091060385163
P 3.2880747326689654 2.5768206991101534 6.250553195086004 -1.3497029185098757 -0.3855065800175167 -0.059885363501722674
P 6.417598060176594 8.773633439916972 4.757658124610726 0.6671686173435413 -0.19988090219247512 1.3539166994809069
P 2.685088366356812 5.079959494114888 1.0223027078758535 -2.0322950694973385 2.176804951118677 2.234848376315654
P 8.420568503735955 5.328346465811419 2.4475514107551684 -0.29307336448675975 0.3131374822264865 0.7503988262187915
P 4.605123656462668 4.950330305508878 9.565174988648486 0.8092814594876125 0.053575362123294834 -0.13295842933831292
P 8.247490892060336 8.497505319672358 12.75515876840407 1.460172679827369 0.7686042934832247 -0.1349824017468772
P 1.0354897506653882 6.321429365193112 8.974315493843774 -0.598996331242678 -0.4155905438870907 2.5171380199233484
Ni 3.019386410895176 4.36108896687157 4.890938394316294 1.937400536910283 0.7137984013869384 2.05651100462191
Ni 1.8017238949235863 7.066050894893569 11.79520715156257 0.5312963567925431 2.449449872547756 0.17376415050076527
Ni 8.717528059698875 4.571384170397484 8.90436836857071 1.954298598217202 0.07095910481738102 -0.591970020523516
Ni 2.4992886992960837 3.7092696233465485 13.180465077711592 -0.48364687323537997 -1.356456178073309 -0.6063800253012589
Ni 1.6912242881356807 6.745283983824015 2.430374776035655 -0.034207756229960445 0.8637397384364931 -1.3694173662196674
Ni 0.6360097717745218 8.682960896053812 0.6107079471500599 1.7122981411468574 0.4334198587590278 -0.5485656853959521
Ni 2.387840518203148 0.4725973882873107 6.594819639600463 2.1208811433678636 -0.0727737894286166 1.8134432826293156
Ni 8.143017522033798 1.8097030787835444 5.43192613004665 -0.45260825876202054 -0.5423762687557884 -1.0343396322766638
Ni 6.9297630866561715 3.5505787219638836 6.471530089266403 1.3399052156931632 -0.5055195049387553 -0.8971633082022613
Ni 4.554412130135917 8.373614075636972 5.835319442933169 -0.6800490728506352 -2.527395693095615 0.8671791031353452
Ni 9.179669741210251 8.339232906953677 3.0671024883626115 3.045065717353975 -0.281312881516722 1.0546822004887577
Ni 1.4348209335868383 1.7959022526201671 9.403909916994916 0.8656737222344123 0.2319898669118779 2.3319792544323965
Ni 3.7688159103574015 6.485132830795495 13.262336339983769 0.4495337336017548 -2.251311149857368 0.09475106503065618
Ni 9.280460410993733 0.294872692491853 7.006325122744607 -0.31050441547901364 -0.19015956113965315 -0.9312327390821445
Ni 6.977201101655759 6.228887571964157 9.892943680053893 -0.3098696101084922 1.7824684315143562 0.5379056345789446
Ni 8.123692645505834 6.463827107924674 12.220309796386953 0.5189987703721126 -0.6200161280274548 0.9980102017180101
Ni 3.492315800189247 2.5816751676123655 3.3099933089388203 0.19194442095421782 -0.3524648190711994 0.3481494795252972
Ni 5.680211734489014 5.570493306540546 5.0526247445582735 -0.45607924802975647 0.12395236918496072 0.5945699200402083
Ni 4.686970739389816 4.476071052238146 0.9272946214538201 -0.9833166042615776 -0.04798167008560124 -0.45641400566135587
Ni 5.3855585160520505 7.1885750759599425 1.261468979342607 0.5936198974221131 0.8472846782042633 0.3214408598858593
Ni 2.627039338788211 0.776460147256345 1.6394191114337193 -0.6642578714546495 -0.3922441558516664 0.7183016885739307
Ni 4.526680281335923 2.6568915301523903 12.657839694582039 -1.4578376039362893 -2.202423680128046 -1.7935637700965692
Ni 0.24846136968123847 5.846537729052362 0.6614064538294866 0.36913122398328685 -0.48066799311271413 0.08548043836200762
Ni 1.4833842181051387 8.79242823080389 8.73103036394861 -0.27905391027921617 0.15495781642753959 1.2905847721914805
P 6.303164659947241 0.3122706612158737 1.2230963587797172 0.24155925576786783 -0.942668748833228 -1.0362892998038669
P 6.0835418090885325 6.4319196722329295 12.646351715768278 -1.7318390393932626 0.03491738070247535 0.14002227816362983
P 3.7375501572837657 5.970893960492176 6.472414495309621 0.6469918852853502 -0.7344677568108319 -2.4962629762465527
P 5.950918101598016 3.1553208287052095 4.438463800942943 -0.011035688988871318 0.3653779275884417 -0.33837671640924954
P 7.9842429229183365 2.168003773138403 7.603281532396158 1.1502925281959158 -0.9956902953355821 1.0652296369873009
P 0.37476682832040853 1.328617810415833 3.077080188086794 -0.6261605503622959 -0.26025477529484214 -1.054396808037855
P 6.137015360597577 8.310431587123503 9.261891603985367 2.079827053640031 0.6422808529629261 1.4093103457598632
P 1.1472262239490683 8.538759002193075 5.389841050046819 -1.4226919092730919 -0.09936568098453209 -1.1588033938804043
