# total energy = -381179.9977029337 ev
CRYSTAL
PRIMVEC
9.11006992762303 0.00000000000000 0.00000000000000
0.00000000000000 9.11006992762303 0.00000000000000
0.00000000000000 0.00000000000000 13.33350819906548
PRIMCOORD
 96 1
Ni 9.661502335564409 3.977757111335365 7.066572741760742 -0.3845115630940991 0.25615386575259114 1.041949840523754
Ni 5.347984491312897 7.667098522556982 12.128212251827694 0.5497964724792596 0.5924937542374699 -0.38786608138862877
Ni 5.7286760885318015 1.6022790781770138 11.995170614336898 -0.49495329938713467 -0.38353634366502337 1.0260897335630457
Ni 0.17978813870668173 6.098781784631526 8.204654589819748 -0.7834902094561217 0.5188100514000742 -0.5822512505738554
Ni 1.0620063880969148 8.445417336771522 8.126373581956663 -0.45334976491373535 -0.6104120292787875 -0.09939113490582883
Ni 2.161755795416523 2.6731040138499766 10.568232138785339 0.8698247682883085 -2.6163535484832616 0.15332516592012302
Ni 5.394126994900381 3.2687203780256255 0.44409768309627623 1.417184092080985 0.008928927058513655 -1.6451144442115087
Ni 7.341777929643056 9.125283626549747 0.20299330852662995 -0.49214282652153307 0.3274060763303587 -2.1487303043696477
Ni 4.857662314000847 5.896820647014365 8.419829883696266 0.318023092453562 0.6769652917189889 -1.237859673883623
Ni 0.5610673354283298 2.430429974252073 5.246401746889878 1.136500616618146 -0.025589161323013993 -0.9601702480521012
Ni -0.4313135221319494 1.2173421884266638 9.147319974413074 0.06291772257014326 0.19807110267724595 1.4003611069863753
Ni 0.6280983180830868 1.2374116722180213 11.52665794414991 -0.5946743068285565 -0.2704473995571278 0.8126017821100971
Ni 6.176253818295486 1.780180521426051 7.732447786324819 1.7687855347106247 0.7253251710796152 0.11544253194173668
Ni 7.449814247519456 7.602571898092985 4.0445730963426065 0.33747400208932204 -0.760362879410039 -0.7760862036825666
Ni 2.1852871057356684 6.3758554478318645 9.363282378321173 1.3778135607031625 0.26020181056971964 -0.5473917196925089
Ni 8.201167255096493 6.839977064370449 1.5921277273877672 0.20199074944662634 0.2590864660183538 -0.3535534241496879
Ni 3.324501335472054 1.6015958229412661 4.4134042936759155 -0.6661072659585624 1.0124253487020758 0.971103350024837
Ni 7.861716943907309 5.380981164164598 10.091852012310463 -0.38996410156823813 -0.5865491066182609 -0.6224712744361667
Ni 4.063209566152857 1.5894794300940098 6.836463310444744 0.1700198529669846 0.11226516265501957 0.47579061041575477
Ni 4.643684994304341 0.33214676822253353 0.4703592813374684 0.6601770165170566 1.6226165202193088 0.35169271679186526
Ni 5.194689346620581 8.562654825155988 7.905957264918471 0.6950848841378351 0.6883290534712403 -0.886199610101906
Ni 1.8989849418178322 5.98663682527083 0.12353983467900186 -0.41583531290804515 -0.9998220581157683 1.73957960257063
Ni 4.805434283780306 5.689366137301794 10.669326583466546 0.5763474834949106 -0.7396649847410552 0.08573883422971686
Ni 0.7480724714384676 6.174377143914633 11.20313385700251 0.5238386149629172 -0.44094676326369225 0.5171437194412448
P 8.131912504401123 3.3216589936913445 8.763061784863568 -0.47791974094361567 0.6930280016088065 -0.9067843762317932
Ni 8.11085913307029 0.026902036148832846 2.255109413780199 0.4752601918335815 -0.1251132222622813 1.7811944498979388
P 2.939910628374483 0.2642421298730007 8.568846028598841 0.8003214220808476 -0.3827040775717151 0.0472537907806412
Ni -0.01223117972686183 8.301532894192901 5.749608295934164 -0.17527750182149812 -0.5730479868080325 0.10679694045159673
P 0.35768775994175733 6.522709773168534 4.035386501946236 -0.06972780351344121 -0.3729729663268802 -0.7978166533811227
P 5.955015772960435 1.8669994867150377 5.598340141774565 -0.3471236093639441 -0.23125607406964688 -1.1964985944383328
P 2.8439178227868593 5.256619601188737 7.3660435115888845 0.21932307007748678 -1.0053918388940621 1.0752065456943547
Ni 6.154535411868524 0.7211759013315205 9.764407862123836 0.24097715801215272 -0.9291424322120191 0.6012445038469064
Ni 8.720441234264618 2.2636792564504353 2.6390742590818252 0.9629061589260255 1.2059504838798523 -0.35173025489802007
Ni 7.566013187945587 3.387342597021207 6.151200215311095 0.7259646044358271 -1.0403339021868856 -0.5465229439343103
Ni 6.435125562015511 2.860798782144729 3.4147784832609043 -0.12436811656614065 0.3798856342863135 1.4858083781176024
Ni 0.8863414669862242 4.273014473876398 9.744567952091689 -0.8537777421277748 0.15000767151111585 -1.0353721873062363
Ni 2.0013092459233826 0.5122892886448229 6.4200037571379465 0.7413290027070393 0.6155256963562689 -1.2764570745408468
Ni 5.864352358211642 3.6671948315135863 9.382122913695166 0.6309052641361328 0.22751100520491788 0.5580800526442905
Ni 0.6708546087222054 5.137086375212158 2.1638547555007395 0.6567451080173722 0.6675997913436889 0.3774579986814273
Ni 3.215080286984539 2.444249950153793 13.138758588589049 -0.16295548992103548 -0.1209683468559723 0.05571092040905889
Ni 1.5158700660294757 4.2737979398800565 4.276189333205172 0.9756305484712294 1.0484207929600784 0.18830168199530797
Ni 1.8598663020538335 2.233242513215335 8.145092953402184 -0.07786303102606591 -0.23090846092224102 0.7817351744382278
Ni 1.4898790368616395 8.130700865116397 1.9414651973417087 -0.454862602013836 0.14907127573977552 0.35375088487247464
Ni 3.722529395539327 5.7207958781461805 5.40779118860835 0.43323679621394423 -0.3419739468422046 -1.1752350570738663
Ni 1.9470496701352187 8.614081169233252 10.505523884255412 -0.16754182374013726 -0.04484261023598728 -1.1428990639453218
Ni 0.6349973739501747 1.004376086479063 0.6760910768489745 0.11434364245060306 0.17988157625241277 0.5427033130779041
Ni 8.832139800204624 7.8530259373086 9.919169728055557 0.4872695575896318 0.565255230236491 0.6914717128652801
Ni 5.932550340809056 7.596522811739167 1.8643311472676982 0.01986768545820449 0.1628017379519906 0.2987393045232855
Ni 2.7051623495112507 4.549833055122059 11.605859069063802 -0.7974183895014396 0.6313935166264609 -0.17406574090158408
Ni 5.026435467300298 5.24472185001692 1.723222542960175 0.08954303846715547 0.3276112503626293 2.181475617121469
Ni 6.700866298372251 7.411151111245956 9.538005318213514 -1.002858530949247 -0.42072606534144313 -0.7407427911862662
Ni 6.68469592445956 4.632907781719149 11.922836660045759 -0.9870583306921968 -1.059119667434821 -0.08838809892710583
Ni 3.217403354786081 6.743975148713015 2.9293046851017195 -0.09772634560889622 -1.2020097540645494 0.04190332510200525
Ni 3.3746704899155433 7.381479613874893 7.074039354976991 -1.3003997013993733 0.4969065664587636 1.1633925559129836
Ni 4.0041125432956 3.966369524072906 3.7433559261318927 -0.22334196142889282 0.39840220503326224 -0.06622056169113112
Ni 4.438471561765021 8.77804420567304 5.560126131942696 -0.6364156524314007 -0.670746821613103 -1.284519025613375
P 7.681847725579319 7.6496345187312755 7.435817536263423 0.11695716881405017 -1.0803510660097717 0.6004181512908692
Ni 3.9092129460851726 7.362448678041872 0.641596708520515 -1.6880654938517379 0.04813593627527839 0.899606113315799
P 3.1002023066808544 4.3090994603936785 1.4231924148456994 -0.36771094659699255 0.03176417978547433 -0.2625937078406639
Ni 8.038188106196182 2.62791806759254 13.39950882870389 -0.858734829022734 -0.05571580550506534 -0.4554763243384349
P 2.475242407647301 0.09518656440944125 0.11372100143781931 1.4488960784722853 0.22193916754409518 -0.041473950874070506
P 0.34523338350455124 3.471993365695422 11.788394804825169 0.5738887375417728 0.5704874251697079 -0.05054943081277746
P 1.1801366633227581 0.8370231930629862 3.801930030982057 0.3338199502765025 -0.3472318528070343 -0.5228639097544737
Ni 7.889520876967328 1.1631372730573597 4.6130469185264396 0.7437358123763191 0.32298686421674055 -0.49611415246445534
Ni 5.369056082783351 3.9432390568253997 5.932931141727113 -1.1405999834985 0.3314172543722808 -0.10635008272216523
Ni 3.454684233056484 4.211202650215772 9.185186890585184 -0.8828826299135312 -0.6511691565914914 -0.28562333596661776
Ni 2.1380878340502285 7.78114748650796 4.973238125651976 0.7628617345724925 1.4059694543120884 -2.5298860636176363
Ni 5.7599236279799895 6.683538945593694 6.254468322648958 -0.15131713435115876 0.1560345944314861 -0.7176095476029125
Ni 7.339054018769876 4.519696944190688 1.5570202513610971 -0.05506145975051807 -0.5563640983944483 0.6785580901274055
Ni 4.549423101980611 2.2674872656310017 2.1875090517623192 -1.0004357804403674 -1.177907975920339 0.7747518011418594
Ni 4.215457052817027 1.8784599545359761 9.368775750416585 -0.7549879882513707 0.07310134797136443 -0.1301394718322791
Ni 7.814945845502939 7.121432671149383 12.014891182454534 -0.4984237744342383 0.7004335500442582 -0.1334867910379572
Ni 6.9983829582261565 5.175102696529152 7.578686206058232 0.007787357254902717 -0.5891646898642369 2.0529194306159098
Ni 4.449303434769072 7.88085720057805 9.890529490586982 -2.0621648604735774 0.7448439578388334 0.7228746526565938
Ni 6.749104118016027 8.863578651118821 5.896250356644261 -0.17240557959034178 -0.01287428485950686 1.863642786301842
Ni 1.0691304626883091 3.405617397060001 0.6044695300169751 0.3512535723719176 0.7520628441847758 -1.172539255409258
Ni 0.8787664439392365 8.054148948503244 12.712432829678056 -0.6712795541881212 -0.2683313816553895 -0.1367991432406418
Ni 3.6467973852090703 9.24289462779642 2.822290517057998 -0.4713534005800075 -1.9462225060772866 -1.3619992193787254
Ni 4.345129786492099 5.3462717981886225 12.995517316939013 -0.29802556628571253 -0.7944217687669609 -1.6570230227236364
Ni 2.06008741633729 2.7929560922699035 2.5568203497746134 0.46969426771002976 -1.271540868186152 0.6949182766529839
Ni 2.6700521404636377 3.2238350640719178 6.145213988438966 0.42661800534584593 1.8511297414364958 -0.3394622361639444
Ni 8.020013516925298 5.864079056117343 5.690780931143282 0.8173123002118892 0.49483348597981874 -0.176610875920941
Ni 8.320144766814662 4.343025360365996 3.895784703185281 0.4017384684953468 -0.5325014328442377 0.28304914748153837
Ni 7.497578343533114 2.5086581437102606 11.004424103300526 1.7825756465161815 2.0985256584907983 -1.4821270726112734
Ni 8.915597149733733 1.1668450714700163 6.965757976222703 -1.0525697821314453 0.49808104638283895 -0.2525291245158103
Ni 3.010613880169638 6.934320947322468 11.738286687849406 0.34257841319542287 1.1950562055648515 -0.5793880700934474
Ni 1.4170895790800024 5.974228910189655 5.965304685803812 -1.4071835292248476 -0.5130826619979937 0.9147198290287859
Ni 3.69959934982764 0.6954472421742115 11.430189592918206 -0.3582737124434926 -0.5897969241315971 0.6331547222919419
P 6.372630483119137 6.125993563153897 0.005772140231595155 0.6132109321801633 0.9893157592678058 2.1969659994475843
Ni 5.872177908178403 0.270257508968522 3.6896220013717635 -0.3953793590465385 0.8906884991111952 -0.8075279671316157
P 5.037786614283517 7.170053113725177 3.950118070538906 0.2815082853569797 0.6008125585158104 0.42123180133326815
Ni 6.311756996648937 5.358042008383101 3.6289944867864325 -0.9435778909110587 0.5644746433167246 1.2386819126746023
P 4.601942654435071 3.399468099938274 11.433763473304657 0.15527791877111966 0.08093652774506706 -0.30622764248053064
P 6.772006833518284 1.7759352288946066 1.5862070930182697 -0.7801955978652498 -0.6272157310996875 -0.037051910546974896
P 7.759337979382899 0.4346587397661693 11.139119218461833 0.15507608717295873 -2.5182747046309535 0.9070198892813668
Ni 8.701328307803307 5.180295436320832 13.1600123814557 0.618100913282613 -0.06425238222116675 -0.8337686459956996
