# total energy = -340886.4747263209 ev
CRYSTAL
PRIMVEC
9.09434401596300 0.00000000000000 0.00000000000000
0.00000000000000 9.09434401596300 0.00000000000000
0.00000000000000 0.00000000000000 13.31049173774546
PRIMCOORD
 96 1
Ni 6.713217176757961 2.4271075467881484 11.566497371799668 0.16669387391754517 -0.3841043003533514 1.2979209008415777
Ni 4.396669566594389 0.7612565921739534 6.25103262504362 0.5159257878737437 -0.3161451587045588 0.08811453355074501
Ni 2.7896444649095686 1.82834505049585 4.913647539231908 1.1488830494428988 1.326430064024864 0.23521814404118843
Ni 3.2302654182254127 4.781942344020033 4.585583640421924 -0.15778680123590244 -0.3770196255924281 1.1362499340599206
Ni 3.803336393503939 2.7693095123478715 2.8117746409219273 -0.6085798611660551 0.4981633216840001 -0.9816279037052449
Ni 4.990521117276975 5.013284259612363 2.568432738788827 -2.372646650244772 0.5242291655331165 1.7313075923698247
Ni 5.774790036804291 3.198280611356232 0.7258541309341614 -0.013399304125041438 0.054188313116945386 -1.8196836071120726
Ni 5.777381924764972 7.864479242830326 12.759916268193923 -0.7202035335823338 0.6628895303522133 -0.6669117641377288
Ni 2.422032902991446 5.282249475181323 11.55208192756642 0.06069937476258578 0.92229789848636 0.9598707145338116
Ni 0.6745111040189926 7.518748671906587 11.457524398154527 0.5572339025939113 0.43528493699222454 -0.4570141011392
Ni 0.8439141728260148 0.647638227755773 4.983886793532004 -1.0632162061016979 -0.5311863135772399 -0.3744978876118389
Ni 8.77568701202498 2.6800758117506565 1.6038211643916693 0.4114001599548269 -0.009238744989448605 0.6136310504367174
Ni 1.660181540738094 1.5043954327855573 2.713423860743719 -0.16280816570989382 -0.14993259529880631 -0.6386846509712355
Ni 1.497701995806394 6.865429207627875 0.7373575663077262 0.9318742293208855 1.1742420970329779 -1.5275396964181176
Ni 7.863624374520486 4.179705808426049 4.0088267276329965 0.03469240917586283 1.5841602731256395 1.0894021204684465
Ni 8.232836540933627 4.139954432018545 13.150099991229279 -2.723409141912884 -0.7424554030019987 -0.7103703495419958
Ni 8.177552025449478 0.10393106948583691 7.103237201606326 0.6414033354539792 0.22735031125733746 0.6063278319070848
Ni 7.146480806002959 1.0464315659924517 0.5418955650005756 -1.5170439390931163 -0.5639712213177449 -0.039265116148209794
Ni 2.0243827237605836 6.380691592918115 9.28593153257096 -0.6134220197497048 0.7939409724758004 0.4669033352284539
Ni 0.17822640108580506 5.144706620734495 1.7978344367439547 -1.2963013629602835 -0.4147449080573438 -0.24565322333158338
Ni 6.527110526837313 2.0598142869002847 7.150941581598448 0.3902410093787086 0.9683419852296163 0.05878364579711167
Ni 3.667576030426562 4.020491132890435 0.278410600958306 -0.315183823232554 2.3259425613200135 1.341224705835535
Ni 6.535686492966866 6.3730068724732885 5.023699102042442 -0.6000607679514504 -0.97478774085496 -1.2489562980174167
Ni 5.455142043674358 3.249409011759569 9.267269939254055 -0.6728026757008672 -1.513466249044187 0.20776390448497767
P 0.3083901050368546 5.677198634326844 12.537856949238321 1.3533659691837594 1.1103375850695332 0.5762513242366786
P 3.7791454392042456 6.387494162021939 13.05121628250898 0.38221171131632886 -0.2262989871746877 -0.2597415831038494
P 2.4848475350771535 8.943486748033868 1.4186184922369565 -0.4814640066514483 0.24946719776103488 0.886335621459138
P 6.575792548779516 8.363595014964075 6.11613076801357 -1.2444532679407405 -1.6835534649139974 -0.4674959745071304
P 5.0534266927999 1.173734189408658 12.774717312600973 1.162736153275907 1.510762991180411 0.24294328059958806
P 4.168619803429309 6.182944183033705 8.523998321224113 -0.5075645603932419 1.3205784903400934 -0.7587299717923062
P 4.968494616783045 1.2878136370535278 4.235292256121758 -0.22791338284965906 0.5372116938357135 -1.9784463991079995
P 0.505008906865404 5.827237117047273 3.814135017239073 -0.6428441816655638 0.9488512234948561 0.7931752979543695
Ni 1.0710226714158995 8.092729081557282 2.8727503967071093 -0.37459276131849034 -0.8040014420355961 -0.0767659413071452
Ni 2.0810404851467075 6.90831813261936 4.8281807158042165 -0.03856114810264972 0.26088546690030556 1.0592353670770789
Ni 6.036388833958682 5.893698580965379 9.524828119492897 -0.46677298029817677 0.2516860597892246 -0.12731382945802588
Ni 8.825414883495176 2.80757851072874 10.10429969388275 -0.7316601121587077 -0.8196396627934853 1.1862676607389442
Ni 2.4850567049827528 5.873845628620931 7.04702688193131 1.1767610068000895 -0.8762568970668974 -0.44558451914601965
Ni 0.6181543654100564 0.25129126798022866 9.246957722551661 0.355449098510504 0.012015279293321243 0.5614502546681039
Ni 1.8255985586919 1.4518846921365236 11.719088636802775 -1.3903939684713345 -0.3714701565291086 -1.2474714859417741
Ni 4.105314076782631 7.478397068813451 1.7108643182990684 0.6057837864781567 -0.9223449496742114 -0.31759268978436267
Ni 5.723025032340437 8.152233372528295 8.715190528153931 -1.9690413037440153 0.48685663842192933 -0.9652929139906473
Ni 7.0797192287420385 0.9349712893394283 5.010068499672375 0.2280486228759427 1.618252072603026 -0.694568863733365
Ni 0.7651262354275321 7.638111933253758 7.005857697337595 0.9068036595055029 -0.24666495242554937 1.8082550535601567
Ni 4.88561786244729 4.959418461748798 6.709565797753703 0.39351248104112874 1.087495904584669 0.020492463526396963
Ni 7.967345364666352 7.677817837942653 9.232236708369362 1.52036631859813 -0.2748344728812299 0.5108103210240493
Ni 4.4019624746404125 0.7479406540966559 10.605932780358662 1.6353946458205835 -1.0119157560555088 -0.02476280876697671
Ni 8.773549841250382 7.695087996670141 5.033934785901203 -1.712940402716547 -0.7239141496647016 -1.4273029256825418
Ni 7.1072750902187565 6.601638673636557 7.267315532164299 0.5240360756857039 -0.9177563018622645 0.36878566771841004
Ni 2.3895933789361803 5.719878389412731 2.568286319854908 0.5929966620158175 -0.19979657000878495 0.3417703154718308
Ni 3.4180636160782956 4.390649111050631 9.534677293743488 1.5832045940805894 0.15472898824618514 -0.29133298475688535
Ni 1.1663495823066463 3.4348153972136473 4.086707049528054 1.7533393753588837 2.0544821471173393 -0.4541540059825856
Ni 0.3788385292425482 0.30236783062435196 0.6697129282714294 1.0761786797996369 -0.7517939067941052 0.1902282095940595
Ni 1.2865040515576045 3.79499688031115 8.509410084460152 -0.7319380484104427 0.27784909133783764 -1.808070962573809
Ni 5.072006437023312 3.454268198434341 4.647903540209172 1.8274740496907687 -0.5365241808503857 1.243697877831955
Ni 4.553546995793528 7.479042767217692 6.194755916659435 -0.5381689155426602 -0.9344335054076295 0.23258841972782524
Ni 8.13971955556725 7.218999102839709 0.291293648274451 0.6383185258810684 0.6297361835286961 0.20295594157337304
P -0.05960978535818435 5.943671999716061 8.332620589682373 0.4087385539622638 0.07152860416760584 -0.42372577139971546
P 8.581786509534844 1.87599031725378 8.156788729298489 0.367629956847412 1.3146767801436778 0.11414283929370664
P 1.8745170335708663 3.382732090719533 10.549189532141554 -0.3894748206366454 -0.06957379443408018 1.1248769163362884
P 4.195038871940817 6.690499506141182 4.026130535432255 0.6345024945690879 -0.6230929671805655 -0.7298099463238463
P 6.890884275704883 4.176295429530415 10.42034450803015 1.6651919316876742 0.9237469722280608 1.8262862000302547
P 6.57323703819372 8.188901766414146 10.757192633440914 -0.9901575384428108 0.31527021229877317 -0.39502480392059713
P 2.5505268854351932 -0.43480239220270733 6.280914819644346 -0.600285739478063 -0.1681437189901943 -1.5962819960898378
P 6.877351892247009 4.4379578870908585 2.164712085123737 1.8045128129089052 0.5817223746535788 -1.8467359832441745
Ni 2.9230675816504714 1.743040106386405 0.36094813627324107 0.29879509746188543 0.7761471388274891 1.9522262890692057
Ni 1.632762094417201 1.3660158987163338 7.17789539752079 -0.15416591665386353 0.5537312887572915 0.36981179499007927
Ni 6.897859637339418 1.0199852144497794 9.591021300271214 0.10170744174383128 0.23904574531739478 -0.9397682873569816
Ni 2.7866160484502465 1.807364399529913 9.359085524033857 -0.32189851624856824 0.29730437184897185 -0.5332930755075976
Ni 6.47864676914443 2.3751333724186945 2.6855515161054857 0.31085254284705177 -1.1509263051251726 2.303871954673219
Ni 4.046564616340518 7.2801949417429555 10.630303802664045 0.2635738123657461 -0.31842855542209675 0.49213537032236543
Ni 7.287579548844968 6.3284900599556195 11.602049889710868 0.806598770449127 -1.1691047758064124 -0.2837826832134532
Ni 7.440819240555432 4.1981400431499125 8.31322690169587 1.5927181899979796 -0.09934151261481601 -1.490954441094916
Ni 3.5072700336443456 8.832690358472528 12.760075419209052 -0.8931744987578424 -2.3609422173236503 -0.6618472051306278
Ni 9.267772856461862 5.256357878605674 10.401057223865191 -0.6488163400885988 -0.7769819760239586 -0.20429265810692557
Ni 9.117170524430689 3.038238350541944 6.157353609235243 -1.8018218963403032 -1.6176555766696077 0.6244818771082923
Ni 4.239710288301755 2.898476476227024 11.674658220550464 -0.7719521269095351 -0.3038825392871218 -0.861116184770717
Ni 1.4525212961970417 3.4366160772705423 12.883397448378275 -1.254029598775266 0.7885557969044871 -0.2621453074493356
Ni 2.9717768866238394 8.54398132268378 8.404416795627622 1.186651012220292 -0.08504103683174387 0.2653890111976139
Ni 5.868698230074455 8.368560526636116 3.6715657190172672 -0.48833527984998487 -0.049012682453276876 -0.38538111018324595
Ni 3.2593673181348186 -0.42521149731381386 3.7620508013105867 0.8532100425497628 1.3946267756057595 0.020795596589112574
Ni 4.028576004459016 3.013483546931506 7.457402776331932 -1.861759196125884 -0.2952531457468979 -1.2155139591985713
Ni 5.151845680556021 5.0816373470245795 11.880132184860821 -0.12785170423936693 -0.0213776943448277 -0.9816692984661416
Ni 8.190084031097966 0.32307110410677753 2.912588169379969 -0.3774703399766015 -0.09175881517155164 -0.6051803485662028
Ni 4.782606231111716 0.7896436766668341 1.7086407512591153 0.48059368823135296 -0.5937903615617065 0.11091790459850576
Ni 5.992572285907584 5.837386404640679 0.6523154487318378 0.5339718467421772 -0.07816822097131053 0.12868936964931385
Ni 8.266085461580122 9.374540451754495 11.544708233676873 0.3073604705333932 -0.06272154739893714 -0.10555895427943757
Ni 0.27796679698468757 5.318581378349472 6.2479714689469 -0.5600109511184161 0.6063160048325429 -0.7188549899742394
Ni 7.672906892332941 6.867548189715028 2.7305803401746855 0.4326238452202937 -1.0716267987628962 0.649368613047643
P 8.647329444737057 2.246466597444235 3.7981216968139226 -0.8850752666894758 -3.2267501511430816 0.5067472066982692
P 1.9177606379674987 3.7519715401638383 1.6506206571834823 0.8644025688314726 -1.1699483547536302 1.0807434163521838
P 4.798548615655838 1.2062828455885837 8.26660020143477 0.7556865569802921 -0.43552559224812093 2.8525808505152552
P 8.823868845062488 1.9531467293885918 12.773279496858573 0.00844324567134675 0.8507253284546961 -0.8289313725080563
P 6.530984717262752 8.131652872686113 1.4495656344874928 -0.3237962474919133 0.7098023928536679 1.40151836051927
P 2.1501029313692155 3.5460483152736284 6.288727770335649 0.333708878619935 0.6566381501258628 -0.0735435777151056
P 6.817865789963439 4.253797426726651 6.045611407926848 0.36001486350431544 0.2440617104747474 0.1439313834100489
P 2.4178585992231905 8.827661186394433 10.631488795650982 -0.6012671295547258 -1.215258134434023 -0.8282315182275543
