# total energy = -381168.6573272785 ev
CRYSTAL
PRIMVEC
9.28081555574311 0.00000000000000 0.00000000000000
0.00000000000000 9.28081555574311 0.00000000000000
0.00000000000000 0.00000000000000 13.58341168504077
PRIMCOORD
 96 1
Ni 6.362880850499813 0.9250448886524811 7.230029226474004 -1.5590174553114247 0.039277971664016226 0.5002595420913964
Ni 9.25113566688776 2.836068789619433 8.602062330108044 -0.2037239300876491 -0.02684925898236021 -0.3533065982462045
Ni 1.6432148265160107 0.3759064474161921 7.519926642327944 0.9311203818739964 -0.30067637364499833 0.25480815035797405
Ni 8.724857730922006 0.8089947847005783 7.326349244296227 -0.779078196431355 0.540177975552889 -0.5741152517302822
Ni 0.1377495791764211 2.9331368411883294 1.8340868667666461 -0.5048726153833757 0.1086764168624967 -0.5802218788486523
Ni 0.5680007710965649 6.4442921659565835 3.4762668823303735 -2.6293399334406007 0.0055155305015905 -0.8545038216605219
Ni 5.474595416733467 2.7467038150944396 13.496980781493217 -0.016786218319403346 1.3427946214258164 -0.4505500906814111
Ni 8.062439509224903 5.664777892376438 12.221878373355484 -1.1221775151272544 -0.4056218627101531 -4.886347362351797
Ni 8.484930083043707 2.37315098254371 11.580496976640811 -2.7310206357115545 0.9885904510660071 -2.7456972638871227
Ni 3.8540536230105356 9.009045588947743 11.039482961481909 0.8117322350209504 -0.11466862989018962 0.1248489128573011
Ni 3.9203836129295433 4.90343545596733 13.136707868149863 0.9900930037534627 0.691981305511847 0.8853897126061009
Ni 8.767029757533447 8.231174019749247 8.78814175712317 0.8939147193579766 -0.768636946493373 -0.4869119171398969
Ni 7.055508127351017 6.777733312984723 7.038869480936186 1.577769024887315 -0.32162366532062675 -0.537590674441687
Ni 3.7798163781018825 0.6120196800354 6.206192838774249 -0.6766163930200024 -0.41015188937002267 0.9246260323989043
Ni 0.7161225899166802 0.9341048209539973 5.090180317469263 -0.41233012796826407 0.12460517227761123 1.483446305643329
Ni 5.522428740931392 5.154685699018594 5.834510090590202 0.5711847083470485 0.900623755947036 0.9304115287324298
Ni 1.9279038485903868 5.84582804535531 1.2828593139127875 -1.2029176105907995 -0.7232546617038318 -0.42378824920653463
Ni 8.310757014510054 8.240881752987708 5.385537637208658 0.9491834100232945 1.4320077873573789 2.182063885524771
Ni 7.253616419615064 1.1125099414539394 13.291300271686858 -0.5669719558172815 0.07891641199124473 1.0799646292046303
Ni 6.5919592248066365 3.984059289553905 4.304542561679999 0.24443272066092098 -0.07133191477576747 -1.9903860879683786
Ni 5.600044202760504 0.8126402891136447 4.7482852754058325 1.1423431914418518 -0.6829652180561657 -0.5576085123245106
Ni 8.230542924280591 7.825593092164168 13.350103520060557 0.3595422947432711 -0.5203002627923555 0.31291071092766115
Ni 5.074471608789129 4.223318718700683 11.120033017240278 -0.12322680387284583 -0.8690156421234517 0.11330748787660484
Ni 4.411190271230482 3.8562346147036886 1.7877403292463523 -0.478402337006989 -1.244161961952567 -0.19997654723007494
P 1.2663023386762535 7.426443769869963 12.604794620881629 -0.9967015102089156 0.28080200331857447 -0.6211728673397172
Ni 1.514991076590026 1.555520398819816 3.0969228207731434 0.8368899652335006 -0.14551852539151067 -0.3589378283900528
P 6.043147468283535 8.025009979444107 5.543566726805119 -0.17445166348609312 0.5928187416770565 -0.8776941437340562
Ni 3.7640946762797474 8.55285637326579 1.6672010947328397 -1.342261631740482 0.24576480920878319 0.22631132846986185
P 1.0929552627412837 1.8410261326771598 10.468192141214184 -0.6261952602549732 -0.1447083707853895 0.489029477703532
P 0.2068016323447986 7.1755461978158905 6.889343474698308 -1.171657109914621 -0.7139868632486607 0.09584378387420268
P 7.18269242591686 3.400054679837452 7.710923045509167 -0.5265637272035641 0.6588634399119556 1.2398905882707227
Ni 0.659930963085335 4.074250256677582 10.56081746630005 -0.7401576081067575 -0.6579512125103314 0.9358758942811107
Ni 7.2992037864098265 6.644924840095259 4.2628280792833335 -0.2677893931089904 -1.5652176705848657 -0.3747048614163224
Ni 8.395583670150147 4.850878196570193 5.774036295387703 -0.2916230051934784 0.8789200457213573 1.523901328334582
Ni 2.648939702346877 2.7407084081421966 7.516666291767073 0.37764646054314965 -1.6196592373631977 -1.127313036581607
Ni 0.8063915158923677 7.723708297238904 1.2715237255978198 0.3482045011329487 0.7517347714213957 0.21768964823912187
Ni 8.97154181264122 5.113033398087223 0.34793592501267934 1.7929919567534993 0.13519888863305746 5.0180127839103
Ni 3.4156186077924233 5.562234159535369 6.710612597566751 -0.5320651166377675 -2.311407343818316 0.07061303433187194
Ni 5.844686505022298 1.696328934856081 11.344580497314771 -0.6194281167344687 0.2381006077953061 -0.5055935527098002
Ni 2.164286224865345 5.551737556961086 4.701979573474686 0.534521291487744 -0.7641789107220195 1.2920145626594715
Ni 7.122961095971606 3.7930786637593976 10.180509127989975 0.5456531397348473 -0.10344396481896379 -1.0712051378444454
Ni 6.490686963718598 8.45002493513754 11.930160989539724 0.08975618291922606 1.8405943891228107 -1.2488585960972878
Ni 1.8921077423755255 0.3488018251189398 12.792015588229766 1.1899898467855379 -1.4979087609255621 -1.6874692550286357
Ni 5.8757308335908 7.994318321872796 0.6995442688040003 -0.07065288643087186 0.1946988437709034 -0.3937803899905347
Ni 8.177855733463435 5.803247662852385 9.242262278982128 0.3265799808846375 -0.2682820164746928 -0.14187398666038792
Ni 1.199619677760055 4.910256855518257 7.297864564702072 -0.9474983090113877 -0.09188222812329337 -0.058390009903118795
Ni 1.5739613796466059 8.615260578137121 10.19099552166697 -0.3072008050270774 0.7540641908855207 0.29495335511829207
Ni 3.4729833297302135 5.837094797766982 10.968591450638712 -0.0968557700784848 1.2043039494153647 -0.48838978723700405
Ni 3.411525768061867 7.599772284173501 13.062814013422685 0.43741586729229825 -0.5090298320848587 -0.050579512719764505
Ni 7.785639180508743 7.11105380940856 1.8151243040966425 0.18955869433086062 -0.7897145930992787 1.6147461163322965
Ni 8.769155064332306 8.898149121962682 3.3335186558095593 0.19263887591808115 0.34906479225071496 -1.9886809323518133
Ni 4.260274926879987 4.793429947290962 3.8756194544887497 -0.569077946416691 -2.554001468608601 0.31530800751524407
Ni 3.1336210222755554 1.787234524789855 9.895352352803533 -0.2998109403209095 0.3399959971802274 -0.24158985189548712
Ni 0.1588272397479978 0.6246350928375417 0.9615231348224349 -1.1770919077769468 -0.5467815969123357 1.8382485145984533
Ni 6.056762424938242 6.527995842895093 10.24280289115429 0.09372108110424504 -0.13083058436203274 0.3338423188740057
Ni 5.750569752850946 8.025938061015662 3.122161071029999 0.3867962453632177 1.484118134899373 -0.11196588624704587
P 0.7615391897022765 2.8685794870709906 6.396714064190837 -0.6588336151152847 -0.25406535865467855 -0.3124108884731071
Ni 2.563277773292387 4.083011346713057 9.167498811822403 0.7281287019666816 1.8327126723818887 1.6128301302565065
P 7.140696734804014 0.5721632169449873 1.874049131156216 1.2039856468439973 -1.020501697952307 0.5173591778861606
Ni 0.5664657241772135 2.244259013886206 13.148606801978765 2.9607070513012363 2.4050235239135804 1.3265635042789348
P 5.320608122381127 6.79926480544479 12.19122105480232 -1.389517222293336 -1.6552381629090718 1.4192479165885492
P 2.33745696530172 3.675602098432015 0.8293271957701966 0.1317446115358699 -0.8534818081539108 -2.305105055749372
P 7.7946879758314 3.555833171622893 13.290458501701458 -0.5184040742109072 -1.0860915680379748 -2.070194929866906
Ni 7.677118602346862 1.8565065332906907 3.66273981593184 -0.3403258697158203 -1.532741295223715 -2.0230264997112193
Ni 3.115903945074578 2.815493221178067 12.288329013878794 -0.25299526551895135 -0.4916116366084114 0.1146236355848671
Ni 6.473777317484874 5.494140814630407 0.19247019671685234 -1.6468949331506992 -0.08567044288562665 -0.17230299257420648
Ni 7.080222939601517 3.415405149030965 1.6027476857515153 -1.0610140562440564 0.030222803440283434 1.994928198813106
Ni 1.6206995675900961 5.216152541502655 12.674844361739426 -0.1357907565807855 -0.2138805589056768 -1.8386190105639948
Ni 5.906088381796351 5.694133112484709 2.434024780903548 1.4712780457119112 -0.6158275438674038 1.081043464091106
Ni 4.505279180954688 0.6970690752526641 13.21972940513328 0.21237723488727298 -1.0284083543938933 -0.41809068460112514
Ni 3.3882309206158463 -0.073997799863192 4.036487545612596 -0.2727256540683432 0.8678635307968796 -0.5903039456750028
Ni 6.418658552950245 8.277605940774125 8.632502477573464 -0.548563628513423 0.6649386995717581 1.0870292493608955
Ni 8.605404351847211 7.479789898602922 11.068714746741165 0.6820103103420642 0.07555957970386987 -1.3804731098131968
Ni 1.2864231471475576 6.105913624967774 9.93637448634782 -0.012782496476648952 1.207554338031862 0.11271613414950911
Ni 8.996265905707435 0.22992756894479632 12.096327498355576 0.6821944013284122 -0.028899970863801843 -1.8793964495916728
Ni 4.779091087010444 2.6758726295533917 5.794140398390719 1.2448363623117724 1.463667323244189 0.8587404854496888
Ni 5.7216043270027255 5.272301476581709 8.337688085553427 0.03663256362136917 -0.1878208857041475 -0.5061244855126057
Ni 9.19365029434567 3.4283704485855835 4.197301808005292 1.4559146758819637 0.03433014074043765 0.38898656814631716
Ni 5.049970255300088 1.141020607332097 2.1951876288718277 1.0187998847698518 0.3617639849849382 -1.022112751193169
Ni 3.9166434441961777 9.03553303699991 8.465440370041062 -1.7011549800458445 -1.1403991803416036 0.07587068318638546
Ni 2.058661261206715 7.111109494302854 7.93719490114361 -0.13694492478988674 1.604146229329263 0.3267661287535147
Ni 3.917237416401973 6.315780710743417 1.7209230965022781 1.618559833651432 0.4606799800265614 0.7971062575776594
Ni 2.725710609945874 1.3234350402211552 0.9799260643047913 -0.14610190869880643 1.9325555501131555 1.390947012761327
Ni 7.339398999273857 2.442887031830323 5.812464440939494 0.8479583072325203 0.015887360654217798 0.7589001788215833
Ni 7.539549070995323 1.018161168889698 9.763865468071963 -0.1151746229923307 -0.4280341689670822 -0.8084008566548723
Ni 4.207652701772841 6.879952217275748 4.388392875506814 -0.3279192685213514 1.242790278416021 1.133503481663035
Ni 2.681431838167004 2.9695269196089855 5.158232826785076 -1.6822560862588123 0.5810073508644252 -1.0224950742332521
Ni 4.6262824562539775 7.358786623303632 7.054571693045318 0.8825291032288543 1.1312828198626323 -1.1045618589280202
P 2.2590340725053553 7.590287290512213 3.2235066505621908 1.2098055959598841 0.0832471781561147 -0.5695667131276514
Ni 2.045417537180631 7.840609451991922 5.60266881744486 -0.5895413564773654 0.314727966642058 -0.14681436138479878
P 3.834220519826413 2.1114505409967412 3.5412502258890557 -0.844108594469127 0.90417856317783 0.7778679781733377
Ni 5.031798418129048 3.0862888621262705 8.62700173809886 -0.04206196216705659 0.008361998811450114 -0.24505364207437152
P 3.8536452671190515 6.55284058656561 8.896591801085613 0.622629911501218 -0.8870367612912208 1.3815342040878593
P 8.148732533748051 4.941774505688251 2.97593532286057 -0.31069030623757454 0.2247126165241743 -0.3030605576064587
P 5.101497344152799 1.1198139434220742 9.325867579274053 2.8520535172568753 -0.5857839463174621 1.2576101170376728
Ni 1.8480517101738283 4.147401646147516 2.7859440320213396 0.8215412506915724 -0.6801701718095319 1.9948261260176035
