# total energy = -340873.9585527554 ev
CRYSTAL
PRIMVEC
9.20031547415612 0.00000000000000 0.00000000000000

0.00000000000000 9.20031547415612 0.00000000000000

0.00000000000000 0.00000000000000 13.46559167856559

PRIMCOORD
 96 1
Ni 8.129224138639902 0.04561148507009678 0.5436319336807944 1.0682900210801796 -0.3574635578373715 0.1545310133027661
Ni 1.4599796963860574 5.844794952860502 3.599272062075538 0.9715774614477785 -0.8230947112216213 0.7587389706533707
Ni 5.470277702023719 5.900668470052429 5.560858490128676 0.6595915763272318 -0.9216497233793998 0.6691044009136734
Ni 4.019001504281424 5.539822888332591 3.70414186048031 0.10476396918196797 0.03232622293653143 -0.935951998934685
Ni 9.017349012931211 5.916989830088404 11.43305474321192 0.35275355395621183 0.09045835119257324 -0.00480847713223688
Ni 4.469669768093272 8.93009321891701 10.88557155738284 0.4701421538807258 -1.3584847784675635 0.5685357007599756
Ni 2.1364605085197663 3.387767844716445 2.876613945456731 0.4989886457987729 0.05629558926793531 1.3071807288769488
Ni 5.688150377904179 4.74726169312453 9.185701909636 -1.2934680072765468 -2.5775733423912706 -0.9348176282199255
Ni 6.392011329534541 2.063115591830479 9.565202051451072 0.48171983141599617 0.12336230100944559 -0.3922081604074084
Ni 5.915444177052303 1.4954653140065517 4.503432166584828 -2.8151797841589774 -0.3825891492604056 -1.3159119381023594
Ni 0.8462671180231706 6.875101505841755 5.9590628737437115 -0.684405292936802 -0.3361655676905436 0.15872628233103633
Ni 4.550384137651115 3.918350050621012 6.79122314771775 0.7711486571716332 0.6097363433680015 1.1689474242929419
Ni 4.18657605427875 5.193311398459456 0.4964711154483199 0.7700063160370739 1.2333471307252502 -0.4802337337887729
Ni 6.152085496942564 3.847250010960348 3.5795447451707254 3.9544376518072863 1.5091354828793173 2.6819817280060327
Ni 3.2720738749011176 0.9644414929488131 5.1937060920026035 1.7895338230015696 -0.9831230001935326 -0.7001921234574134
Ni 4.216881894165167 6.80570352458394 9.550565269218135 1.898049031695854 -0.2020884513667552 -0.49529705587979866
Ni 6.866103597095878 6.517512835876559 9.36669235997406 0.6701084166981557 2.002168425315287 -0.21898162757766804
Ni 1.2560178978305112 4.802951204002635 7.03698382052101 -0.04128728878456116 -0.4809911807800878 -1.9509281390830724
Ni 6.7036444226227925 1.8924865370237145 11.869380634892947 -0.5192772208444798 -0.18704698365260045 1.0755855263003282
Ni 3.000535757594591 6.843415618601676 1.5259477999542372 -0.5372700578774746 1.3147341157441745 1.331614436439281
Ni 8.944178902240054 4.312565177352395 4.8460372024155305 0.08625691151671595 0.11411250027640348 -0.2765712530666785
Ni 4.339853313692138 3.2866287743244054 4.703625515833308 -2.545723287760209 0.23385803046886824 0.22489130819388367
Ni 8.26963015640147 5.477582752682437 2.4442874310066185 -0.6727615380502865 -0.761726849637101 0.8522512781809193
Ni 2.1040293957087104 5.882718654139132 12.74010587214928 -0.20822027529610593 0.5189517191842611 -0.8144005258817328
P 6.554488904639009 9.060075279000584 2.027420207012228 -1.5664528285435473 -2.795313898472986 -0.3391498471298482
P 8.709497249591992 6.848696599808355 4.027208185877867 0.3667493540146716 -0.47185322303456156 0.7728550983397786
P 4.05884807153949 1.4360864765363235 12.801037722908166 1.338238883734334 -0.5555770837167787 -1.8819999486527912
P 8.5756142556554 7.363307057673209 7.748317268555667 0.19057273741767178 -0.6981231567435268 0.04326292445369324
P 6.750952445906325 -0.23738930555594606 10.369300442535748 -0.0189873397357802 0.49157821226731463 0.2353184170644786
P 4.086081005985086 6.610537227829067 11.976539471841658 0.6153464904659274 0.8745558552153906 0.1809886932736625
P 4.076255068827013 1.9466487954971008 3.0804828208237973 -0.6658496414218016 -2.601308481224681 1.4630152914824868
P 1.5801266189958674 0.10020247825468737 10.474265004192139 -1.0358036184166999 0.5388183762012011 0.6275157788386097
Ni 5.3581810556436045 7.597712700850538 0.9559992832706783 0.0659739928979638 -2.00389697797062 1.0959836303407062
Ni 0.7237271933021108 8.058942927075746 12.317380807154382 0.89285388219363 0.5620950873409546 -0.3239101473619583
Ni 0.3924845473498914 3.616046077643515 8.717475763359296 -0.664756665467939 -1.8215317160644047 2.261282916358099
Ni 2.3914840591608053 2.602162088170839 7.6895401317316345 1.5689830511645688 0.39631524059724643 0.07362251058215707
Ni 0.609086659633412 1.0733548300998146 8.6032878852226 -0.29877298597469837 -0.6797132867777713 0.0023132215142089192
Ni 9.188640490467732 4.937873833612319 0.3037309419411836 0.3467266310358416 1.347554504708305 -0.3280696780562866
Ni 7.618155802316116 0.09750310563092457 8.110070001402644 0.9570700118602228 0.49345768867821466 0.6134191915362274
Ni 3.124638815951565 1.659240133623462 1.1301870201867523 -1.0768515374969456 -0.16447758299251675 1.1490463144936405
Ni 3.0980315029729626 0.522760097504011 8.961243647783867 -0.026829975708650568 0.5223504604531649 0.37934133174706924
Ni 4.852402900842189 3.430153699105249 1.9825797083970436 -1.759050823921364 0.8740845720059269 -2.5333979334256367
Ni 7.610537940923903 4.178157765421412 12.135716893707736 -1.5898493530906168 -0.7973736523064332 -0.4998990734281841
Ni 6.998790549992631 2.4601644157947153 7.337872784945218 0.880273217315142 0.20016706597432624 -0.6019096482347311
Ni 0.5741052193127887 7.225035513151971 1.9757254732071894 -0.7703539291844796 1.446695985497173 -1.6035826435163092
Ni 6.313643040477924 6.485228928116561 11.990867123467376 0.26303850868756634 -0.1283247872210435 0.22676718506035787
Ni 5.182666633204877 8.372931300980914 5.299127909348841 -0.7621852773307584 -0.6884054152351305 -1.1214807461705458
Ni 3.0157254788005634 4.783888149890719 8.642957806419396 0.16925417844555365 0.24033181111866997 0.4616150902463211
Ni 6.109064820771075 8.86634423149352 12.775453485034411 -0.0720417963585985 0.7301380190872264 -1.5297822125953913
Ni 5.1150811141382055 3.400381477528915 13.082536101981855 1.12357182437162 -0.8883238555337605 -1.6382490845502433
Ni 6.207324192351807 7.038830323880209 3.403172853309589 -0.9866639234672555 -1.277015518147478 -0.6512360052736849
Ni 2.3004929369760267 7.240823254877864 10.553321476862447 -1.7119091332385548 0.15111376009110103 1.1678217953289307
Ni 8.686312454050471 1.0765657402760016 10.80071060554303 0.14286951780443782 -0.36224735237926 0.2597333555737333
Ni 1.299047774317691 1.6460192799753803 4.675576513385913 -1.6347811806063006 1.5158465763509055 -0.033732102145122546
Ni 0.48152152248188446 5.915554580840596 9.083834174241229 0.260160672919139 0.1909540320164905 -0.15400496559596702
Ni 1.291862327762958 8.519685536569327 4.241378654724236 -0.8735261283992956 -0.2816545811268568 -0.5143131919709852
P 8.951631157949828 2.992807492414084 2.9766094166083694 0.19954845855372086 0.7306321851148255 0.049062818964921956
P 2.052498427522973 4.933420880817836 1.3184770009941134 -0.5873749449536658 -0.31472745242142575 0.011040059864245501
P 1.9639913905747861 4.695059101893343 10.610321112694962 -0.9333238172832184 -0.45700690205034844 0.6496763740960488
P 1.9210811181915903 0.6082310302741415 6.920694590280469 -0.8916477777006709 0.061864598715280564 -0.7999879500008287
P 8.61642685606103 1.9382213063240719 13.006442130964073 -0.592387824787225 0.4659288871303266 -0.46133509711205706
P 2.082666262674023 3.7233309589171952 5.148366936276963 0.09904506442031974 0.6653693593512734 0.829196710354301
P 8.373428118028233 7.068786551770365 13.263702278349612 -1.2707924200559015 -1.2390336395870662 0.35020944737811943
P 7.708466101139755 4.167246191011792 9.816591477394134 0.09277028715520151 -0.026139891620161435 0.7907404632606317
Ni 7.842661905809844 4.819106958356171 7.670190027770156 0.36915719212521586 1.2888482491163482 -0.38542661870920075
Ni 1.5394244223785307 1.0496548168795932 12.67128383065373 0.48316067762758075 0.09477369073847548 0.07380788712008579
Ni 0.9450656281033992 2.8773803317537983 0.9144120162838597 -1.5308947289332795 -0.5445833037094363 0.2835273726695375
Ni 3.8592012210430604 8.913615453514286 2.5979842248155203 0.10826092659163289 0.3942210770723792 0.6079525119947015
Ni 7.327407425846615 7.340950290543884 5.923661899027576 0.3504513881855964 -0.6699130128578978 -0.11383430691435235
Ni 0.6020815392662239 3.1972661080169487 11.721730288556222 -1.3354926884477645 1.9081138721310233 1.5736650300212707
Ni 7.709643741548214 8.672143967886209 3.75913582749217 1.257282558494925 1.8903205527033446 1.1586894940103591
Ni 3.6119519371609843 8.44370932959239 7.029376079476055 -1.064231791850406 -1.059175717483737 0.15880264409492653
Ni 8.023116897774681 1.8161883189975907 5.01305145318727 1.3828593506571862 1.3363401240497241 -0.6294883291839481
Ni 3.1612376717706803 6.060146742241605 6.310272964840281 0.24145923985489384 0.18058400163607607 -0.38366387038182315
Ni 4.317064131725333 1.9929447840546142 10.721802257955344 -0.17585291470899392 1.506331951992251 0.4774523143888938
Ni 8.966590871263524 9.036375265780363 6.118037888664586 1.5431655758808327 0.9950362066913507 0.3542836174474931
Ni 7.276502079127871 3.680503489375219 1.2869088777948805 0.48507640659305495 -0.9188335940868434 -0.9911672106542477
Ni 0.6342495230485149 0.9590961095322957 2.571201185807218 -0.6219015179756258 0.0522378742587939 -0.7572922109045152
Ni 5.4411127012829965 8.998709173341084 8.462626098684819 -0.9780934081894251 -0.8434527060526829 1.6132186239441766
Ni 7.314398179459428 1.6287502874232236 2.6563574677807136 1.4924971029916878 1.6335192831747416 0.5134109918716899
Ni 1.862180697137298 2.3350861239744862 10.258303233880717 1.8275743227140588 -0.6180132386648132 -1.2663276994163288
Ni 2.681321604376889 3.516406658709122 12.978865104711629 0.6305208842135206 -0.29396116640835185 -0.8425705605580457
Ni 4.174974456192299 4.666427719462703 10.97917004903447 -0.41189792552685195 -0.09732088264036141 0.7132067905495265
Ni 3.430917325307609 8.37979473648646 13.165255220328783 -0.6859063029623607 0.8658267028725087 -0.3764293003065969
Ni 8.667240199622862 7.8667115310263265 9.935533158648413 0.8490566825030216 1.8580002433040839 0.6415851124474822
Ni 5.844840954438958 1.5761244816702475 0.9698687591749808 -1.2946872243956284 -0.539453952902671 -1.6789121094872441
Ni 0.3649222416025548 2.4528869660830708 6.6422267951954215 -0.8340229280983508 0.4806553947072238 0.010844913134303902
Ni 5.016821742557474 1.3778484782117888 6.749479475364184 -1.527856456327588 0.6555582867981226 0.8792175223571181
P 6.76045637201521 0.36632252965073714 6.071959027557382 1.3459362523785916 -0.14491277348671172 1.0529845010713608
P 6.97935948325307 4.0848573639981725 5.890213231301086 -1.3305859951747665 -0.2438359676171865 -1.264336637128229
P 5.242569888669498 6.887494331077639 7.642127224849225 0.6727772217795703 -0.6626848705405748 -0.9734618229546849
P 4.37378407796084 2.8280666396496104 8.65483449394501 0.6170004811295826 -0.533773614688442 0.45883829883213234
P 2.2548501708325803 6.943027436588996 8.375247940471928 1.1875159313237484 -0.30217069880233766 -1.764379178112813
P 5.989092704159397 5.357233423127424 1.8902462601529368 -0.12474581162053354 1.278692391629269 0.16623210378977823
P 1.8764227858270894 8.939247533029635 1.350087445645525 0.5003639288797447 -0.7829294518566451 -0.8221104929314809
P 3.080164489900886 7.472928819132424 4.149031406006592 1.5594234325005918 -0.8783379479656421 0.40210690757835904
