# total energy = -381168.13563375635 ev
CRYSTAL
PRIMVEC
9.24635886554011 0.00000000000000 0.00000000000000
0.00000000000000 9.24635886554011 0.00000000000000
0.00000000000000 0.00000000000000 13.53298083599251
PRIMCOORD
 96 1
Ni 2.4359809835892268 6.143336311913639 10.338155056727262 -0.4652750555964116 -0.6546496589409241 -0.6280832213063053
Ni 7.043691260599048 8.872926175086292 3.894426736362577 -0.1322925136195399 -2.0708279354652146 -4.199417246110612
Ni 4.346204755425818 3.727484651586146 6.181486788614564 -0.1204160738969281 -1.376388655331178 0.32209880518483236
Ni 5.93359190728838 0.4741107496438873 5.449324957060805 -0.5773101045184961 0.39617742946780155 -0.26254871353534137
Ni 5.020282809824978 5.223841400365669 0.6854279599130683 -2.2022020510355427 1.4522367128097442 -0.6537029787569386
Ni 1.7015704375580882 0.7202885821277635 4.318766185476715 0.5232007242686021 1.0046007104513344 -0.24075141515459184
Ni 0.8724854984129278 4.295858331374305 7.5639080541162995 -1.2431188654000334 -2.989912469220599 1.4792924313759555
Ni 6.939503288842858 6.181412817743598 2.4327290391743657 -0.3805196683258866 -2.069409714961449 2.4514255082168876
Ni 4.643281019585794 6.3716289124337235 9.675052430307742 1.4642679329426653 -0.7114802947767231 -0.2746976901930495
Ni 5.971742383989307 6.755075414805856 4.768494286778299 -0.13969394828993362 1.9604293937052881 -1.1563526183470665
Ni 4.592916102816539 8.521878914197448 11.459606164823612 0.4775201915123518 0.13040943766421412 0.9254886375095157
Ni 5.996605842992892 4.493388295931234 4.547406449090342 0.4085714322567802 -1.051605618445963 -0.49250406651569373
Ni 8.414824571191309 9.553615376078074 5.31510573632814 1.2435161008384519 1.0532724646254248 0.6260062841726187
Ni 3.346701100568805 0.7412149415241611 13.115651229845422 -0.6897472739750057 0.7326155340934415 -0.09389745878110925
Ni 4.758518390192592 7.821892562242302 6.828024563117043 -1.1919564835936052 -0.37117910765125106 -0.3953952998861384
Ni 7.685628971563302 2.4800306372497243 9.927280155400785 -1.5992999569805553 -0.6273723112822098 -0.3122121421987397
Ni 0.15838088109795623 2.455370598141297 11.389491950142212 2.020507075723475 -0.8630221435441782 0.3100444451234596
Ni 3.9975615478433824 8.328029000471096 4.64558798612406 -0.4125985511383023 0.6259656607426703 -0.6835591428864227
Ni 5.534722478319752 3.821381425919134 2.392252178581546 -0.2483081444559272 -1.0311764040573337 0.3384371373335397
Ni 2.6309866921744267 0.4644011481936588 8.248771061502362 0.8627079547378691 0.7189184962223231 -0.41909238639276214
Ni 1.407046168446453 7.880348043023509 5.333280379324587 0.8454067444552602 1.2959416656280198 1.112077707689091
Ni 9.094256267376663 6.254865892613243 8.434849410597803 1.08797798642741 -2.1207911547572182 1.2298794838916238
Ni 6.847622220743705 2.2454227736208816 4.126693421925333 -0.2921511097828065 0.09812023861320522 0.1363628270341716
Ni 4.252576125500084 1.8120644260641645 3.7507734556740333 -0.5465702522324781 -0.6054402870958089 -0.09033519535114765
P 2.9209432600038867 2.487964013160872 7.3989678060353965 -0.10468143677049067 0.7803511496065076 0.4121478367541289
Ni 5.294807204699069 2.9818120404503716 8.517482270554382 0.3819211766591035 0.5125730693514269 -0.2192611064912998
P 7.0955725802231155 7.107112036093874 6.457113349466056 1.6497773969048168 0.433328327486486 0.6406412604769741
Ni 7.232455676946458 8.703357199754665 12.118338037404902 -0.37892738413810223 0.006939921652942886 -0.6262014309025603
P 1.659554982849167 2.244803267576538 13.16930877500857 0.402674607156371 1.1748493915996732 -0.3086509072100426
P 8.948672346955895 2.5007332347614484 6.7896725157927325 -0.38495122173467894 0.9274537316556866 -0.1896455976177121
P 9.437296181483394 -0.31065361752586107 3.1919022588973975 -0.30942995146791225 1.9923437259153816 1.8137577285459405
Ni 7.163191202645285 5.013449750619456 0.11799371018618303 0.7688999703467725 -0.7919653368066684 -0.879601388059098
Ni 0.8941820795032631 0.7237051117305245 6.696214018870221 1.503123215246966 0.5537690839737623 0.2622892892263676
Ni 6.753161418519599 2.7861960721796986 6.508659950898999 0.24910210111213232 0.28466020072240006 -0.08401259556722951
Ni 6.185675389183038 6.446431955698506 11.851427094425029 -0.21627399883851783 1.4432031418525662 1.7143331692990154
Ni 8.90200597373496 3.188727059261164 0.07141980055395666 0.5340073279658029 -0.602785365971465 -1.1733859196802696
Ni 3.3130720933557005 3.160507171987478 0.7167444527725854 -0.5544249723902065 0.15254380766940825 0.4356942566155012
Ni 0.4652333204920309 1.4184284362164097 9.034644991736608 -0.2501372272448659 -1.6469710378042732 0.6961470068537623
Ni 3.482317446126848 4.013936849403572 3.9160789349303324 0.7858977904563498 1.0995037276788224 -0.5055848109590518
Ni 2.213143734802914 7.409125855890859 3.2927097618504217 0.5497913302729369 -0.7688647462334629 -0.16660362819658403
Ni 0.3042653081820244 4.277411845427056 10.094114982414315 -1.2243055893482722 2.1721329995643046 -0.09028865838392838
Ni 2.4418616678310565 0.4839812377384677 10.801050897696754 -0.4515191394628998 0.6854435043933292 -0.24733703879190955
Ni 6.025537699899629 5.291876108937026 6.743510993766144 -1.9393671737183502 0.06612311688131838 2.3448723083449807
Ni 8.965084633951568 7.0996317317673965 13.335521322070095 -0.12475583892286256 0.1444098657083642 0.7665831492881378
Ni 7.360628703613506 1.9222532847275038 12.37504469873496 -1.0154577077704963 0.284990073257993 -0.3552326116243237
Ni 9.480199286643911 0.696236028797148 13.153096209364508 -0.152473359442789 -0.31538539772039875 0.6600430620423535
Ni 6.830895557546427 7.416966768213299 0.7823566153197917 -0.7329829447351892 1.842233981608763 -2.8724868454105628
Ni 1.1414814953181676 4.875494076267099 4.162082011231551 -0.9018784542897437 1.1579227910476637 -0.4903983330266006
Ni 1.879572092179885 2.945825211725213 2.654087795177237 -0.7334678547914079 0.09559464397787408 1.2733444970537942
Ni 1.8545237059988842 2.9705222362691233 9.290757112191272 3.3577697115874687 0.2225631742813393 -0.7936308974345493
Ni 4.207971690307338 5.129084714657697 11.62135272055054 -0.8143493609288232 0.27236132875038904 2.1892740301199654
Ni 9.207329990007691 7.288812234263992 2.164058514101378 -1.4052541734126185 -2.3390068507031394 -0.9185949957134761
Ni 9.186599653419355 4.952534738378616 1.3460507128834378 0.32047566775911257 1.2714902174538747 1.49337359205937
Ni 4.271318494931198 7.924462421196101 0.40689249456082277 -0.426266278433382 -1.0929080767391757 -1.4311097010231417
Ni 8.047143110693893 4.98800377100701 5.904656351838095 1.8701273655849213 -0.540477766181495 -0.5387967789346463
Ni 1.3078327377627548 1.0268543843968434 1.8130676560016463 0.29335104362817865 -1.4490084356804334 -0.782145522502769
P 0.050468475988607896 8.711762139968224 11.557625890577091 0.9687942422756864 0.7587461697422223 -1.3016438582191197
Ni 3.1995637918577433 5.25305064803853 7.721309745809838 0.09913942390633894 -0.19422010436227197 1.222187771674321
P 2.6178938480133724 7.353416543694281 7.37213209868467 -0.3196392879007463 0.47676145896945626 -0.19245889869679111
Ni 9.493883897772696 6.730766737334518 11.192709091382044 -0.11351137635729483 -1.6536263383372618 -3.0370626445438407
P 8.194881432731558 5.052441645977625 11.650651657904449 -0.64188875973083 -0.4127643872922052 0.7290902945490024
P 3.962878455719007 4.172419440449107 9.69073795349617 -0.4347738016837609 0.15226715696925391 0.07050633355067856
P 8.269157433540704 4.7759292839463106 3.425400559461744 0.3378025890733343 -0.6796958032762745 0.6771928343487627
Ni 5.733019890662957 0.7147860739637496 13.493545293715638 -0.48387184476199246 -1.1776374958677718 0.4629492356767123
Ni 4.516485700390495 1.97597462976686 10.64140234079761 0.4824549098098079 -1.784326053548385 -2.2366602327134126
Ni 8.88250540287644 8.015659258738815 7.309230968558382 -0.17202428499152309 1.3444527258545298 -2.7808568425073914
Ni 3.7402168877512394 1.1546205712735762 6.013677395376052 -1.2245989522189749 -0.33109355248427497 -1.0344453046165927
Ni 4.392223883525796 8.537791897814095 9.217488964499042 -0.8429672817758321 1.283001560527584 -0.0840745591534165
Ni 8.621804314514197 7.008065039869851 4.450456527058217 -0.5439204733144568 -0.528371212725948 0.8777576499821399
Ni 1.534581196351416 8.02817882864988 9.316915986072656 0.24332714630156804 -0.5726998594399944 -0.2421688643274087
Ni 5.977965183509356 1.0874457740772046 2.3204190657860644 -0.25390286493488534 0.35281371777018594 -0.22036051020306568
Ni 5.212634813414258 8.015908910428326 2.4158535095992666 -0.41305697883195963 -0.42987713571309194 1.8225506442472224
Ni 8.472272198855599 2.7228122821203553 2.2704008874744646 -0.7135742011912742 -0.1000411097850019 0.13848347292160024
Ni 9.183372674173446 2.708951990173024 4.527647904819327 -0.30749519633904465 0.05247210175678705 0.5229618687849188
Ni 1.8170851989310095 7.663030870483064 1.0278030608169875 0.7931215618982985 0.517186142643406 -0.11895208775689194
Ni 1.929973994384623 3.279036246352281 5.579796628543134 0.6048995841009904 -1.1133966836108309 0.8357532805258961
Ni 8.003851658460801 0.17420047649001025 1.3892959333221757 0.17181088342913634 0.07656848058435844 0.5483882792778233
Ni 6.372849431804669 7.845461531003974 8.387173334988178 1.2930103509138375 1.2594469131360955 -0.7294471636677888
Ni 2.6878887846653385 3.258019272638949 11.399790544652511 -0.38439123546615095 -0.6336185493022378 0.9372007837401214
Ni 6.213294263130122 4.503106219104446 10.684586535267801 0.2718566211998285 -2.459996280605034 -0.5635760427618552
Ni 2.1750672289729542 5.085996682319763 2.0347380142984637 1.4221751175376731 1.9183959707833218 -1.2886291911270067
Ni 4.844703701227331 2.7390396419386116 12.587674891963795 1.4915925888995472 1.5565435398496354 1.5602461855122032
Ni 3.781113533036794 5.989393683073667 5.527424327263029 -1.0361322054007125 0.2680269630410932 -0.7978529059356969
Ni 5.4210939741564745 0.7913597949522909 7.476701020426336 -0.001312805274152578 0.5030941833267143 3.301477464753643
Ni 2.1804578561946313 7.815392371956128 12.302075208434257 -0.09093374816709501 0.7472399688748357 -1.5100770208569798
Ni 8.501499939246202 8.293059271221725 9.499882010772184 -1.0697239253132287 1.8047210722649694 1.9104162950119548
Ni 7.5635123099566295 4.426037817916317 8.605148848280223 0.0024996264934021464 -0.6562581410786247 -1.5394459609374003
Ni 1.1053559712099468 5.947387474723616 6.3325963330965225 0.6244849624320858 1.1156512839729624 -0.7336732859339945
P 3.7178869310782545 0.44647338297906203 1.7226539850552895 0.3340878592259085 -0.10776418946087248 0.7814844918800025
Ni 7.1521602965124185 6.3547543074945105 9.752326100662804 0.850113148791994 -0.5067029837238951 1.0018018075499584
P 2.854850286795398 6.12778393629295 13.397055840355279 1.8099494105434444 -1.0169995983363196 1.2029340656510314
Ni 1.4392789754700663 5.047124989626914 12.263911786830912 -0.8234567225467302 -0.6222743279340122 1.025404277460247
P 6.4628165036175655 0.4806738151703821 9.801085849532088 -0.3787579484397735 0.11864098427437632 0.13527936416200573
P 4.452769041411804 5.935949728800435 3.30499724815383 -0.2528906216202871 0.05046047064339697 -0.5827557010140996
P 6.443676540755007 2.6758777644921676 0.8364968204159948 0.7750842447806136 0.22340983855235075 -1.1241626638780833
Ni 7.840551714443579 0.9578395617851821 7.930760116223004 -1.3116109967341605 -0.5533811045067244 -0.7038587736757234
