# total energy = -381162.0942918367 ev
CRYSTAL
PRIMVEC
9.36374089687637 0.00000000000000 0.00000000000000
0.00000000000000 9.36374089687637 0.00000000000000
0.00000000000000 0.00000000000000 13.70478130402244
PRIMCOORD
 96 1
Ni 9.227573438130246 4.864969070294546 0.996458412528464 1.8103204207296177 -0.2504827835097428 1.7181409730808797
Ni 8.942344524773326 1.2550596557198272 7.051973772456524 -0.3481926740584068 -0.7296986175569627 -1.3730541916413064
Ni 4.692423415640135 1.9892986755503093 8.963283722306196 0.5430444984674067 0.3636491178227931 -1.052923308816122
Ni 3.511496497093965 2.8925157647297626 12.717913498901089 0.3792721690720307 -0.49815175171977427 0.07756915393473093
Ni 3.3149047556564355 3.1995621945215227 1.3599017177431394 -0.4778986578976931 0.2927033827418507 0.179214117871743
Ni 8.031083982109955 8.409482118010503 7.157595834101734 -0.49557344946963683 -0.9708722078506378 0.216026401604086
Ni 4.531179796323428 8.487397806531659 9.094259985346518 -0.2876259682189433 -0.6880292628426343 1.1606828702913043
Ni 6.183730255759527 -0.020706040382986807 10.855968255014005 -0.4083181785953936 0.12901204309605524 0.49330162271632455
Ni 5.967615114422153 2.0260232675921284 4.318143453013426 -0.603782953998044 -0.702118651056165 0.4620938296549526
Ni 8.107866657975054 4.814180139332071 12.779078391220407 -0.5170110505181225 -0.45150731238835795 -2.332191884663835
Ni 8.000970191185303 1.8654257464016037 11.767431990856188 0.10668278347123562 -1.0995849745387192 0.4800506712436894
Ni 5.026081597237824 8.149591487689063 6.8965066449375225 1.353812569802875 -0.42045969905393393 -1.2018398041455882
Ni 7.008226374695336 6.666215736162079 5.3581853978362926 -0.06677360598112371 -0.6392217544216281 0.7483000347082338
Ni 7.598994155549594 1.1076462817997976 0.20193469202882483 0.3870183886763528 -1.5335815317368233 -0.36033548006852784
Ni 8.365219714496561 0.2892038213940845 9.866497065989265 0.8276944147771618 -0.29314432693401127 -0.23059838588098996
Ni 4.255295896443747 8.182027486371588 0.5470718836683457 -0.5980766476418861 -2.6590235765479626 0.487391942100109
Ni 3.5957608019854304 3.7111033631203423 10.539977579858057 -1.408622061443587 -0.23000548949199745 -1.0601396240589032
Ni 2.4446012159484236 4.214872626723061 5.656854088591895 -0.4645006393242323 -0.9907445212945324 -0.3024038978590663
Ni 8.928645371750077 7.1413132249478535 2.05494973616316 -0.008344258199637241 0.04139913177207709 0.37017097810171085
Ni 3.5254484711231107 7.0412335615763695 2.6376225629582257 0.5520562150477137 0.03597281855018321 -0.2464587499520143
Ni 7.888867484422259 5.765639221933108 8.911534071521311 -0.28383076284256925 -1.789338676271628 -1.2429458301572789
Ni 8.6667228096405 3.4591625488732287 10.519515933114103 -0.1693606221164309 1.909046411247622 -1.1748154530379442
Ni 5.19500348414104 0.7745330699259321 0.3949466752976677 1.1077785660931052 1.135641096831328 0.2036570814054557
Ni 4.968335406742694 6.033563941997505 6.19121750303047 -1.6539652097339193 -0.7989924188567789 0.5785228938796747
P 7.573234504170951 8.165959306885673 0.5105795124023139 -0.5499718217148593 -0.4415193479377106 1.583045957015538
Ni 1.3912739954527034 5.700804679531896 2.829886383324432 1.5827695634257 0.13738638320267954 -1.5294734231057208
P 1.6851362779739694 7.658585003013678 1.357559846129254 0.3018696226221511 -0.7066965002348344 0.2472838169564709
Ni 5.897976972908893 2.6166880472958356 12.949483494691554 0.31384504981647243 1.3666781129116332 -0.9009546569238934
P 0.7060962963777316 2.084902470743316 13.081323094648312 -1.9012297434166805 -1.9192146100298753 0.35114867136293715
P 3.6318767508649037 9.244774630272222 12.548687290416702 -0.6974621261207601 3.4899982047382925 1.5473253636854771
P 5.785406079097891 1.4841435782856358 7.02900451588371 -1.7531205744798584 2.4569292116439367 -3.758471254177869
Ni 0.29224422808352324 5.547688787367739 4.542285193100991 -1.1415474350134343 0.11254129913454165 1.402473525343688
Ni 1.23267095108648 9.121866166442308 2.826830058275363 0.1669381287178673 -0.5382149382892473 -0.38545592928523936
Ni 2.2949405441981963 7.371605070097393 12.899639365191858 -1.4302686931790851 1.433027743981461 0.5509809797056641
Ni 0.4326141960540739 2.0095992659497646 8.95001717411526 0.5191548363340026 0.11365124436926878 0.8231163084881761
Ni 2.646455379805 7.376071574534912 7.507725772420678 0.036918470292904154 1.247429576960245 -0.31452099283757445
Ni 7.91867227189526 0.19722566670046413 2.3275787996854387 1.3077317162844122 -1.8983539645307823 0.6506814183217956
Ni 8.86786532918418 5.974141641870687 6.5151027481890855 -0.9194082356433908 -0.8787547237880866 1.5276052595487304
Ni 8.396869158938516 7.821073999877952 4.118108664025215 0.34783631916025254 0.7845929556019972 -0.2964258258987605
Ni 0.6191314885936445 3.300081953718088 3.770596827678451 0.8341735947436021 0.8105747243777396 1.2830663523272483
Ni 4.07480978945597 1.3779213008449438 10.989932487794396 -0.33605423892365993 -1.1145871043745061 1.4725754243670963
Ni 4.615799923371343 3.613186723910424 6.982188620210205 0.4854577011918736 -1.0446194169361172 0.7131296574546879
Ni 2.675295701959208 0.5685017412274754 9.116640262613002 -2.2874300070671123 -0.23103290231524728 1.1022252403750439
Ni 1.560738979331551 5.427626900789411 11.553816031980814 -2.531502516175137 -0.22073691970587794 -0.6240746143675446
Ni 1.4320343598479195 2.447213699676029 11.161338575174076 0.7735978900430741 0.5430390991507681 -0.8040343521560605
Ni 3.670904823182676 5.452946456342974 12.229818201289907 2.4348020407275937 -0.4480995722583896 1.0317651866812685
Ni 0.85265476074819 0.11005953848575516 0.297587178674819 -0.5353227043431168 -0.42517253114857095 0.8995485206049864
Ni 6.598834256219975 9.329170027537115 5.2093384351754155 -0.02950675120986531 -0.6650276597411385 0.2850402097696382
Ni 7.9599944607480255 2.2968975660586604 3.312952415666451 1.0624389616160412 -1.7578886852924631 -0.41443637567798947
Ni 5.4046670079575545 4.139972062790753 4.946959858881128 0.6652860556088478 0.335782473319512 -0.968375409570713
Ni 6.802280256039608 4.523754349742816 6.952887602000806 0.8122243441660205 0.06362014795380656 -0.2507604626511617
Ni 3.60945059126772 0.47873998401888784 7.086824679932416 0.9972620106980761 1.5515314313470245 0.5037613845970679
Ni 6.181454866706451 7.110131967553856 12.688886838301794 -0.9093922461682855 0.2813897575012444 0.8759928447722333
Ni 3.0750899859514313 5.0976205781657935 7.7284001192310665 -0.4751622328031365 0.8886838099763404 1.3584541823399443
Ni 4.971706353487992 5.342931863813824 9.663542662569988 1.150439338186425 1.7224709679148014 -0.9194023221061199
Ni 3.8018848317193825 7.747971274209803 11.348326863883893 3.113495627991599 -1.967161313112483 -3.0718234450637936
P 9.28961758572563 7.112070261932402 11.233658492098039 -0.48913720692598983 -0.2218880025911856 -0.1940990054033754
Ni 5.9471553404263915 5.629893069248189 3.1811952166301345 -0.5009637672472728 -0.5575617182469752 -0.04086717052800704
P 4.7040531819114095 5.333343393071646 1.1356757039869423 -0.3350111423711263 0.21599014904951191 1.1012682757784131
Ni 3.1004750876917098 0.8454643440656524 1.218793886985007 -1.2828688916044615 -0.23782087177135816 0.04262451953874594
P 7.6825468161281645 3.27625123297703 5.170595020582803 0.02993046901084523 1.194621432020278 0.7943862875433352
P 2.965468670542565 5.9110300278059595 9.957976133289762 -0.4190643613683041 -0.6525909766396826 -0.9931572445010832
P 6.256402249343555 1.460790408333495 2.220982908980476 -1.2712323358067978 -0.7841579249471077 -0.45063545130636584
Ni 0.9496050618911235 4.328988537792323 8.959048502270369 0.5996208522005544 0.21464366232394644 0.35606667748984483
Ni 0.5097967036581282 7.862667737218534 5.849666624178306 1.7507700719698105 0.10268009006974574 0.36304567991083925
Ni 3.8222509683055517 2.176404947396211 5.093190592318016 0.12570483309969321 -0.006378649832834177 0.8582347494578639
Ni 2.9308415564755976 6.366089110939136 4.8541651859758685 -0.47025656797140303 0.648145025053187 0.5204298463916843
Ni -0.02220423893645214 6.997364435182713 13.458780174582465 0.44165715906715547 -1.341665907138012 -0.3102758444079753
Ni 0.9969668636625463 0.10041301254963024 11.701416680720026 0.34317413779789285 0.3219057153374198 -0.9915202231182924
Ni 0.4907592819140635 2.055050864565519 1.8038647678397133 0.301821542993035 -0.01877496661465799 -1.2632418614021534
Ni 7.584658268141124 3.1574909063920247 0.9144142506184146 0.3765485994932805 1.3865568541134314 0.061465820614965104
Ni 5.578092854262126 3.4689570219165082 2.1311752694411883 -0.031440477897468434 0.5302067232727902 0.011615215641425158
Ni 7.064961281166877 6.892593537590691 10.61916392802737 0.10046097093123987 0.665964312622795 0.16729782605013122
Ni 0.49980933755108997 6.677330496680599 8.433346548219014 0.6873528056009002 0.7823992903847881 0.12490444868558488
Ni 1.7533136758976011 7.6925566552135045 10.235648507692643 -0.1643143179417751 0.2007314231182285 -0.87126381472768
Ni 3.6836769658509683 4.527050386560441 3.278800043266113 -0.7019065350453588 0.1307043431968136 0.4345241475668
Ni 7.949862893030216 4.422167124076908 3.0015939831629974 0.441684155650349 2.3222833673008716 0.41926207920140696
Ni 2.4697147692008867 5.675316576641067 0.7328934502546509 1.2010260499950414 -0.15684500614792343 0.4885173139538038
Ni 6.427730617673275 0.3570001150606786 8.444708511498856 1.0152417351049483 -3.374568271202046 2.31063138488424
Ni 2.3021225335138706 9.342494630921998 5.416157254488538 0.14499324901565996 -0.6889890556527425 -1.3463548279732491
Ni 7.123325478565311 5.856682875279004 0.9260608716234159 -1.3749938318661803 -0.35242548119283174 0.32981957086785774
Ni 6.062675812639529 7.644623665243573 2.066941879209554 0.43082330167644517 1.251634101959896 -1.011811883487793
Ni 1.5727245677592736 3.8386656062069564 13.505034245798418 -0.4076548339797818 0.6596131735937866 -0.6250696312909623
Ni 5.907556079910112 3.4724496972942744 10.579638641064667 1.4579522751372826 -1.079314397215141 0.6691825624497766
Ni 8.16098716043636 8.685450291558817 12.346404267224194 -0.46741318498533696 1.1052447439276578 -2.3769812730643833
Ni 4.653582618141547 0.013254375327688615 3.1982025793342537 -0.07761543379163408 0.47339254249722346 0.09226249428084755
Ni 7.221420028853453 2.419965213484878 8.61679908834265 0.9816872961882708 1.6047789778172556 0.21028024314892815
Ni 2.673432317508335 2.736796752578959 7.9936149726618835 -1.1687072832576777 -0.07730433030911847 -0.3857402932948776
P 6.484952438674691 7.413329899811403 8.427467055270759 -0.3711960769321156 -0.2861555543210039 0.5622197858442769
Ni 9.207703579814913 3.5995718445558076 6.837987009439167 0.07400431940160802 0.07996567919136552 -0.3439359556645819
P 5.9017599242563925 4.881870622725827 12.304317060735066 0.3549767868597758 -0.1508144836831274 -0.5909462072446918
Ni 2.3345772596783134 1.7950291418706514 3.3682378150375136 0.6432275331469115 -0.15682032355757508 -0.8393746793285672
P 1.6763156339904421 1.9944861880416829 5.4982351258660405 -1.1889896876557975 1.1515279432649135 0.5545689541672385
P 5.490335873992894 7.4614688920824355 4.141763346436241 -1.534864255103989 1.5208093196728194 0.992521667799613
P 0.6468481618327533 8.923504677963498 8.115560843921195 0.7950429472907276 0.28998495536942315 0.3364147075868722
Ni 0.07157643589180626 0.582034219661651 4.615236226165601 -0.724736645565997 1.0455794668565412 0.26530365057265926
