# total energy = -340868.0430331455 ev
CRYSTAL
PRIMVEC
9.25198526381967 0.00000000000000 0.00000000000000
0.00000000000000 9.25198526381967 0.00000000000000
0.00000000000000 0.00000000000000 13.54121563860274
PRIMCOORD
 96 1
Ni 0.7942773681742464 1.4801603295144805 2.832998541112392 1.1449307496633703 -0.8696327068821603 -0.24193309416751885
Ni 2.58109104246677 8.354209458378163 4.633410783079734 -0.6122470256049972 0.5942552170132669 -0.6332776210230513
Ni 1.690689250075428 1.3805257021569401 5.027514816059672 0.14738797450008165 0.20019149145435847 0.6409845027490058
Ni 4.1021358940625 1.90717644902975 1.1897164626016443 -0.7657292859282748 0.41544579077911026 0.16242224312538478
Ni 7.915128750314817 7.2563226485181405 6.092829087236905 0.7091765863442109 -0.11033760661500351 -2.093685042569046
Ni 4.153789726780222 4.09587230016139 4.149285860441876 0.49090201213589646 0.8545652710260765 0.9526335733554239
Ni 9.073033187407486 1.2994690608458233 6.406443625591307 1.1000128061047572 -1.0009836825240375 1.0417526369112833
Ni 2.209374037791878 4.188725222453179 8.041342480418457 -0.9984866271337967 0.37141693469367004 2.1447402093736483
Ni 8.340090929141686 8.352793904660482 2.1981726594520343 0.29363746452034595 0.4289309697497387 -0.08704161220154041
Ni 6.597710838408205 7.1589640094909885 12.69797667125473 0.009264198910745336 0.9906301072038552 -0.5377189724894351
Ni 3.3835527166453327 0.6808831886014457 6.8072497965652845 0.7772683969161259 -0.9528860556858623 -1.4809618486585785
Ni 3.2039346782462896 2.1713761350564873 3.516152166853177 -0.23668264440185688 -0.2884458930170774 -0.5060044149949737
Ni 5.185256535730244 1.226285858840238 10.945662724137758 -1.5848858384377544 -1.9070507209738317 1.8035977572938036
Ni 6.181343753723331 6.226225133360385 4.580316416284607 -0.10489226722971612 -0.9525248156917016 -0.5646924157544855
Ni 8.73609439465914 1.0567802401367834 9.614452878068096 2.1610530876010587 0.9150751554856756 -1.8692639891433613
Ni 4.788226099868591 6.666129268096107 0.4044801342503889 -0.7623020054142807 -0.6750050826688245 0.7535538269080054
Ni 8.763304482787893 3.461287895311695 9.440637684713037 0.2410949145369396 -1.4329930340887838 -0.15185475202218363
Ni 3.9266627449805873 6.552366859517007 5.274330022115676 -1.1343228922405368 -1.9591189024239808 0.9638901201058495
Ni 3.411317923879057 0.6344585778525675 12.923153334598892 -0.24136385192761015 -0.8217487387166881 -1.127197079829033
Ni 0.6519661092249024 5.306115216867913 9.94378838947533 -0.3639954454186183 2.6299557126477286 -2.137305093251842
Ni 6.845414235032167 3.076756891297013 12.810342030086312 0.42283771236780726 1.1947615571425683 1.7486327139118336
Ni 9.026310662738938 3.199336441660098 0.5856275257836323 0.3679662571409082 -0.2502395571506852 0.3162068651804296
Ni 6.349378306798608 4.060464953249206 1.3937023793119785 -0.8440463737726237 2.052228575196472 -0.07213538451366931
Ni 6.252630298786927 2.973689777473724 3.63735964782847 -2.453848001615451 -1.3826672892510379 1.0021257665482806
P 8.664410014236982 2.285425355173156 4.333039536172967 1.3167061518688807 -0.10474494301857444 2.4582296756229147
P 7.592576794370352 1.9078981038662148 11.42160889196235 1.2090921148326272 -1.5933126290488688 -2.2130168822628598
P 4.465729655834624 3.1037079238434444 9.976557995440384 -0.1716967264487753 -0.3892547342060393 -0.21741788263497397
P 6.162266160482432 2.003165794264636 1.3693826113231184 1.1703003387764102 -1.6148980685291283 -0.22010802787262737
P 7.892489142817008 5.080986663846181 5.393465983630914 0.599206133260639 -0.1336593120600795 0.6488906449699599
P 2.462730397301479 4.855219723853729 5.631736981462877 0.7403928640460152 0.02924758401120769 -0.6910395104238679
P 2.308573821850523 1.0867381678351506 10.934572369618909 0.32440354205860905 0.02773371846984256 0.7766778145199784
P 4.90545800285377 5.506096874434377 2.5178130156909164 -1.6853437240452007 -1.4618901767391081 0.6690776614407962
Ni 3.608274182323419 4.520566171420857 1.0129952207320512 0.5266408602984026 -0.683145709498088 0.2521640278669076
Ni 9.144088432844008 6.226937536211767 2.748636165531163 1.0709130605253234 -0.05521855415367265 0.9298353445139856
Ni 6.570759805861774 6.606842547685008 2.124873807632913 2.8989733217368654 -1.1698005163218563 -0.6862523734478697
Ni 3.2707525145148533 8.613894175684454 9.928961158181506 0.5714346195743255 0.3111263653337287 0.8493001659723954
Ni 6.485706306994854 1.9916378208513668 9.472838293595494 1.8488725699712028 0.8878767406940128 -1.5797055797883954
Ni 4.580278483145768 5.04857696010085 10.813526798382568 -0.3015898865982032 -0.3996188510491827 -1.5916524677376265
Ni 3.789113482753402 6.996610175256601 11.738594853680954 -0.2996582167931291 0.9024392118892199 0.5117220342050414
Ni 0.9142460083469421 6.402262653532354 5.040717398772943 -0.8709408841706227 -0.8957363459477476 -1.528441896517413
Ni 7.797184444478256 1.3904160742105394 2.6660076119544645 -1.608169491556043 -1.0990242169392426 -1.2014603093189824
Ni 2.837972408292949 5.794490501452846 3.287359827738624 -1.3466582181462807 1.297664047635765 -1.3176716011059435
Ni 7.910077166459565 3.1358215640661227 7.181935763253272 -1.4749022727280598 0.29628030145983164 0.3803690016806352
Ni 1.542944300286908 0.04577512139605986 8.355444598386727 -0.5196310046394729 0.4792338317693488 -1.5212109259866124
Ni 0.8216197596896834 0.07750202864227389 0.7330468056972346 2.2359076708181043 1.0449266637638908 1.625792089733813
Ni 8.65643480309554 5.3238882802121275 7.927379303763059 -0.5549289086098185 0.6225484075310053 -0.9077081735976431
Ni 7.562008235656515 8.867185771298475 10.617477234476327 -2.366217092569344 -0.8711067203245256 1.6701595601055945
Ni 1.2735079907032605 8.579967146385531 12.189071231770885 0.04557614596790215 -0.7779373979586925 -1.5600561809885842
Ni 4.618627961314307 7.723621911084272 2.9352616574319796 -0.9566972019018364 -2.0966592947060216 1.4418684822015426
Ni 2.0409323973729543 3.5991702290018637 10.436972855906344 2.2665107404159417 -2.414078177916681 -0.8814507825630109
Ni 0.41754856317995775 4.2389172415278065 11.801237269081614 -1.5899781653589973 -1.0851063213065697 2.7277905588100313
Ni 3.4261488559669147 1.474498114643758 8.99307290632869 -0.41520359286131714 1.6874553710715647 0.25546223900220516
Ni 5.9983117328287054 6.408239435895894 7.0082556488804215 1.0503169815415265 0.9460698040949771 0.27675791515618786
Ni 2.8549775568752835 6.446107810840124 9.521654542488296 -0.14951581947636186 -1.382487312029748 -1.1951446515135997
Ni 8.246932691342161 7.887021219633025 8.193180508407643 -1.2905158666267582 1.1912347749362322 0.09251009151527939
Ni 8.079564281192853 0.9407233392571297 0.044170827182688374 -1.8527703623637122 0.7236439267224506 -0.15790918574637966
P 1.615535375247189 6.510085287688243 11.401838325038744 -0.22969978532612054 1.6418532569617335 0.0860108569441809
P 3.599956647733909 7.7955375911335025 7.338025078388043 0.4365203520612224 -0.8620039866923089 0.15505294724450716
P 0.8835978825613918 8.197628862835492 6.37196795357697 -0.2587915604857543 0.300189920926883 0.8955103459798707
P 5.328505020768484 8.383926834464374 11.443044816200878 0.16340723274647342 0.48853916833067473 -0.5089398434742138
P 6.499204953230776 4.482466496849554 8.594650046712063 0.3578440811052418 0.27445832048873375 -0.909115338357815
P 4.929217100546608 1.9206380873253412 5.417596085925574 0.170462596931358 -0.22699498480044777 -1.1916248112857992
P 1.2072730294949185 2.3224055395494294 8.17120241784326 -0.8869794256907241 -0.5993100058283549 -0.049157692671573404
P 1.7581824812550417 2.959922823670398 1.6709455139085607 1.25433350316893 1.0799849409196045 -0.2111328209572106
Ni 5.00586054497319 0.6832850039289614 3.3945116929760046 1.0309645451568439 0.8548393506230697 0.37820850369420667
Ni 2.396032836838993 7.1570766045340815 0.44484099397594706 0.41335265569550744 1.0262386004360842 0.2808156301653293
Ni 6.065027797261356 8.722817796065208 1.2495980856535724 0.057082861055921044 1.9013331017637638 -0.8805922912174576
Ni 7.254870086860128 4.814131658100656 10.706199145428611 -0.5895392995948363 0.32199338995521964 0.6505490065089894
Ni 8.100168451972428 3.8903672075004465 3.0691434327723113 2.238005948108029 2.0271459211962313 -0.05013034099748786
Ni 5.398533295860807 2.6792823601513818 7.548035887784349 0.3789487242943409 -0.8627197818124109 1.4498640988125095
Ni 4.14687849392331 5.3751997894817825 7.480303030191087 -0.95574126574647 -0.8530318651006856 0.6357386809690341
Ni 5.1659939027876876 8.334215918614058 5.4456129471535535 0.9670114393436507 2.0447458936661813 0.5904414996941314
Ni 1.32977856397734 5.188864809912567 0.7921290572380015 -1.5677010991283518 -1.0469773756453322 0.5383604627281761
Ni 8.573786820350167 6.168539006368625 12.45755273649398 1.6902355049198632 -0.15181438570255146 0.22134241450036074
Ni 7.145012015986004 0.8088066855484021 5.29644319166227 -1.652177521705877 -0.08266610884166409 -0.563551617281823
Ni 5.867747719339095 4.207090412842697 5.967072405196359 0.29936176859863284 0.3704820815842265 -1.1114272185892857
Ni 2.229894940705707 2.920463107291912 13.034435285977272 -0.010316294324343523 -1.3294786210432006 0.9122842230040997
Ni 5.632830566099675 6.532965446798207 9.371658584729113 0.4780907193038411 0.5861708973432356 0.1796234374950197
Ni 1.7806463010362754 6.2913498563587815 7.1287053922774275 0.5883298526677674 1.5365850944498376 1.9146519303598575
Ni 4.621172257212099 3.109231358937924 12.283290672259415 -2.7993181345363727 -2.0513579996660605 0.16271946265082943
Ni 3.4345404064370872 3.0459292770008553 6.541706722304513 -1.0137566659189896 0.1621553626172433 -1.811549150930396
Ni 1.3418061445850846 3.8829471154639768 3.8447438186597465 -0.04017065868161469 -0.021516019694904884 -1.0108973420933236
Ni 2.661601816657997 4.98992862666047 12.304279725618438 0.91686335773435 0.3650208013593391 0.8503460907384065
Ni 9.236488007866736 8.75549580737794 4.575820876732836 -0.17899943075777558 0.6373613041741217 -1.6170135722102346
Ni 0.5509594124795706 7.84040046680039 9.78323036554553 1.104983005625839 -0.6273630553108291 2.029624464643711
Ni 0.7948324872792192 3.5911117499946754 6.1780444958427765 -0.74117422229673 -0.16851575761763238 0.05511725268911798
Ni 5.245218651052394 8.87183026781008 8.304787204462432 0.7222745571787497 0.28684023909285433 -0.040373004500407886
Ni 0.5135730659581585 1.7885104883567242 11.900710911898711 -0.6436556218232656 -0.4915825831426889 -0.18907712670875176
P 8.268721116212346 5.217083364415353 1.1298329891527 0.11317584739474702 -0.11602411547681954 -0.9807706979112721
P 7.1934554098799675 0.8053223879661893 7.670082523806658 0.0970131215919555 -0.2058345486727487 0.032895208066124
P 6.703535043786193 8.109818272413873 3.7151272084426226 0.9991160331876793 1.9465441510827637 0.3821975702489418
P 8.626939474651316 8.084069997928216 13.500957381796441 -1.6280803715473573 -0.5320697446234578 -0.5171244361675352
P 7.83529337103464 6.845821322375813 10.131767446793772 -0.10161565336097338 -1.2375873940588429 -0.04492642819904521
P 3.772968768783776 8.948399696356 1.529155141719383 -0.2465291981786335 1.0590286503829116 -1.72355623055918
P 5.442415461108909 4.86710852468523 12.677799942185983 1.6531553122381142 2.961731378800693 1.9483308106695416
P 1.5550273928051503 8.07107095888677 2.479734620685305 -0.7698466505307581 -0.6700179138668784 0.9374463240920241
