# total energy = -340873.1860670105 ev
CRYSTAL
PRIMVEC
9.17772073229504 0.00000000000000 0.00000000000000
0.00000000000000 9.17772073229504 0.00000000000000
0.00000000000000 0.00000000000000 13.43252198994209
PRIMCOORD
 96 1
Ni 6.1214664069521065 1.9937680845441557 5.7464729916363355 -0.26564277907963285 -0.5809664703241608 1.1756274074162785
Ni 5.7644255314548625 4.661924277265393 11.195456585266596 -1.7102163189171644 0.8478858021233721 1.9798805604513645
Ni 2.985301515541656 4.060967113870293 13.269357186381235 1.677852043653846 0.49237525424731327 -1.141105976600641
Ni 4.137454239706194 9.142799654678997 7.7369582054207715 -1.5811626239498962 -0.2891660590125536 0.8698383951350632
Ni 4.873580876260777 3.0642849814576336 3.9628086357142216 0.9221798848512569 1.6635235428463158 1.2233123721970676
Ni 6.807950751252504 7.9863334016996195 11.309726552432137 -0.5155966866690991 0.9369310750185025 1.1198635222820972
Ni 1.3157364211766676 5.018717354298806 9.617605373453891 -0.7303843307700777 2.8064591164565282 0.342190690838701
Ni -0.22165113703657663 5.152620301976486 11.817005801006069 3.761141344810864 0.4065495167307451 2.0886153413556223
Ni 5.90472535058774 3.4351199714414817 9.42539911832508 1.2162909465739116 -1.7286297884273456 -1.5727972827043364
Ni 6.041152171508146 1.9525417623393484 11.551606304066135 -0.907313766372702 -0.03484307582111419 0.036313232608737464
Ni 9.022874375905573 8.168410206290263 10.731040964302935 0.08368863656890747 0.601577461706293 -1.1725438833949482
Ni 3.9481086801765013 6.4417229771517395 1.1992371856087327 -1.2804209442846013 1.1480476980257972 -0.2569964162585445
Ni 3.6991538235140786 4.553140751643491 8.53084666389441 -0.6444032986225676 0.2533737319042927 0.2925455170077478
Ni 0.2490310317457489 2.6134661539816006 4.134503602442426 -0.41094276070243424 -0.18353511384460003 -1.5929012525430633
Ni 8.608665477030382 4.7395219073280925 3.416158800097953 0.5534291841358405 -2.1723646559591363 1.6821874378044062
Ni 5.073425748480207 8.593623192503738 13.064349846165323 0.18335153707888424 -0.34930776149945647 -1.32001156209303
Ni 8.487381895566328 3.894318058083363 8.479292652380371 -1.7039302287981364 -0.8814944913167527 1.0016966494306618
Ni 3.699135468072313 1.1489955881809106 11.932109105227754 -0.838770212975349 0.18639340922900158 -1.1323606263078434
Ni 8.280130602594609 4.920010966206039 0.8689053134241402 1.2133493474470847 0.16422870020650426 -0.05207846586279419
Ni 7.2528866596427655 3.5917928446289853 12.707528318197173 2.0841588482461653 -0.6951198511408285 -0.5287249965209411
Ni 1.4218033414173084 0.9828788402051731 5.393641018935869 -0.29329139403483684 -0.547993872052882 0.8751729199740993
Ni 3.961434730898091 3.555632624351394 1.9795774925154217 0.2801988225169368 2.746829320609037 -0.44129360508014964
Ni 6.549652974731556 9.33447635531288 7.567695334726466 0.8946621390469623 -0.5431188033487678 -0.7047424618322572
Ni 8.933235576044854 2.7956989798272494 6.3671365573106335 -0.5013198650351108 1.0212894839609252 -0.11459509633977683
P 5.501749982072896 2.921259379222612 0.1504136675455449 -1.9926538009566326 -2.3896611825248977 0.967371650896547
P 4.503893101387259 8.613905955654367 10.525509576224623 0.11319024557245022 0.07512120661487062 0.9393216867378661
P 5.653852350260846 0.7089358028955933 4.057776938091489 -0.3400944704313046 -0.5390150655930394 -0.398347697646243
P 4.707546727772984 6.192465255700189 12.472661263089599 -0.2079186848952871 0.3406814532830262 0.3089491551767518
P 1.3525390819160437 1.2074026038780155 12.175426087951973 0.9199101149804738 -0.0025744455953955665 0.2902551783116743
P 2.3932742745653632 8.160856942003852 5.54064699871769 1.2951849899676533 -0.7905093210864321 0.09714244808096818
P 3.539121904483529 8.919872814439733 1.3155904954146336 -0.33866596551489414 -0.24200637060761548 -0.321578156794672
P 4.214115742238865 4.694073833517272 6.411598026126571 -0.004691234828082243 -1.9429050116682798 0.22457866204947127
Ni 0.6970745164268727 3.2449759501949997 13.010552799667565 -1.352005084280491 -0.8751549222519702 1.3875649836629715
Ni 0.2883135126676136 7.9536240044739 6.130912117284517 -1.3089859004064874 -0.3156875023418499 0.931469537683299
Ni 5.61837128132857 8.514749859238352 1.8624459119786734 1.1257652324785128 -0.674367963305458 0.4782586123402731
Ni 6.19337385006757 4.145227769293788 7.197911193783679 0.9194789409803261 0.3464857186696291 -1.0872408511510696
Ni 0.23472755375015844 7.753861731742413 13.180622392027455 -0.4153614585954201 -0.7758434915441412 -1.8150967590723386
Ni 1.8797716134609164 3.415094184475567 11.165784095880941 1.3910596270797915 -1.3652146409922294 -1.0625937420263507
Ni 8.540796231103277 6.149660365503569 8.14503822229054 0.3878236581864676 2.1531888543616335 -0.6760893168719389
Ni 2.3399058276328266 3.6654807655956816 5.837868407273992 1.337192958968323 -2.0560068112919816 -0.21852834209033334
Ni 5.879853726995793 5.516461868647764 4.76074079800875 0.6758594602493199 -0.33179854897109956 0.5228412840466543
Ni 4.88312570597872 1.5866719193530072 2.1488807451816108 1.1003043692032468 -1.6365637264280204 -0.5405849811833207
Ni 4.3694119572939725 2.4896495215539387 7.441886219095184 -0.6702889081400779 -0.3489493497187732 -0.4273744238958962
Ni 2.004928193137443 0.5846244913123575 3.033789250508806 0.08866243563441505 -0.23589614394481953 -1.3842174073469773
Ni 7.565690920485698 5.70672520026572 10.267322850126355 -0.353563708562333 1.1910910502695164 -2.1833203836396913
Ni 0.45515438282099124 0.8904720397262499 0.7024012656271554 0.6040002122151727 -0.11561171052974928 0.3455290111833146
Ni 3.781064982391617 1.4313206379726036 5.150592943433511 -0.7826124348368586 -1.1468125400671152 0.3853350874366589
Ni 1.0765191263707228 5.370251597266467 5.087634695950706 -0.23998162686810284 1.7009765454864512 0.44060274966071217
Ni 5.265258470369095 6.46893491956876 7.0404949252046825 0.15369849009914177 0.0824593921474967 0.6113522817048698
Ni 0.5406457706148472 1.481605370688574 10.163583399901551 0.8166412422867936 0.04595178413976603 0.8494202364900275
Ni 6.829224708258457 3.4838903802118173 2.2732930116945558 -1.0459417352919662 -0.274484802851295 0.5906806122881311
Ni 1.6571568157316627 3.389405743725065 1.7638377254993518 -1.9873840679172612 0.1325740494157007 1.4923829460113265
Ni 2.480682888251602 5.077941187154464 3.3368669627603187 0.6010033343703778 -0.012401201877830255 -1.1090826296165093
Ni 9.071048232818537 0.9603108245547678 7.849039286155805 1.1534598701803038 -0.8295993451093584 -0.8758061826827239
Ni 5.629256058295378 4.934952295802974 0.6362849643886354 -0.053288684120811454 0.39709068531069036 0.5528879669203897
Ni 3.3599452596917985 5.347261406455461 10.815383301442285 0.0035794898211422227 0.7365086985002606 1.195021495672174
P 2.3128040178663984 1.2395980487343075 7.417533136733105 0.1423082459843291 0.8473546122102504 -0.6308746680085134
P 8.682582841019142 2.8155595678172767 1.4190518606966938 0.8871318921081882 0.7094990026806361 -0.04170277905542495
P -0.275418814827508 0.25417055544002587 3.361985467044009 0.2902667482759001 1.1446134755332675 1.1300697733911376
P 4.795909824431017 5.721115866609696 2.957694013354595 0.018802734528799877 -0.5335951801290488 0.19568974692926297
P 2.3846563946565666 2.5211107487396203 3.7040446309724353 1.2216617239675218 1.7925888077778096 0.539449839137613
P 7.095139993111994 7.347490606500993 6.273162202104955 0.1626410440044102 1.9952920099104283 -0.22228780913276555
P 0.6110453141892942 6.098742370046696 2.491759479584857 0.17248451245739327 -0.2483027451392885 -0.8727694527389293
P 4.128946492447989 3.202464747066623 10.61787140587122 -0.9290200477015419 -0.8417560350765503 0.22305708319862233
Ni 7.106345990309694 5.907616332665771 2.484210804158888 -3.192626469986495 2.4332213265040354 -0.19766461126744667
Ni 2.342787631989975 8.225036744136137 10.085406655651155 -0.7351856088134628 0.4350825911734313 -0.08057271664774511
Ni 7.524372821072064 1.1448289029001932 1.9363651115116116 -1.5234002203284474 -0.4562990773500464 0.1426913403553607
Ni 1.886205195799645 6.710409933711833 7.498409966467171 0.6824998483839729 -0.15197507965013182 -0.10642155939004899
Ni 3.9953647650012014 6.97500362675827 9.017883531289595 -1.7352058989829664 -0.699103518378925 0.04919343100551528
Ni 6.616732936662753 7.933350419044154 3.9440172522070216 1.029717303013304 -0.11454727382097693 0.7241429778460562
Ni 3.6098545993260163 6.1945118874570175 5.161701656789855 -1.164515099553201 1.4002963151867112 -0.6298176874989089
Ni 8.049384344163338 0.6644513897774496 5.340461633053514 0.15103045634867537 -0.7460667745023409 -0.2627675144143668
Ni 8.131442346575 5.6284484188577055 5.838016168580202 -0.5510997646717154 -1.812344393138182 -0.4544933915998753
Ni 3.9537988671237367 8.168263362756141 3.678993124051188 -0.6399583754773365 -0.09632252328283411 -0.3136337051366147
Ni 5.322848668907645 1.0934979100036022 9.443438846491992 -0.4702090025629192 -0.09944255696905453 0.18135970345983604
Ni 5.142864384678242 8.470843642535815 5.89486205395517 0.006533430243143586 0.17514997510469835 -2.071489737418929
Ni 8.276431981078906 8.078018833317167 1.8532718621843889 0.46657654801665455 -1.9792521828387464 1.2166686416283046
Ni 2.9165420306889365 1.8401238592479225 0.6926481016451765 -0.005356122105590776 -1.8994626242139288 -0.5133819384059675
Ni 1.4522825524685472 3.0891474273286987 8.627265963943222 0.7985856703366634 -1.7564113294159878 -1.6838355149307904
Ni 8.130698951183506 0.9732605887201692 12.162758997589757 0.3178783393455816 -0.29302348508543086 0.2114722065745003
Ni 2.920304896250818 7.624162180228981 12.656417590601764 -0.9606978384207971 -0.47974033909212216 -0.5492004907664735
Ni 7.127757613128888 6.003367494634328 12.592801300531676 -1.6470340298317248 2.52863856436378 0.8498125868324395
Ni 2.9348699392915636 1.6217950571708608 9.411214950700964 1.1690448691027544 -0.938513589014274 1.489832411675331
Ni 6.111499402073562 7.6146907722781 9.200163163511746 2.0152982778290256 1.555119405808599 -0.7464938347374305
Ni 1.638544397781674 7.701255035643135 1.5790736842342716 1.8455437627082862 1.0185569155211105 -0.4555097486795317
Ni 7.628237088300873 0.8280745509893745 9.734334052043891 -1.4583929622191272 -0.24101161079451391 0.2781131436325016
Ni 1.338506346686491 5.513570886569733 0.48253519530225175 0.45293041798812966 1.0346286242719924 -0.31589524747728176
Ni 0.9751787323846404 7.7483183883293005 3.830041889881812 -0.06754570826045787 -0.66254705941113 0.9094228422959048
P 1.230576349106675 6.666366051196056 11.24992544093296 1.5725388868366272 -0.25628782022729407 0.94504419104394
P 7.145938678197393 2.1756705124380296 7.797242982810464 -0.32137246854176915 0.4251496483304355 0.5323757058996509
P 8.705967673828104 3.483036852169732 10.68903728913937 -0.18639418055994997 -1.6431982010254023 -0.9425152539744993
P 7.345471507906813 8.501249431819993 0.036727403428138475 -1.3840957941674485 0.5716097116996092 -1.009372420808365
P 0.9692040360900435 4.618761455954349 7.208993291749464 -0.7981025600526578 1.691124592393036 -0.07657902210731972
P 5.793931904092541 5.5595145573082165 8.990736750690841 0.015641306081682738 -0.4570598667754709 0.11525201319748538
P 0.46481209850579064 8.140601712015872 8.59684090144519 0.1445044823046995 -0.41849383357681474 0.01302546572539047
P 7.079216647380618 3.5531546397130818 4.793811797437246 1.12630799235586 1.4968420102239448 -0.7375919042621104
