# total energy = -381174.64696838515 ev
CRYSTAL
PRIMVEC
9.14397121654524 0.00000000000000 0.00000000000000
0.00000000000000 9.14397121654524 0.00000000000000
0.00000000000000 0.00000000000000 13.38312616219283
PRIMCOORD
 96 1
Ni 5.22294480613873 7.172338843632226 7.987383957187669 0.7338946579161812 -0.23591722699074208 -1.1584627227115338
Ni 3.733145039984272 3.960354431855515 9.053671561642656 -0.8895317597989326 0.3958758390669827 0.3144783125250971
Ni 0.14797962618600627 2.3712419964675746 12.19404862197527 1.1046798725631233 1.6262204355204832 0.5754087737307252
Ni 3.5313650315158753 1.6323999941901963 9.903272656074654 0.035214600227919994 -0.4760978572435285 2.6783341039511166
Ni 2.491192608290134 3.855143901315008 6.7375201617682015 0.045126974245625506 1.1262668547052797 1.2515559404237928
Ni 1.0126216385465698 7.327073121209704 0.5579093333343859 0.7121845199325992 1.1540162569044061 -1.3346226271379853
Ni 6.783244588846926 1.0648337130630217 3.999333351513786 0.03332998161069744 1.9234006230867646 -0.3144459166252649
Ni 1.2982701491979605 3.935190223612209 10.10032523152641 0.8303380230475957 0.5519142901532108 0.23244212395794805
Ni 3.1635670852329953 8.395189519868419 5.829729578964865 1.3036886565632901 -0.23413802360313224 0.44381457172979055
Ni 0.6159333158302873 5.356071880199154 12.086756009233818 -0.6268591190912173 -1.2524594260746689 -0.13869713159430308
Ni 4.715939045068028 2.871764682086058 3.6518002738024236 1.7294186028772283 0.10259498655510718 -0.6545707260738727
Ni 2.245823289975866 6.223871305752455 5.941639897070732 -1.0764758993250816 -0.7833914790947283 -0.5905361162904669
Ni 7.2671526791245356 4.8508583374481065 1.930502593368979 -0.5649060744271884 0.7628128836124282 0.3221404570560452
Ni 2.82876058638538 1.8073698796319315 12.55465666384619 -0.35906329822432353 0.4098731817873392 -0.30191384559652523
Ni 2.6282058700334816 2.6591307800185326 4.675006973200174 -1.2092404674850337 0.832247838475799 -1.3483613168803166
Ni 3.0608711467226155 6.201816047655488 7.986232731236423 1.0410072741048266 -1.7527307952406073 1.2382070299207129
Ni 7.300519029371564 8.101604042372845 4.704516396471539 0.9967159083866189 -1.1936109884778927 0.34450468368385834
Ni 3.2116095089649463 4.431131779750353 11.696477610201603 0.05394585808883612 0.26190285242122635 -0.06620616351342791
Ni 0.5196372426358553 7.551457026036186 4.1466674133458765 1.2756350928601838 -0.03782401282630905 0.43782775801873625
Ni 3.96193633884174 0.06759314816691138 8.230020142564465 -0.23286789864145702 -0.5461997562669367 -0.3213701545489239
Ni 1.9359432561250716 8.70926663641677 2.444213628387652 1.2947445599961251 -0.5092152086227876 0.4060964883537264
Ni 0.5320757864125155 5.914009559843698 8.433724956932286 0.6260186254677929 -1.1084539948935748 -0.09169916557820983
Ni 0.8442189530904243 0.2102957886780587 12.381706681602473 0.8310252789226076 -1.0854639617563049 1.301975016306293
Ni 5.911796718857186 3.2531597132736603 9.99312680168645 -0.30981844515558254 1.222555953647017 0.5819730572118041
P 6.173972655903721 8.075086526418781 9.761839198740894 -0.4761716479042573 -0.028530503339525056 0.4465396839704374
Ni 7.275766299824097 4.991830938642527 8.67557110321307 0.6000736234672569 0.8190506230592346 0.46961764883582346
P 4.592321700866993 2.733078073646299 11.691873620793716 0.576506120559962 -0.09489196148389464 0.7600954846812652
Ni 7.4470145890612445 8.105307350635396 7.410959911334734 0.9874504239242929 0.7672902026574915 -0.1719926604226393
P 3.924144306621688 1.0556348782182667 4.327808564828094 -0.26163571480276876 -1.4969834208978152 0.6951298784431577
P 0.47836135745770053 4.391867568196299 5.747744734811711 2.387928001883875 -0.07628051703029444 -0.29663408525482465
P 4.60992384507788 6.46063614733818 5.859025033314394 0.07880302634183203 0.4489387803302333 0.47469506335873085
Ni 7.404339676317237 1.226352817136333 -0.17393113033401714 0.39411669028403096 -2.163944550216241 1.4339721101726013
Ni 9.230015785928492 2.73704655706839 3.7915997035151516 0.18266530964513703 0.31645394819422923 0.4627260639223128
Ni 5.1976068624460705 5.6446373176054925 9.919559897253059 0.23895987047180783 0.025525397964614106 -0.16950588944504355
Ni 4.619717038038847 6.587088122554995 12.030493155556108 0.7949881827933921 0.3235221678949202 0.2942131345181578
Ni 6.116932564689425 6.86030083262103 2.8927756986926965 0.03802970107921193 -1.3995668932198542 -1.0271744819867923
Ni 0.11984637055294714 0.5771921394185003 8.333283921675102 0.5670899694523847 0.4728402695381792 0.2898150054504622
Ni 8.968114168012518 0.4943861666678725 2.7642306685097138 -1.1086540267195228 0.0781103711501816 0.4424865969469864
Ni 3.2510200240552978 1.4907141632563223 6.5866528695345075 -0.453534884341348 -0.8493312763206469 0.405071903743954
Ni 6.298147782336893 2.678186815621385 1.7769442304644985 -1.0642803857001544 -1.0130606682932295 -0.27477867994262994
Ni 3.225544920797358 5.70051612450042 0.46150078929642463 -0.4428447516173535 0.1464451509708381 1.2268206424606418
Ni 3.4144959379265987 6.865000833724613 3.9903667735329047 0.1673397350316602 -0.4956402981518303 -1.5608833048755697
Ni 8.022581844829732 7.007994252514154 9.52392770318943 -0.24243343084270508 1.18319570668184 0.5901995588866545
Ni 0.9867807764478845 2.1688401979699106 6.28075412066523 -0.9630239154508126 -1.9884379631030722 -1.1640535865357502
Ni 6.45895365667075 8.222030140688373 12.003646456645372 -0.4989361952942827 -0.14643589499945747 -0.16684556900406106
Ni 5.62895540730852 0.9178900987934278 10.738446393033437 -0.3512147487141822 -0.05122254562040211 0.9982629411587647
Ni 0.5392784923839006 5.274535090625914 1.3313704098883465 -1.380467710496558 -0.33665819105624606 2.06997612898788
Ni 6.342980672241301 -0.22382063621173365 1.7614872618545845 0.4964226848438096 0.288538966951516 -0.6905566572501785
Ni 3.2188606779827302 8.497684291016387 0.34726790255182244 0.4613651790190441 -0.7975148058699878 2.7746792529417696
Ni 5.124363654586739 8.546439944487792 3.9065476487934117 -0.9831070593539327 0.31760348841764013 0.43068471921605184
Ni 4.980977045043397 2.765667186356743 6.098329155651996 1.7304719838424067 -0.4871302037982901 -1.505271886158853
Ni 1.1278905372075843 8.335415381319548 10.184130640309375 0.3888071051456594 -0.15627036459137603 -0.673042302515499
Ni 5.488193117447528 4.611542327948181 -0.0986643616882605 0.5426452061464591 0.2009471386734604 -0.022123571371916735
Ni 7.714457453414517 1.4832801148181654 6.550705176268916 0.21327146456676818 -0.07623732249718483 -0.34222334384884934
Ni 8.270264587811717 3.3833881485211745 10.289415237015135 0.06309667135016876 -0.33011447640045727 -1.7044344221280647
Ni 3.93329742161135 4.515567208136503 5.105555420598493 0.5052135436625621 2.3029862096341565 -0.45575246081795706
P 7.111641164010473 3.0023954520583933 8.077238102799466 -0.4184161862613439 -1.0409023730958462 -0.43237573376522953
Ni 8.494922811768758 7.1002203442081875 2.2709152608481245 -0.8756195205932145 0.561256136379427 0.859222824402746
P 1.0261638596251803 1.6179068001256474 10.339776571797413 -0.18469416714970774 -0.7742548069007826 -0.1826185155676016
Ni 8.54119130512309 2.871654954433835 1.356326135592427 1.3400365990647052 -0.9545996959428591 0.28305531812912543
P 1.99336739412215 6.026370675720784 10.047220705438539 0.4221980219012793 -0.1001958901953113 -0.1415376863668917
P 1.8103325262419718 6.52620756351287 2.4557368606653456 1.0315430433681332 0.8407139669652812 0.6589858244224328
P 8.210645896770163 4.419171465657968 13.351849088384835 -1.402943523001571 0.25274869672578404 -1.8584856675809345
Ni 6.936131784278638 0.8239595709015187 8.85772906427256 0.39209374631673116 0.06907808574458427 -0.7785845446243882
Ni 1.4103295140314314 1.4393707659866415 1.141638497634114 0.3524241956412511 -0.17449331535730594 -0.09954231577171244
Ni 3.169053467844182 8.799938253037634 11.682759824879435 1.5024015065895933 2.7182257979397315 -3.049092836235497
Ni 1.8534829254789484 4.7938731100599234 3.909947377218143 -0.5694039622975419 0.21172726000809988 -0.5562882508511904
Ni 6.169418958336436 5.230525158113186 4.589154229306135 -1.1902199605184727 -0.7561490984390075 -1.9280118966065312
Ni 2.031689776661283 2.3466721463404805 8.56135924760181 -1.0503591476333718 -0.5421088740270148 -1.5955361190627488
Ni 5.731066131673706 0.2698111528471008 6.1696877910843835 -1.1990316452728318 -0.027784883422752146 0.32983525459714164
Ni 8.692048538988665 7.3931291678483815 11.717837012104052 1.0127104840426622 0.71682073315303 -0.8396631571032636
Ni 3.9809832304735737 3.1035826353506972 0.9728115319227036 -1.2927802371809025 -0.5099932244393925 -0.18246322093665995
Ni 8.98109860685899 6.469514943197282 6.2055147839325295 1.391900377813532 0.8178794855692688 0.09760344687778676
Ni 5.378264297861401 4.604565478060955 7.401029558808489 -1.250456279601711 0.4321872719035073 0.16493755334807078
Ni 4.730889437683509 4.79402855756724 2.3669662756192573 0.2711778499652491 1.5696206847485676 -0.08651505027410906
Ni 6.894106093476955 6.104012133640083 6.4516704837544 -2.306839779052291 2.472628367546748 1.2329861478414057
Ni 6.976584712065114 3.0253651072572247 12.061475672558576 -1.5058588690105743 0.7671781025596595 1.0561973515817036
Ni 1.6206682793732776 0.5732556598949745 4.600490010177946 -0.48898834005295144 -0.2683100414991508 -0.18878119273488775
Ni 0.0504491169040575 3.4042181145016435 7.7876412254622265 -0.4803432627834437 1.7482087390005376 1.6237274938953004
Ni 7.121370349174309 5.412819364340853 11.35555562353672 0.44657105142900516 0.13341557148038957 0.40630860436453253
Ni 7.602142057392523 4.117447853955802 6.024133146012522 -0.5041419078649382 -3.036879839109073 0.07920591820720553
Ni 1.5882529021121876 3.7582178085173914 0.31898834338246507 1.7698905948493453 -1.8119576992227246 -3.265123608714957
Ni 7.577261312250796 6.819655881443163 0.12222471741489621 -1.7733343304235716 -1.4576460567507734 1.15584765368619
Ni 3.7470164440195535 7.5376862056821095 9.785299885183425 -0.46001817807284645 0.109726712503882 1.193771168204841
Ni 5.054375700410045 0.7834170321990591 13.235148243862303 -0.38979620853180613 0.9774907416084196 -0.40427820419806504
Ni 5.08999146752766 2.1049878483467257 8.248836606126629 -0.44725393642864264 -0.4402713344632224 -1.2123576729577765
Ni 2.3296460723037673 6.884349476400062 12.016508366280194 -1.2630976225148052 -0.9890697046952707 -0.9759676200956742
Ni 8.522437020563855 5.434490575655037 3.9974323199390103 -0.2147688750479011 -0.7627802306022798 0.25218665357472697
P 1.79349847559665 3.294737349495431 2.276964912074059 0.35497858663198867 -0.8602283828491248 1.5653449401913493
Ni 8.145293935899922 0.5567992552527226 10.99809219329911 0.04947188147788254 0.15348251743359373 -1.3908230855889532
P 9.125564204982533 8.829802462384523 5.808945332839489 -0.08210663679376827 0.5829151094100993 1.6322954380699695
Ni 1.6220215870840367 7.906398549066854 7.709898269464621 -0.9669936987318378 1.483086094090433 -0.7038749716256394
P 8.556178273622647 8.739706915937832 0.8375895741019082 -0.5514149819192891 1.2742793501632377 -0.6534515248677649
P 5.158498098399334 6.765185246085106 0.8289878405646707 0.5217889315227401 0.09610500795538932 0.38893206075929787
P 7.065738429496885 3.290540266797873 3.8462029264529782 -0.29178498469263947 0.3374632034560446 -0.5834635257144016
Ni 4.057920602624436 1.0216010180868773 2.069446147394362 -0.265667204559665 -0.6759875011867519 0.2808079168558454
