# total energy = -340897.67568975704 ev
CRYSTAL
PRIMVEC
9.00150358520192 0.00000000000000 0.00000000000000
0.00000000000000 9.00150358520192 0.00000000000000
0.00000000000000 0.00000000000000 13.17461038287352
PRIMCOORD
 96 1
Ni 6.501785822556203 1.8831144871642773 11.286885952179391 -0.25723270063906667 -0.5083425762098471 1.0138212006083378
Ni 4.756466347674481 0.2322261826412826 5.852491187923142 -0.7247297035874616 0.6882388077502792 -0.2771682632207291
Ni 2.7446573680485034 1.4527436136183343 4.859757697716362 0.3778313228604461 0.44876034577084006 -0.15411398037000557
Ni 3.468495251683021 4.407721105914416 5.084319100310702 0.3206445892368091 -0.02312373050165695 -0.7731857422063201
Ni 4.833852271413253 4.499905501053275 2.361548887499004 1.2529906159877904 -0.21326992190487137 0.4969664731624215
Ni 7.200743551111742 6.096547146181209 2.5539506193080106 -0.3084642451205333 -1.4079949693825493 -0.6718770785628041
Ni 5.001937342248906 4.690728369186141 11.290258815460177 0.22665637051410642 -0.45494796263879067 0.5851314003351278
Ni 5.466639949322787 7.901645604376782 12.618351411892307 0.12669393648583988 -0.08687166228257942 -0.7738190049149447
Ni 1.8066287137539767 6.525630804757435 0.45959515411012813 0.5043270272925507 0.1934454309797765 -0.2854752404245277
Ni 2.7255831825881733 1.6223229339992513 0.3377562065500738 -0.014272964979246388 -0.6612013440165129 0.8589505445779658
Ni 0.3849114816574294 -0.009367864468412349 4.76494036286672 -0.048157276431517064 0.21530469294671306 0.47530338636669106
Ni 8.57494904857086 2.439236361597816 1.3886700130873397 -0.19256894191209414 -0.25051415096831053 0.1874881849550771
Ni 6.824192665705165 0.7400738951091742 4.653496351299865 0.09148524979519082 0.014907513239451746 0.831589893176826
Ni 0.9500096551664945 7.390360217804455 2.699095359022544 -0.36918341737746097 -0.14025290611719715 -0.3549017106474662
Ni 7.623562163401802 3.8324620354975543 4.02487006835886 0.6963794345795427 -0.26210571246065184 -2.404420086001627
Ni 7.579904872470889 3.8614918835907894 12.402669992288349 0.4455382392891165 -0.21266005623501438 -0.1386094569765032
Ni 7.8196059034398075 8.786277341186326 6.89497148603295 0.8849515966274178 -0.38787122359495135 -0.3427301082819388
Ni 6.886447062422316 0.6427253375358686 0.5966916497377898 -0.25229309724560417 0.5027604541363793 -1.1850726119895783
Ni 1.9292291884919188 6.50772681472412 9.195060809554843 -0.2666763625504698 0.238202423480493 -0.10448114783422652
Ni 0.19485914220573602 4.99070346614957 1.4587980247276398 -0.555593795887327 -1.267122170293166 -0.9271991924427192
Ni 6.311359020567864 1.8311038011851415 6.899082472583083 0.4361290301600747 1.0237353743982565 0.41806368801793165
Ni 3.199260288436924 4.235540351084214 0.3513853826734746 0.3153164921556763 0.15013365556601885 -0.11041371126857759
Ni 6.017540951851185 5.606919376511927 4.678185674509207 -0.8520180791241906 0.13632940269307486 0.14264583182940593
Ni 5.161137929342536 2.590074552139937 9.273884273368187 -0.02352585103608206 0.1997628885573721 -0.23504793701191132
P 0.20490662017214503 5.49818121683246 12.367217571601463 0.8172711625613087 -0.08238148772170972 0.1816738922661452
P 3.956052675596816 6.125117917606923 12.670694253342651 -0.10280093191832618 -0.0847139925096283 -0.8065815440579464
P 2.430972981582439 8.496401930908357 1.4820777125225932 -0.5229754956316736 -0.015550546140089348 -1.01690061086461
P 6.393155680916151 7.718789066650897 5.601185418919558 0.09215656483060258 -0.671462873843521 0.9397191792866009
P 4.678261287136798 1.0767148154022705 12.587062186474608 0.8103561806090301 -0.12120668811902352 -0.005091812700610585
P 3.9707701334673398 6.312016130307649 8.246778542868688 -0.008231643881172921 -0.6160833686319519 -0.5950293761751301
P 4.735555855544067 1.0314192508735391 3.706478795825213 -0.4120028265358324 -0.703968302670394 0.31597109502053966
P 0.25157941470343936 5.429076676115634 3.5026676586028187 0.6518111610508646 -0.22650287565537763 1.4430720155913406
Ni 1.3397207383753387 1.046361746326181 2.6689916315874416 0.5739743552770439 -0.3525113560384187 -0.9843728134402338
Ni 1.841365514929727 6.372191179766029 4.864619409640441 0.22685203146468028 0.10423997835769791 -1.1278000035203544
Ni 6.032519453316966 5.712362985989185 9.124945400019142 -0.3829125940380954 0.017066211453667386 0.9069864649402704
Ni 8.605527155229067 2.527721138886653 10.035298032314458 0.7177303894514929 -0.5076077549263516 0.7638868334028973
Ni 2.3552253314414857 5.17636847290029 7.100916879684152 0.4574622444202122 0.13229174228859153 0.2408367757795465
Ni 0.6483854828013033 9.046330771082005 9.12490579340469 -0.606404450781291 -0.6772946500339496 -0.39444527726804324
Ni 1.313121296168979 0.9636649356494209 11.26224973783943 0.06169104925189375 0.8574094253430912 0.6957978510444597
Ni 4.083099892957412 6.759120798459894 1.5329056009701163 0.4569009726001035 0.8093179691525029 0.5188373050935838
Ni 5.6438075369727265 7.834251349284052 7.795759120937916 -0.524246391924297 0.285523834274276 0.33425806625518556
Ni 5.236102448697719 2.8670688112174663 4.724191457647103 -0.2068550195174631 0.14188221419050404 0.15550726117310637
Ni 0.9908854815824265 7.26559938227818 6.918844372894367 -1.7199201764684895 0.299114171364201 0.34198474547548197
Ni 5.067468286161698 4.679449485570381 7.072130972329933 -0.11134753593675661 0.12509085366477812 0.14192720849582655
Ni 7.980282737072131 7.2681018001913325 8.925284855961335 0.5812513485544313 -0.22933957377322436 0.7263219877752458
Ni 4.601613486667373 0.4094360773566601 10.419403879427902 0.41458215722723435 -0.5673367953558681 -0.1607461409745425
Ni 8.140230448938393 6.996346416025512 4.445323985736023 0.22747475265034373 0.4199354511193477 1.8909808119951625
Ni 7.216334154800884 6.070442786655509 6.923639473694139 0.24523053397186795 -0.32950435362028413 -0.5335028775255586
Ni 2.4893927379002982 5.12240446070837 2.594752633397008 -1.4089488486553865 -0.2525023850429329 0.2208459344799164
Ni 2.3491223122144427 5.307322342686456 11.321943206872076 -0.7679496906183613 -0.7587870502824867 0.6003944971417854
Ni 1.2056253439428042 3.1061487384597375 3.7862771224442917 -0.8876296576802133 1.5930619464906435 0.08077506246653832
Ni 3.490872988848845 2.557246069660548 2.7810153399658324 -0.3251404202246336 0.43369522390760146 -0.7820714747317241
Ni 1.0953479272016495 3.3187732475482052 8.072294303347924 -0.47150638121810406 -0.038074695384534424 0.32105776551482773
Ni 3.6734684829794726 2.7876935552527695 7.1278988857801115 -0.5099613427601927 -0.6936401812715085 -0.2699162096440061
Ni 4.03046810325163 6.99855178433027 5.864308361435327 0.2522622440076687 -1.1903300037337756 0.11307197482703109
Ni 0.8383370054162076 7.363931804160504 11.34806917000566 0.640350982930065 -0.11241968595501284 -0.3094651755812219
P 0.13917134213479052 5.506300572795281 8.015089749973503 0.5483558833779911 0.6096442978748274 -0.02164457485296917
P 8.432104192945573 1.5584032591744257 8.000729651783383 0.5820357921289395 1.0574780180663401 -0.650412480931125
P 1.8820883157898187 3.277312323418766 10.236421320656031 -1.6232754939595462 0.09516989773562963 0.3176662233347755
P 4.009566612624501 6.116755521055414 3.776488887772483 0.0775303302769955 -0.34293553942452554 -0.19345880071621518
P 6.7120159317709325 3.799201480860499 10.236724671316727 0.3636236639014963 0.8235055735067947 0.3817584258289941
P 6.212738550580427 7.6798305604346115 10.31789302673574 0.2746439541369786 0.5486142792457003 -0.3864452897817022
P 2.291791737794035 8.472115875046171 5.598076299685014 0.33305119043127807 -0.2633208158146756 0.5198220376043564
P 6.884538743725955 3.857747258224344 1.4742653078217811 -0.298288333028796 0.8660102796382246 0.6017803217457185
Ni 5.250414838920429 3.0124430892657603 0.28462573356231846 0.10887362047496735 -0.5012926113416011 -0.1638880290376339
Ni 1.4053777033341162 1.0435802818112012 6.946444782265987 -0.43408834558096204 0.5938620953399063 -0.18971167496895716
Ni 7.007391260555869 0.5662719695373931 9.208920424162335 -1.3859873547632067 -0.042480537761713934 0.30827089816280456
Ni 2.652130915784825 1.5230183497621752 9.145471527959298 0.7647764350967022 0.08041330825174538 -0.4801509442669795
Ni 6.324483212356991 1.9478713017945823 2.5836465786443155 0.6238213607061579 1.066195857555312 -0.6207195818523826
Ni 4.039604629085625 6.90375695323884 10.520057789007359 0.7852462729152798 0.2473177555181999 -0.34337468384447317
Ni 8.25075990777152 7.079691334938772 0.4149395964649404 -0.18804508589981161 0.6046121347675587 0.6481198282422064
Ni 7.56521441911022 3.8816912569617106 8.219098920268161 -0.1823331231166989 -0.3982710787720367 -1.0685450745137792
Ni 3.0488451685491844 8.386421563775597 12.393052786178949 -0.1181838421322997 -0.15706483546821337 0.15036222663705714
Ni 0.021329062033153705 5.0402747447385465 10.190033873778862 -0.08357088004412058 -0.7866567801095613 -0.30225014589002136
Ni 8.559511470437558 2.4121058306976573 5.866482224478588 0.16489461592527732 -0.30848609949740424 0.09311378653754931
Ni 3.5061575414263064 2.568209900661342 11.41707739463734 0.6259571761022381 0.5851707382134954 -0.128709681364288
Ni 1.1181757395317098 3.224275466065172 12.552136353729878 -1.0158181764337086 0.4217781607550413 -1.3810197263452861
Ni 2.9504857421570043 8.36369276798167 7.723272715437019 1.3321240290858476 -0.0571283695818758 0.9487692053040111
Ni 5.5348623427177115 7.828769433783656 3.603742838536 0.08770495681715218 0.1791138448484528 -0.6484720693753024
Ni 3.146277440103038 8.252803249017154 3.5516907456417544 0.1291141158915583 0.07309851975788702 0.4052197421757279
Ni 3.5179045032128715 4.339039635851971 9.38874075483028 0.3692793195253769 0.6491824651787659 -1.2724260990045828
Ni 7.302793593850659 6.248672551693046 11.551747985129769 -0.7250181813621578 -0.3508591651469764 -1.1399932031524367
Ni 0.5516490274513589 9.069734679622286 0.3718773049011489 0.3820975543359677 -0.3668640252156649 0.35504877774829174
Ni 4.526423929730072 0.25344902693567656 1.587382698849266 0.3093990982299768 0.20983929895676767 -0.2577196675778142
Ni 6.0825768130833175 5.559634479757272 0.3449889144393496 -0.6381195224963849 0.4044630665153615 0.24147338092228093
Ni 8.009474612224492 8.701996265931454 11.352403393837255 -0.840433973831017 0.6095987893488727 0.17027902016564223
Ni 0.24178937973097347 4.824265670415023 5.839711753709818 -0.8319323641179092 -0.0729671363863453 -0.24568921877584135
Ni 7.920953828922516 8.726084288721376 2.714944305855958 0.0059150799328543295 -0.24737200579490298 -0.9379988541613844
P 8.471809823934489 1.6510917384972295 3.58915860291409 -0.4918726035792819 0.5319273055083227 0.3716079676585536
P 1.6227370031503485 3.1931482677065963 1.4685079463208714 1.455601515516919 -0.08460754883875106 1.5594365451267143
P 4.67658700752584 0.8974588789902753 8.006395197950788 -0.29406426764511934 0.23827261459679608 0.33346385248866445
P 8.456129205212502 1.5818611767344164 12.464538224514586 -0.2756235444414285 0.6329369498541809 -1.1686651171658324
P 6.33777843270853 7.741130797803582 1.4427906514364148 -0.045938157293011206 -0.684233543245628 0.2171168064547874
P 1.802839080871108 3.2365535165455355 5.902910408121538 0.34833845560765164 -0.6808893093637435 0.8235382265169431
P 6.735932925998444 3.9339629865361028 5.887113670007176 0.4953171104844567 -0.13885833976251571 2.163004554900475
P 2.5593614229324584 8.53590952882501 10.082476711330353 -0.7678602162283485 -0.5666299990968305 0.7720146047163543
