# total energy = -340896.1329366752 ev
CRYSTAL
PRIMVEC
9.05123619129154 0.00000000000000 0.00000000000000

0.00000000000000 9.05123619129154 0.00000000000000

0.00000000000000 0.00000000000000 13.24739907893708

PRIMCOORD
 96 1
Ni 6.43829795810349 2.0060073073728875 11.37233572416988 -0.2568578337981512 -0.3141929200741944 0.4076075256816141
Ni 4.618755161258103 0.49325524582571767 5.87867905074738 -0.19446281650069733 -0.9634784864897278 0.5472055718236317
Ni 2.644590101738997 1.6361376040480116 4.745575647778419 0.6194702828263138 -0.22532659595908935 0.41622663480919286
Ni 3.4936684379150926 4.261131780089613 4.879361060314506 -0.32260582672823795 -0.26252788759973494 0.271197647459591
Ni 5.24239436517322 4.50672801467304 2.8511320637131305 -0.37137553993277334 -0.38151468524930426 -0.32236799968581903
Ni 7.0073401071425385 6.146821008804083 2.611976688587563 1.276865365722859 -0.6929336421227872 -0.4600608583853238
Ni 5.033528045823061 4.417256547920731 11.446825585280466 0.09185960241547406 0.8444929743917392 0.02485922513552493
Ni 5.54164632610037 7.610496364243241 12.547988987048056 -0.28359499268267935 0.7950110656115276 -0.5105064166303854
Ni 2.1534428887515804 6.499728696074955 0.5542832038001689 -1.4231593358278134 -0.37328381269907973 0.051460886883453315
Ni 2.77526279425322 1.7171371140092075 0.4077455050215599 0.05474264295851862 -1.3894696568848521 -0.4987873284212442
Ni 0.6758947040669736 -0.11135282951141079 4.600636397257619 -0.18916582976781615 -0.2794907407063187 0.6730181341457829
Ni 8.59046462259487 2.2064016699319313 1.5173573303669552 0.8199782770798266 1.2909190156024477 -0.7185526282424722
Ni 6.941519519765421 0.7941952622459689 4.766798080564877 -0.6952286088045511 -1.2491151921927843 0.2525458366863586
Ni 0.9372373737246548 7.333564751015756 2.5752675911968352 -0.7101474348979125 -0.29070486425458325 0.44265346154215374
Ni 7.52762324845324 3.9368984081117415 3.9554217623564156 0.4356042680048562 0.008870563016752465 -0.4883725608458234
Ni 7.560397773603479 3.776121305034222 12.573755140250261 1.1569506569423817 0.13783298382179487 0.5594273107008043
Ni 7.990521554234388 8.863938663713162 6.933635893307024 0.10809611887899448 -0.45731620576065113 -0.3933831545521161
Ni 7.147616160933869 0.5061034751686518 0.1488919252330629 -2.224756282186975 0.10651257644195851 0.4757052497908001
Ni 1.5745439438305637 6.703933628942822 9.331613306672377 1.2449965420387203 0.20172772559322677 -0.44135942532107864
Ni 0.14718757751536338 4.727415248092851 1.2567034597603466 -0.35747564202222953 0.056577125064096116 0.9006263270501973
Ni 6.323618799403261 2.071882202165332 6.929713992796778 0.38397805918813227 -0.5234899733742467 1.2446407013611984
Ni 3.503860129524916 4.106545722359446 0.272911959369649 0.0535661061519142 0.40444069791785825 0.27085569073913995
Ni 5.891286517215694 5.668861446505399 4.941491458820108 -0.4831169688738389 0.25985753985642346 -0.23565111781354903
Ni 5.427003372343691 2.950567130930888 9.274940803407203 -0.9982709115785647 -0.2963116689183994 -0.47986786580892193
P 9.323949625246057 5.53574492030143 12.455031889355299 0.21389778529685743 -0.034394932540102056 -0.4176029463314292
P 3.861175768673216 6.109665685484079 12.60871463374385 1.5065870054258506 -0.103692333384344 0.4638208396483883
P 2.400849370512597 8.576634334158095 1.4737204170275962 0.27488589494445564 -0.16022934923912405 -0.9566450085076621
P 6.286228143950171 7.966110371044608 5.8542904956473185 -0.2891033240954182 -0.830328509965899 -0.4824137721592273
P 4.774526930889591 1.0187709066032395 12.586684830716187 0.21415515272330213 0.03330529902034909 0.27448300307908213
P 3.9623776371362998 6.4217704013721075 8.186680843521463 -0.45548018099317683 -0.9306568119740166 0.15680772515208477
P 4.761809944467032 1.1388808068362344 3.8135816550036488 -0.4721478714568449 -0.4617120208355016 -1.3167238924806934
P 0.041561464950253695 5.577887474595691 3.739806841528208 0.39220301820108583 -0.6690897456256542 -1.4609170141925614
Ni 1.6086761543639942 1.1033999621555004 2.7082320566378857 -0.806968752194036 0.8377780242654088 -1.0204446194621264
Ni 1.8602190509258003 6.175794014881387 4.7051582590444 0.21070833182528226 0.921652037372245 0.6021189360320598
Ni 5.78775848112941 5.516882144710959 9.17175671428466 0.6866727488147399 1.2523097878706821 0.8564743151233315
Ni 8.76629393095404 2.40571893542031 10.15297856880677 -0.13427252016404617 -0.25108699275264496 -0.0530292598118377
Ni 2.30652644132435 5.229025689766728 7.133684498655148 0.5470945001670642 0.2729200294673364 -0.4413028610515303
Ni 0.5804684292239862 9.129348053655294 9.057233236841704 -0.019239050735270092 -0.09771657541688333 0.36104716142357174
Ni 1.5472273139207537 1.115519567009455 11.42611997806321 -0.4982216857257613 0.6622398125833563 0.2706111788285017
Ni 4.469554588881262 6.750094931971328 1.6183283923148961 -0.8539831732703616 0.6587446549459042 0.19484179710667088
Ni 5.639444929869587 7.944550327159529 8.045687931847809 -0.6453265817677853 0.17951853648603924 0.046039715867882
Ni 5.535690612886103 2.8785464469705304 4.830465378924253 -1.174472724986545 0.4039012804746205 -0.43118608433250255
Ni 0.9033730797735072 7.3283331366725255 6.823377358214465 -0.8339704775938604 0.06828232931616628 0.1468364728719858
Ni 4.997531280696715 4.579726232109296 7.109123970073217 -0.4424786265271864 0.028854976558479337 -0.2452297626409196
Ni 7.999907685850185 7.3781058828203205 9.036276005266762 0.1254448945700872 -0.49757273928785284 0.5264068899107257
Ni 4.505442739176953 0.37000818723396184 10.359717847723262 0.12243053322379562 0.023397810098650027 0.42676404400540696
Ni 8.003410514138817 7.016364189322816 4.764228434696291 0.2856804144567983 1.4874153175934062 0.40863082473980594
Ni 7.163329106435337 6.2458686831258365 7.021492619576925 0.36650407077308494 -0.9727755955209376 0.1646537035590648
Ni 2.3775605405729214 5.027165026993838 2.5746050407298373 0.44760720600300336 0.575932507444679 -0.3630137982316393
Ni 2.2935560202969283 5.296556960726666 11.413707113166486 -0.48329026122690966 -0.0034290802862069975 -0.0215620424414919
Ni 0.920555945983177 3.461581806692337 3.7119607143189537 0.11357333994348182 -0.32099040261200207 0.2160567406213892
Ni 3.610438432105437 2.7745839515616244 2.5437394212283655 0.37756135702851107 -0.38784576967365464 0.4330239088721897
Ni 1.1421483029917816 3.392385108329018 8.128140165169018 -0.6462022995045194 -0.29290804255348907 0.35065656221786706
Ni 3.6222412437033142 2.509681430829216 7.078720868725618 -0.3035904619679997 1.388487495477241 -1.1105774689944807
Ni 3.924742598314235 6.9613688800676785 6.004131895525027 0.9778126437242127 -0.23847084665053123 -0.25899493474581203
Ni 0.6091753289661842 7.530646361239813 11.50580253320271 1.8205611246210196 -1.7013876648819408 0.8111000007535902
P 0.12831846605976993 5.625786614914682 8.112190077287288 -0.23813711746019633 0.05870728403322147 -0.19287156075417752
P 8.316872915410038 1.598348694215852 7.997281922319092 0.879717344811672 1.089133697298408 0.5793119654398733
P 1.8928849612453844 3.3706440397261805 10.29549389835678 -0.12214719765542188 -0.8229237328613958 -0.37531524130681165
P 3.9068573561996613 6.172463160074623 3.7691898685912357 0.6441893828395487 -0.5176142313197601 -0.0437689175558343
P 6.940949291904481 4.03543921322377 10.47818856913695 0.3502899229070677 0.27718163295716775 -0.4955765347934304
P 6.282752469369201 7.794824783101187 10.3525501740236 -0.31494316797665756 -0.5724576615222012 0.26777808025508076
P 2.466488933171955 8.519801624017704 5.916076042065591 -0.9055641306714469 0.8761085444144912 -2.0590797937903504
P 7.102160854304622 3.9635542978017324 1.666310804004056 -0.8351308164505488 -0.06435831167141175 -0.16912819439065066
Ni 5.583463035902663 2.8068335050303634 0.5037972202644041 -0.7312042555682117 -0.2814188109669669 -0.2767219197119299
Ni 1.4420791066105274 1.0761104859533541 7.008351130191222 -0.8351500997242585 0.6899185094455472 -0.8298821664570998
Ni 6.790436290323888 0.6676435974315253 9.359485682465705 -0.2820423034835788 0.6585590212976594 -1.1701684411842361
Ni 2.7095055655273192 1.5411810883476083 9.044025673434017 -0.505043336633285 0.832467924906405 1.8426132193250524
Ni 6.466139559694801 1.7845145139590504 2.560007207489764 -0.46729260024707264 1.0530616341661994 0.2598117742201526
Ni 3.9630655310637835 7.068309232083718 10.599124847206516 0.4840435944531664 -0.8598018368346676 -1.1190279137546792
Ni 8.449057164317548 6.943402176830113 0.5918204892746435 -0.2894429668230241 0.8600764306522929 -0.07521530899057369
Ni 7.637975916399034 3.8746530589103623 8.339171540143573 0.18344435390300665 0.09016627387345116 -0.7500666396903534
Ni 3.093042635042988 8.38482959445671 12.593639800372483 0.30637162425756265 0.8507003887540318 -0.18024924400447664
Ni 0.1196102720119806 4.889486677902347 10.237615770471331 -0.5821571481981522 -0.31093353259663226 0.1435742571809463
Ni 8.581060388507298 2.3331280235990124 5.73417606979638 0.43697158066602804 0.42864043509251337 0.891681973372716
Ni 3.63224285935949 2.5973245479321614 11.417177357005922 -0.1790876195962077 -0.34304018332318986 -0.31842984097367744
Ni 1.0885197303557232 3.3432549999292664 12.40255915954213 -0.490243295505975 0.07130748929573526 0.397855845611489
Ni 3.056593308122245 8.53851957983397 7.9595799043514575 0.7503893131370947 -1.3881565945003835 0.935870494964472
Ni 5.580919638618151 7.798427174984588 3.55611834504754 0.28715211390631834 1.292367060902884 0.8395034915969477
Ni 3.1657874178743812 8.267661345887296 3.4849403311483504 -0.23118228340891794 0.44665564072301145 1.1851006370140365
Ni 3.4382748742808853 4.611315045358215 9.295488013996422 0.10211624714647574 -0.5619109963546064 0.005561553248177518
Ni 7.288562006180907 6.087680233512267 11.555692945417048 0.06171624606287436 0.0968835379926267 -0.5506076555266453
Ni 0.4832481994280086 0.1541561240254902 0.4497957367097625 1.1716064591823436 -0.4846056376042235 -0.22701375385352515
Ni 4.614148082191141 0.42861131911403333 1.6122875974832833 0.03957416274819636 -0.5689936142330007 -0.431378917069599
Ni 5.823375094348463 5.347515418775782 0.37248007975495884 0.7566908298750903 -0.23918844154284616 -0.1499433939320837
Ni 8.08288941647084 8.890087684193427 11.214108354241992 -1.4151040696235047 0.807414324371887 -0.5497509639533048
Ni 0.13877807425187613 4.831296282378766 6.015206987757513 -1.0442682042442852 -0.03833489102445656 -0.249923311461847
Ni 7.982999977211508 8.98957886907369 2.37977628311829 0.507138528599417 -1.3096695567370733 0.6572724412757519
P 8.558387042608004 1.645786221504558 3.6559770101048525 0.5962048845404699 -0.1835137736883614 -0.3365324641116591
P 1.7319087309783294 3.2594043506633685 1.4165175113393893 0.13973277194766903 -0.5076671474093774 0.7265924678278132
P 4.71444482706543 1.0459065117952906 8.175870952500494 0.7844332900956813 0.08775663599069401 0.701578719392295
P 8.579195833914383 1.6112919615356098 12.313033385374494 0.6224201094832571 1.3066467107503497 0.10340539827154449
P 6.496262072729873 7.777853715811295 1.2258269787758087 -0.42917779565322217 -0.5866298392575252 1.171773837998143
P 1.6422743419800363 3.2197327837665175 5.8980197315927345 1.3168815011044803 -0.04016860179908566 0.44121030133772404
P 6.8702772420914275 4.0411686455408375 6.124007368748524 0.47287137988643085 0.9008307297515195 0.25535193867658607
P 2.279200760178652 8.531722101682124 10.40379193575601 0.6428410963417703 -0.3407354464494132 -0.9750471651639336
