# total energy = -381165.2864685299 ev
CRYSTAL
PRIMVEC
9.30417128327305 0.00000000000000 0.00000000000000
0.00000000000000 9.30417128327305 0.00000000000000
0.00000000000000 0.00000000000000 13.61759515312479
PRIMCOORD
 96 1
Ni 7.997633200620668 8.429486319902649 4.3520196972306975 -0.06769148980970277 -0.6392130126708798 -0.6568507803573009
Ni 2.796666472046025 6.8570348187876835 6.7168516583377045 0.12508185480371362 -0.5316252008868715 0.6591195217868197
Ni 7.654058060348651 6.574457826743882 10.032109388295597 0.6183960759255286 0.577014170544632 0.7365896882498411
Ni 7.489141620851224 3.7287583709939685 4.370335889207828 -1.5092840926420394 -1.8925733532932631 -3.168376339189879
Ni 2.5108981491843045 4.216296956588621 8.20912260088246 0.701092780894812 0.5960218219953863 -1.9092140471737378
Ni 0.14579822793865108 6.85699760210176 6.703329905924638 -0.7444750045351889 -0.3959398595356987 0.5591457749046435
Ni 2.418005301119858 7.226280168175267 2.6048004998544196 0.5878778527320134 0.6377089173215276 0.541585397423377
Ni 1.6735599325969706 2.7701774958401475 9.654943397726397 -0.2313208658693113 -1.1146138438473836 -0.5486001381783132
Ni 5.909135132493837 8.427383577147985 13.71291871156319 1.2299753860395397 2.1187047045418352 -2.310642183517517
Ni 8.293152295194282 4.6572774680932785 2.303633773191952 -0.35950681351964536 0.29086144443710554 -0.36680514695327154
Ni 2.7672745943381334 7.558550740098095 8.959029518064584 0.5776862569109922 0.1201093412897867 1.5252681267751216
Ni 5.233745324701552 1.6499459453786645 10.714092131999188 0.4006894584055422 -0.2298813052093073 -0.4762724351481798
Ni 0.4124650867502603 4.3049377982863355 0.30285822503767934 -0.06720375154000684 -1.9532765847105906 1.7641223249070004
Ni 2.010026685857646 6.967028734033867 11.694409412566486 0.4856901289176538 0.3837728851558616 -1.0401228146173442
Ni 8.778606746377232 7.6744993250919995 11.933385196216896 -0.868050449996705 0.8212262905543148 1.294356837639403
Ni 1.1270608123284003 1.7633172748723827 6.223186275822936 -1.9222012034620248 -0.8134304486589796 0.37947425778050775
Ni 4.4331399771204705 5.547668070464215 3.096436642569222 1.111221273226067 1.1417564657004464 -0.10544968239508291
Ni 2.445443302816778 8.09719713963686 0.3601365655078663 1.1508458295962245 -0.5134498155294254 -1.0850348446386862
Ni 0.07338665255492019 0.9793850025849209 3.4975701788729987 0.6619251095564148 0.09440936542052128 -0.20388333848364887
Ni 5.763562065505022 1.3326085686825424 1.0243167075000679 1.4059242028964498 1.3750552812317351 -0.1483228276095252
Ni 4.964771031362701 7.220846532030471 10.296904247805266 -0.573098894650626 -1.4965219078803644 0.012687622769997504
Ni 8.401238855286898 9.066924412224694 6.5530051985605695 1.560060037643326 0.9206279669831048 -0.7262065452433041
Ni 6.970145631479939 1.1191150498837852 2.908513778251186 0.4389235621860763 0.17046645358609996 1.0813126585920927
Ni 4.358771734474325 4.411498474256097 0.7551135315427887 -1.112870893014348 1.4571745164309935 0.43002805946865935
P 1.9921719807859641 4.188496092203948 12.070132326139012 0.6231706144960364 0.3101380332785304 -0.6692247285416215
Ni 2.6973072248024126 1.974670834230553 11.479823584035882 0.220053263375292 0.8136780458934115 0.9178141516833935
P 2.744200249065715 -0.12340587843577609 4.3045219018211425 0.9316646844132407 1.7485640654574273 -0.28657284436408065
Ni 3.3010363038494694 2.405146936133373 0.9248011501755776 -0.31651385489788714 -1.1406521768926743 0.09766566757428988
P 0.900526566782134 2.3857570427673562 1.907552402002257 -0.19740621539973743 0.5941624001891445 -0.5482224431239204
P 3.8145707445615153 3.540386115193409 2.64645713640832 0.2024941714456061 -0.2722831672142859 -0.31873168848481237
P 8.070512775829885 1.6454892472393547 5.019037611524547 -0.10521802600025106 0.08297798365512807 1.1941303513164725
Ni 6.265019691634971 4.382729976037421 13.391761042057047 1.6017533036170544 -1.3870965286669854 0.6653901852868799
Ni 6.109947065564245 3.5137482722438382 2.2184699003766175 0.019162174750747645 -0.3427954143022354 0.15849462593620445
Ni 5.313835632808398 5.479477797681329 8.766368039211368 -0.3311778846679651 -0.5201524243605816 -0.6608904976443134
Ni 1.138728243365341 7.869068159098781 4.929596611079483 0.051278338559002004 1.0279920927920811 -0.5946411395977759
Ni 5.973073398909992 1.0120612528255395 5.188399584155508 0.18271313216393695 0.6049849447259452 -0.6174637939192462
Ni 9.452107807358912 8.42491797170557 0.4781981278450629 -0.9060169019381493 0.9217785356477801 -0.09520846428304892
Ni 2.31446848088136 5.679610526233637 -0.008659392397193563 0.9735386989392073 -0.08920133885702058 0.7077547662960197
Ni 1.9418829339321646 0.4141891497256551 2.1253798038767777 0.6245114447946469 -0.5174417102976379 1.5701688439425538
Ni 0.3182361596611687 8.170216277418287 10.016640272791596 0.6060545236410401 0.4765130904040761 -1.8049298458416658
Ni 0.5676819274789393 6.352395166011296 1.4606507157672084 -0.8570399578188144 -0.32817792149937675 -0.6441958105974519
Ni 1.663232302253267 1.063606362829249 -0.030241348564089644 -0.8182114149873909 2.9766486622321575 2.059880435314775
Ni 6.917753841871476 3.8380544733790902 6.474009061019867 -2.485143212184307 -1.5958155979763808 1.114670922337564
Ni 3.647551562309424 9.142902276537022 10.985218480201551 -0.14584017039698755 -0.8157729807492274 -1.1353785871985609
Ni 7.333129273460935 7.817225315607685 8.105533677283667 -0.7899351937505169 0.6097234878521951 -0.0720281695118437
Ni 4.326625822008112 3.7025578241039963 10.047606416314041 0.606328089017401 -0.8608940414575817 0.03757487292998045
Ni 4.913802779990801 3.452554736414525 4.411188645345787 0.8665327278005979 -0.4606041324833035 1.1890915033409843
Ni 6.90796585347366 1.227452822606383 7.3840323956324685 -0.8763509994426003 0.17820316010872533 0.2611196943982987
Ni 2.267808060905078 2.86313547310496 3.9333198851711444 -1.341486187027038 -0.7034615382373046 -0.49049629205704554
Ni 8.934246926908287 3.7418493402674735 7.322113134427651 2.13084725344164 0.09992283903958275 2.2700994862084647
Ni 6.702994955751327 3.1860739610325317 8.845567938107502 0.6606989504587977 -0.8384508819627173 -1.1146773500954674
Ni 0.1182439240982205 1.2558491539658274 10.823578039482518 0.22504480305261243 -2.8133949243444127 -4.044233686825513
Ni 5.243803134072311 5.580046587217447 5.617517277022129 -0.7717155854186968 -0.5580137181827293 0.3938233274133282
Ni 1.5146353795331868 9.178648903366309 12.003801026817994 -0.9848479533044393 -2.052224975652046 -2.970145828116633
Ni 4.24886155677147 9.100391517041183 6.149188339201726 -0.9264093495515724 -0.21325423817558756 1.3740126988998338
Ni 4.217255286251144 9.104289964891644 1.5704492434122939 -0.7829855019055613 -1.0169512615968874 -0.2248468281091934
P 4.952489525008025 7.185658155490033 7.419560374431956 -0.3517207418163233 0.3891331210265105 0.9031974302114832
Ni 8.948752130246877 1.8134667591539702 8.49257232421116 0.41508017990957546 -0.5692270704000455 0.25678224336520933
P 6.819176145032252 4.6208237242314505 10.274830100967037 -0.8347235537098012 2.702182885544256 0.719518077479535
Ni 7.665818533100399 5.508813850360336 8.008263216537499 -0.013409074317054325 -0.09426538364348927 -0.4895496118730602
P 1.5120022990041169 5.15554376340531 6.44515310358927 -1.813683937885212 -0.9240228515972667 0.9546554888814591
P 0.2376629650544678 7.9922833020192 2.6959432332633253 -0.17886393362117584 1.4911837834969028 1.4579936698981795
P 4.208565190088064 7.375109695182368 12.335717109807403 -0.03528761955770052 0.20402166383372605 0.9062372454790715
Ni 0.30003068732466004 2.8630610397331133 11.998299470221388 1.1595821810279578 2.612850677536326 2.563442302306527
Ni 5.1566323514685655 6.827382424278329 1.131846878138131 -1.5503770060276072 -2.5409865444061723 1.2187514922992624
Ni 0.1736391002606907 3.6974870506469526 5.257290461050899 2.102110804738896 0.42123180133326815 -1.8135805795381283
Ni 4.7003836945638895 2.2022694769942244 8.213561621095955 -0.8770184578232704 -0.5965722951822178 -0.8567098281729053
Ni 7.255011449708021 0.6162069034199765 9.732454589498763 0.38309745635539183 -0.23890227776099499 0.07526801660538004
Ni 8.080914839545434 2.4381395282043394 1.0154982137705524 0.32440122806576394 0.13601161434233996 -0.2038465717084425
Ni 0.7667893363340621 6.096483929431507 8.817856393769045 0.5488035124383709 0.1507106111154114 0.11499464577104067
Ni 5.127584728105464 9.017054053087532 8.807193813252033 -0.4949206463769863 0.6111671622772571 -0.5085451791389565
Ni 0.568980789817661 5.786850406721499 3.8859439744079873 -0.9785145548872439 0.10817325197383305 0.4731495732484819
Ni 4.1393049375848845 5.106985292446942 12.002862235915579 1.0054504600461396 0.33648592714443987 1.098493027026121
Ni 2.754258058436475 5.181818743667128 4.793679413253456 0.19758850661387262 -1.1044489874992398 -0.43358569491293075
Ni 8.049038748052165 0.7430599773893942 12.444575916132928 -1.2406526632477277 0.008996804181971603 1.5473598164678384
Ni 1.74739783746871 8.836729905617878 7.354127858075983 -0.8572546449327817 1.512850212726743 -0.22831858870787775
Ni 3.278650467266631 1.898637144889341 5.8168237951469415 1.8213036592139988 0.1918084095969858 0.33590022984429896
Ni 2.8602418757744266 5.32883395723547 10.181740004467194 -1.8566799818307638 1.0366140301331372 -0.6101536334110783
Ni 0.08887902848762352 5.513140290098914 12.072624913678723 -0.2857115248050499 -0.6580975082802086 -1.4599618493681437
Ni 6.718895784812038 6.13285393575001 12.153635404345021 -0.5786933580192679 0.9610603639665384 -0.6751336378268888
Ni 6.436281576082314 8.421214911456206 11.48789867446408 0.5219069451578431 1.3150153944300191 -0.6372186079486704
Ni 4.480768030930757 0.9698668351600482 12.847111591078862 -1.3115549466852443 -0.7771496119500745 -0.009209177303093818
Ni 9.06437506923895 4.242264899191572 9.799998222363731 -0.23757635986071984 -0.06997205831376337 -0.02956948612700069
Ni 5.267119387803231 8.382695641525636 3.615090238430012 0.4920278982102235 1.3263254201261998 -1.1810056410090564
Ni 7.334282990724555 7.980913604469646 1.9195501311267669 0.3129001694046998 -0.48573280923013124 0.32526306184542697
Ni 2.0709224881995736 4.866667847268997 2.381934889123038 0.6154395644003658 -1.662682277891943 -0.7269105132888642
Ni 4.445170270845163 1.4058044857221061 3.178006313941518 -0.6565823571872628 0.22420122410539453 0.6243132127409119
Ni 6.109360902760955 7.733404034737033 5.7255042824799 1.4518649312926222 0.6565085665265338 0.1388053750373932
P 6.49258111771272 6.6815953613454555 3.603637733754278 0.5689311364261814 -1.1872058562824972 0.46889002664117957
Ni 3.634795543209228 7.2972616924023965 4.707126427636036 0.4320600022970236 -0.13521354392107682 -0.6147566794007284
P 8.070410429943594 6.180937893962856 13.840106735705918 -0.03918258373673252 -0.0577451772302683 0.3966291722932395
Ni 7.5135278543024375 2.8653870826033168 11.06255289271578 -0.3781519394246584 -1.7991353506470757 1.144880356041409
P 6.061891019865841 2.381458515543221 12.645925630314926 0.6101307505929429 -0.3845005073505055 0.5544982488303031
P 4.697648268148532 3.6498962135225894 6.549790607313949 -0.5563892952054288 -0.29505028570747255 0.7767130386332881
P 2.9606897110812946 0.9282743973893656 8.598286320576168 -0.18105245663206238 -0.6220845805207093 0.2236430376090794
Ni 7.67496453366604 5.647222705308924 5.4375876264232605 0.8560891638697707 2.7634296481698795 -0.7590346475169185
