# total energy = -340863.4001623393 ev
CRYSTAL
PRIMVEC
9.28505350107795 0.00000000000000 0.00000000000000
0.00000000000000 9.28505350107795 0.00000000000000
0.00000000000000 0.00000000000000 13.58961434642150
PRIMCOORD
 96 1
Ni 8.379054999328229 3.3508736244299415 10.651743584298346 0.45788313400771463 -0.36689153601949076 -1.6576442012474033
Ni 4.7258136120139635 7.223641528491454 2.101389563914485 2.447337197080127 -0.0659056015538736 0.006437528095227623
Ni 8.742397707671216 8.000549798837534 10.83164242178215 1.2738111522775677 0.8183417699176679 -0.8964883936224238
Ni 1.1533336188826502 1.1346520915089895 0.10884775211167355 0.05404818799465531 -1.0484277349386135 -0.5329783724806564
Ni 5.992749858837338 6.443901316868551 13.24810727261853 0.4450448445924658 -2.2627085930610327 0.6660936391118076
Ni 4.968004944029156 5.075070894399772 8.584368884887175 -1.329539299077807 0.5573606579797628 -0.40714112756815685
Ni 8.09083765777465 1.4807617408035108 12.290012327886693 1.4759710803122066 -0.5190769319082157 -0.2597292418086753
Ni 1.2249956607663048 5.484374616907582 11.208659228218174 -0.07701816652726737 0.6792201491914367 1.0705795884453047
Ni 2.284225263778154 2.7309291812467515 1.7775761132692536 0.996608179164161 -0.9951362226043249 -0.7306509541679029
Ni 6.775851259778961 1.3906595829337276 3.0496720642484654 1.1272505587747876 -0.3313786878248616 0.502921919414908
Ni 3.139192977777497 2.4858409125811702 12.753676323834778 -0.8938944076430024 3.295574983226279 1.4903042091054268
Ni 0.3303529137313492 6.076408189670681 8.815310446243357 0.3183102846766776 1.947188983755614 -2.1390884104045096
Ni 7.390995330371603 7.51633426576775 1.1466660220600728 0.20268700418270255 -1.3353361082652422 -0.23529142048128512
Ni 7.003715754449442 4.753845188127821 11.698469934446688 -3.3206884904644554 2.4022657586627854 -1.1276969022835868
Ni 7.1457306456920575 2.3788028173706532 5.649841695943632 1.3334044384601682 -0.33965172646693115 -2.2570861046679322
Ni 4.70523793375351 8.755888890212931 7.380207026864915 0.4592658732878542 -0.4474760797417778 0.059246444366143125
Ni 8.840587147023335 2.254903065246335 1.365796995533901 -0.8816711261039331 -0.34482350047585775 0.2663606310822639
Ni 6.682174356363026 0.7647030676956442 10.306431521088017 0.7968013247427309 0.5790479131452092 -1.8117759222292216
Ni 6.702629328929713 0.9336492562281709 7.47593221305353 0.6813307677765362 -2.3289021581689697 -0.15392577561859944
Ni 2.1839559724719106 1.350863844204349 4.741905538003671 0.7631671816280534 0.5614399702554589 0.9903650264679266
Ni 4.293074414808779 4.808636288044307 5.807508401646375 -2.0032344046859563 -1.9796275639002936 -0.32207643658732915
Ni 1.1829157989087353 8.440837744429789 9.295852812201304 0.7025822209561448 -0.6999442691126656 0.0640970875902251
Ni 5.224866660363624 2.6088307294755593 6.755329434828035 -2.535464071926046 1.206692247141883 -1.2844843157206975
Ni 4.001978706711544 4.464792191771245 11.352723330738804 -0.2736175697549933 0.08165952195402067 0.1938418950872468
P 8.660884224165567 8.556854486245838 13.221593802730117 0.43997617182030674 0.08258537620239971 0.04876328544663215
P 3.725553382933585 3.0699450497691667 4.4758618323949415 0.5886160164496185 -0.8628552789490108 0.11325246626895336
P 5.437447957192631 9.25365131614463 1.7574359040116951 0.009917259113711952 -0.18685466513613627 0.36782381802577296
P 5.197187916277699 6.359574462192813 6.726070374659108 0.5226281395945838 2.377587796300131 1.3698498257713958
P 3.8200752262058844 4.179629632775287 0.41414123531182345 0.17586705577638098 -0.3097400265091633 0.6603467093257014
P 0.539487598750663 3.4316257335595277 2.7532420929921013 -1.2144209832447084 0.9140904229749032 1.9114051412877857
P 5.002981740061252 6.367912440116047 11.304031582378855 1.0897438200785814 1.3248519209044667 -0.46558873018208846
P 1.2368990991823252 4.6302425577112345 13.408967108174057 -1.25103812024711 0.5851046608622504 -0.7171930288907843
Ni 0.000984215656862841 1.2643364318807189 3.986921135666879 -1.2311249262629507 0.8732592478911542 -0.3424429160588231
Ni 7.203335116778633 5.10842280609271 8.79850078562841 0.6164944880274414 -0.561674197753452 -1.280932079593065
Ni 4.429109731683283 8.775127520788589 10.79126822422803 0.5812086682419538 0.021042936713228277 -0.7258555896617886
Ni 0.641736463434672 8.19097695833376 6.989342491837898 -0.4688496603215474 -0.37664038787613846 1.0698378251832736
Ni 1.7776791773616232 5.013928817980511 1.9677219356484712 0.761316758682876 1.5641156957699385 0.1552429517681262
Ni 5.699862135440343 1.07623053572615 12.411571318057284 0.2028027038249604 0.2771114418408647 1.9810560688167043
Ni 1.4061934772161007 7.973214601726173 12.401718947929952 0.616453607487177 0.5201285131011816 -0.3873616309483845
Ni 6.23516403213333 2.855441746893267 8.65526583837342 0.020739289429880414 0.6746644114999542 3.2659095949513626
Ni 1.1486168117724018 3.013612630993819 5.704430381696726 -0.7389031668743661 2.1747244144405644 0.11498101892428585
Ni 2.8304649533370307 7.325953531538356 7.028331359429717 0.1584347192325465 -1.1100725043336042 -1.3595975519157681
Ni 6.910317402634505 8.27180334789028 3.3291698121854427 -0.39651244420971715 -1.1781512022793967 -0.19215422297217877
Ni 2.4880229001223286 1.094345674844446 9.325519486213024 0.3891979128261749 0.9794938880813775 -0.6591022953956391
Ni 3.822238643640309 0.7015795608879429 3.3066795559207898 0.5089727535946783 -2.8469650469903747 0.27703636562855516
Ni 6.785006322398459 7.8368635930372035 5.804083145459425 -1.7765919181289211 -1.5766040580449363 2.0657248099106944
Ni 8.591589870890402 6.196863186995979 12.39523612366937 -0.36810406827035314 0.49530554052023085 1.411177995096221
Ni 1.78195958696364 5.561254858783283 5.0793355194110665 0.2629253801484697 0.29747097933382316 -0.7005317661850193
Ni 0.6012044199733196 6.84488563155986 0.6787559712074283 0.407223402869318 0.7506924461998105 -0.03449649111497285
Ni 8.9353689717899 5.724096124727249 6.479256014572671 -0.6571991648356552 0.02692587785656653 -0.4329280067242738
Ni 8.566891628935165 5.1865101049060724 1.4830207942876121 -0.6129635920560476 -1.2785797773108045 0.6344595571462943
Ni 5.66661235933444 5.903631916624418 4.264053980511375 0.34454633555507114 1.5564712918508035 -1.2723710773969312
Ni 6.837736140467554 4.781774628654646 5.8149141602116 -1.4543324189965081 -0.40823538907360013 2.2059494338931174
Ni 8.959983648264839 8.219008534447617 4.976897239638377 0.2925030938055866 0.5237596820958657 -0.9068476253695608
Ni 4.39663061500681 7.882555340654393 4.868533238807105 1.0387243916079207 -1.7899158889313367 -0.18781162973276685
Ni 4.7937523474976 2.2163050984012513 2.218246603060214 0.4509486116714105 3.04286845259234 -1.863918665671048
P 3.637846768832392 0.6541069400350341 12.37301791946836 -1.4397468078728495 -2.642014700694792 -0.35266305112493457
P 7.828962012622201 6.330215123447527 4.566600016420339 0.5732032814389741 1.2197354534790865 -0.6330583059233936
P 7.21265731035873 0.3503492046617248 4.954868450526046 0.8418707062775436 2.1245341667394184 0.13011916011730493
P 8.19197045904399 8.964496184201021 8.776865682778823 0.36223938195946004 -0.701528839990966 -0.80074231166835
P 8.378795017833964 5.924811123353702 10.249681274911172 -2.603726346637554 -0.48260660489632373 4.406734807086791
P 7.835034437523978 3.4758968680116222 7.320249723255235 1.2319507645983558 0.15575948639322854 0.8100826152326693
P 6.443065662065555 4.773640921905478 1.581641060115942 0.17282441229531528 1.0382659639142635 0.883032525227834
P 1.795227928224555 0.7260670321317577 2.7251390219673204 -1.2673412282825076 -1.4145479400097187 -1.8979724128216473
Ni 9.038628050280199 9.039992953125093 2.002605881146902 1.7500229093911408 0.6718716792461655 0.2897502136507978
Ni 8.475350287793555 4.373835808991731 4.307935142722071 1.8169821490205094 -1.4549011470157847 -1.5201218066874918
Ni 3.5401122970952392 0.7505832870410091 0.9216901074919506 -0.37160899609981807 -0.6299956078376698 -0.41920448649059416
Ni 6.836046260754827 8.324774577346908 11.792183978076093 -1.4052487740959798 -1.1504395952967412 2.4484273448205123
Ni 2.1661100999012466 8.205768048346803 4.647702172061847 -1.3260731949060773 -0.3248262314183244 -0.5716835023603379
Ni 2.6981436578091786 7.7863621877761 1.3933568909367338 -2.165205162096219 1.7438252652208615 1.3778235880054917
Ni 8.68157132306642 1.7691554983710565 8.868093189116642 0.15622279918289222 0.04683495807566773 0.09441605028874062
Ni 5.948395158904945 3.483640602519392 3.735173626726751 0.4716627042903103 0.9781743979390055 0.7919936189414425
Ni 0.0021931296051981414 1.170455257290717 6.5758372826816895 -0.24292039778145258 -0.0788045690037288 -0.18192688881721572
Ni 4.256203467889889 2.04609150008418 10.714011009185644 0.41472459634236963 1.1237170917002324 -1.1049755494266713
Ni 3.07588748392381 6.208580924344667 13.534371967449108 0.08372951710917194 -1.7163887662764632 -1.5722095285216666
Ni 0.6715767679443495 3.6991652612656205 8.104288914586887 -1.9190703711425272 -0.017560377481266532 0.7061118313759581
Ni 5.946398872431119 3.369425161056469 0.14734915440174393 -1.0260233991014844 -0.9003067389272496 -0.6503392044910284
Ni 2.7791000381128304 3.438979495825899 7.505054782937966 1.792228082004281 0.3392951144584608 0.22005274915465975
Ni 6.536092611745827 7.599361212972161 9.370500927247665 -0.280249216138898 -0.2701841185934121 0.05119709169910538
Ni 4.52854336818653 8.104542396543797 13.030496262380819 -0.6733564913218081 0.5694903513637611 1.4715804074436785
Ni 3.6969554185643627 7.417299886559268 9.073268727380425 1.7226933683382526 0.06523017275340377 -0.7020942255761329
Ni 4.364040077689936 4.865600090448586 2.634088860148804 -0.9086057457112481 -1.2057813052918394 -0.8602633498521185
Ni 2.437447214434292 5.499351407987957 9.252461900808365 2.1495111483997302 -1.144350451679868 -0.5157234420549505
Ni 1.2031107899811566 3.145711085240872 11.493225686787994 -0.4483597678983117 -1.4425084297783868 1.608035022860708
Ni 4.4182276491375925 0.7187429820361594 5.503032931647826 0.30039278096630845 2.211758584375726 0.4152545007039107
Ni 0.0207604508224493 6.927996144244569 2.99868412219095 0.21753229672565116 -0.916955403227524 0.5764415858706137
Ni 7.232220917802221 0.5565860245253131 0.7586362138258878 -0.9589512880433355 0.9234361258558613 -0.7577629798933466
Ni 8.218265730178288 3.7283853242104072 13.191180610427717 2.1825038012756672 -0.1860691931203634 0.44291622828523725
P 2.5493228224488234 3.4611057779985797 9.933463926425182 0.7804280255910301 -1.0032897049493947 -1.1511314791574432
P 1.6052835915033932 5.5013662645685155 7.231210703995931 1.8194015570952795 -0.837482604512177 -1.7284120159895846
P 4.927902798538677 0.8649073636283213 9.025772893894098 -0.3976735543973538 -0.4124244874542833 -1.194111068042763
P 0.5201551891360015 0.8745489630442306 10.625121479285541 -0.025440294449975545 1.0113915081209228 0.14389975884116507
P 6.370735096339502 2.8224055270147956 11.335844960728943 -0.6183030019910899 -0.880822919171025 -0.07597198465094013
P 2.6654974101721054 7.24272231315988 10.786416783843967 -1.5140594025434957 -0.261186285970176 0.9479338538869094
P 2.396230862539819 0.24088399650117032 6.578718434741354 -0.00986686549175075 -0.43379806803405296 0.6701220435449105
P 3.0697964889153004 6.491162238504701 3.332961827980374 -0.767871271971942 0.6459827272945455 0.5865686470022866
