# total energy = -340869.2960726098 ev
CRYSTAL
PRIMVEC
9.23464155772094 0.00000000000000 0.00000000000000

0.00000000000000 9.23464155772094 0.00000000000000

0.00000000000000 0.00000000000000 13.51583137159810

PRIMCOORD
 96 1
Ni 9.077680101702766 5.8769534271654775 10.364696360776382 0.8874044290432848 0.5143070213233981 -0.1676014733334791
Ni 4.717885893694044 0.08340912714874699 4.300264016333196 1.7288020523391516 1.4156270320065103 0.576232298073285
Ni 5.946019309447255 7.4101347489775184 7.012959290918729 -0.6499602238850548 0.5935412216653778 -0.3006989993528176
Ni 0.7788625757294267 8.511153327237926 8.079655477859884 -1.5594512004147336 -0.3758423174548753 0.017086008948009282
Ni 7.453057361739346 3.043082112907093 9.382000318027165 0.34083571947270336 1.1797882236621875 -1.3813423997920276
Ni 3.6119821901860014 0.9917358331176662 8.718022220852987 -2.1036670934824224 -1.1519431764254613 2.8520347482037978
Ni 0.6805284213118189 6.173413116815422 2.1680472122883594 0.37357126203251145 -0.4261076413683307 1.215291301664804
Ni 2.1077884074142736 8.228074632831504 12.11841569225556 -0.6123208162657262 0.22512065059587033 2.166251343972547
Ni 5.556428262288054 0.6891194081130944 1.1307993729883805 -0.2054810219880719 -0.9073093954973278 0.7505685190274364
Ni 8.685327896794902 3.1045109468338734 2.6608483044715032 -1.076541205345378 -0.1373501306481054 0.11405362201401002
Ni 0.47405292341613425 7.570808272954074 0.41104865968359494 -0.6375546511318504 2.037598741098439 -0.4280064010529403
Ni 6.654140838963106 6.041053003064288 3.2590859136959907 0.8928238002866429 -1.5608948748397957 -0.6628859308077873
Ni 0.31354285259058606 4.043239938890246 8.566780036035993 -0.49376724949883355 1.1383695515060845 -0.6075303368556182
Ni 0.4036868036393332 3.2716487197203428 10.83185747139042 -1.0792390638925156 1.834982185142356 -0.49403850088234913
Ni 9.035219221005933 1.4882732611707403 9.17492456844699 0.5443112809949723 -1.3544658871161575 0.46497115120274757
Ni 7.493800599154402 6.714304527031803 0.1692672811702213 -0.5940456721056221 -0.11377337176942985 0.6521955409734768
Ni 7.307150029201293 8.339841496483913 4.515233537296509 -0.29345877285063654 0.052627653498044845 1.2621380868150134
Ni 5.370756564312732 0.9454148723574842 7.687898907315862 3.529102626938922 -0.9203731706598214 -2.1465834332299742
Ni 6.6160017703946155 5.64593040576646 5.688204746709036 -0.3515646758544333 0.1497857853082969 0.795113909737979
Ni 0.856030932287717 2.244728903250146 7.130654794285658 0.05281200159470904 -1.0502665879195654 -1.6634487237443223
Ni 5.431492800142022 3.1008632635204214 2.869208592656493 -0.33683456873311024 -0.2789857760454421 -1.3327912303562015
Ni 6.207692105320564 3.365177166805495 11.891241669350332 0.5160000927551048 0.1483192280650994 -0.5700050862166506
Ni 8.749305491720449 1.773956124423728 4.905611375894459 -0.7140753091974089 0.5424094359865691 -0.28152705441005704
Ni 2.4958465041176954 8.65847355989486 4.14794137848412 0.3143019348482329 -3.132508421648676 0.17444137907344795
P 5.061580773592858 4.54359127380017 4.564066320490257 0.08703261334047592 0.6962966450577491 -1.553643335483705
P 3.501702103782873 2.03235985727688 6.801423209590711 -0.8404820534601332 1.5235444592157956 0.46078051016016774
P 1.895751808527803 9.213927999441148 1.371924168505333 0.19873367596190936 0.33932699613766076 0.09082910426843066
P 7.2168906451362975 4.907860934515109 10.222226161730145 -1.7506633711886173 0.991557247003815 1.9528281843192625
P 2.3607621711830977 4.202223523508925 11.147505822197376 0.7590631867620088 -0.4312380206163605 -1.2753070200968035
P 7.795782604301672 8.418105081500368 7.064737924687138 1.1530796040227496 -0.1444368622915577 0.04154337065942523
P 1.59472097143442 6.099286651101311 13.009933504130444 -0.16678334830755792 -1.0227766100294127 -0.44649443255479876
P 5.617755515160535 1.2242363971246637 12.436591564386296 0.49389631887753005 0.6276651599322803 0.5709221987142813
Ni 0.5085766299157235 -0.15808320709194051 5.739754361373208 -1.2907056140400612 -1.2764221075378532 -0.30324670547533583
Ni 2.1501107684916088 1.5396271014393552 4.838545716918234 0.15315290200831685 1.2219226909383922 0.6637536781247214
Ni 2.1215480229510897 4.1994900696841615 6.524375659417238 -0.737669294467265 -1.4574074583774062 -0.05709520235109521
Ni 4.771215947200833 7.11028594597052 4.097729863344299 -0.7436172845205838 -1.7064339690565964 0.3730341585821188
Ni 3.500030633707595 7.472265415643089 8.15570921321328 0.2821274069982173 -0.2780635213414889 1.2291901711340831
Ni 6.103128261882059 3.2195745774303375 7.058683693850939 -0.05926289942637536 0.8528192348692474 -0.05490616511957641
Ni 5.781827387135447 6.962716377998489 9.255194841017909 -1.4580589759184759 -1.5707229166738108 1.3684493458794433
Ni 3.9878690296561854 2.5542556103394154 11.651863144503187 0.2726600909377304 1.060339141664219 -0.890590282970434
Ni 1.7582479995726379 1.7505832472937402 11.718806906214253 0.2394697202286908 -2.324081082631243 -0.39593934531506647
Ni 1.922873950025541 5.721081916664857 4.606843949383676 -0.24185056175604155 0.09223061260164761 -1.1220520452929836
Ni 6.967389106496227 3.662218638857331 4.596963806656937 1.3627744069818528 -2.241702680233326 0.47713221204531375
Ni 3.329790021344367 1.1283254125841435 2.678945431026872 0.4161564436928898 0.6777723610013165 -0.8221079218283197
Ni 7.862798396214878 1.715740945669305 11.310939580458466 -0.05921584823852383 -0.7877914079346369 1.0785914030061876
Ni 8.12047259240534 7.775632616985341 2.3152483180725247 0.054286015037074246 0.7472929335999582 -0.41289525644311476
Ni 0.44409574703933397 8.212135641947917 10.622145231719127 1.644349541021026 1.2598701167164432 -1.9267412574242238
Ni 7.746211049803934 8.158860996288928 9.430792468799194 -0.5048535892199821 1.2388564905792534 -0.8311198955189428
Ni 4.687651678078248 4.417519950774253 -0.18601153277515783 0.023540506324101394 -0.6913488141341707 0.3322904010058535
Ni 3.734017974963873 6.565377466788691 12.871193176705226 -0.32124185650117576 -0.02494689975332478 -0.21437266805074692
Ni 0.5230390016554606 0.2402715146608438 3.264992390271392 0.21594412630292484 -0.15900216170024228 -0.0685702928702303
Ni 1.583186904450874 2.6596598061362093 1.9445227196248422 0.42431866778870797 -0.8293090675624492 -0.317889137978859
Ni 5.91872170976482 6.050352286853263 11.99411095611031 0.9999909795934647 -0.9443893310687606 -1.513020162645704
Ni 8.146080252729897 4.845333178273644 12.425224644410276 -0.6963005017124911 -0.7607259191764125 -0.7335043644562981
Ni 3.432608517577195 0.9804418668079169 0.04798689005067966 -1.0592420519452983 0.810545928022333 1.7654806387071078
Ni 7.491935201611827 0.08638268164730731 13.056238766000417 0.36355758655025133 0.33738195659614795 0.4833008027498709
P 1.3117715620061956 6.43208465426627 8.464059427000944 -1.5270272755580734 -0.1566218343935238 1.6850812144124336
P 6.57370711324118 1.038730922692739 9.642031194677354 0.550493241435968 -1.142253202831207 -1.1073617902706607
P 0.04904148608712559 2.468419619457061 12.892183516379847 -0.23825898775004126 -0.03857194673592713 1.3097294634407313
P 0.20986276432447956 7.260699783462913 4.084037660688972 0.03110597737618514 1.0385701254182436 -0.25581216614245617
P 2.9217573955093115 6.628136089062654 2.9353544813592505 0.11583668205636179 0.08076400672294477 -0.6471389523861758
P 5.93675696422348 8.036289602315664 2.3406177246515463 0.6638603789059148 0.6506721623504149 0.6749030098733215
P 4.126831911936732 7.414234929714664 10.909180969922547 1.4852887581687064 -0.07624297892413967 -1.1055609896164962
P 8.45173764511452 4.466602069283097 6.636327215895644 -0.6083885710908554 -0.4855515464572606 -0.5433476315301223
Ni 2.080472338449238 2.6203571727639337 9.061202731231397 0.5093275658309357 0.8429102032856515 1.0485424061396071
Ni 3.9751436939449554 5.390888082346463 6.110479959820891 0.6217925032015873 1.6586093933741497 0.8127023122437036
Ni 3.7412117605364767 0.24761305449424584 11.535816024608284 1.7097746033940553 0.17377880578878457 -2.9647974193205258
Ni 0.3935305451377287 4.337824996356315 0.6147417601556269 -0.4449242598542014 0.15951818210471236 0.21769916132081862
Ni 2.1659020051143982 6.423210163977088 10.70671422981514 0.5381059235152087 -1.1390213261574706 -0.007991502845908818
Ni 5.092950850088539 6.252886439842161 1.290533733944739 1.8004905791233894 -1.2571293207465124 0.17726573589612052
Ni 2.5481330431575975 0.19990412714669245 6.777270005270884 0.38707958093159145 -1.5478997481317083 -0.38019468088630004
Ni 2.7390038441847504 4.9552531136660765 8.808645449785196 -0.5722416888566533 -0.4504945548531274 -0.36448061258515296
Ni 2.7301847617433683 5.311239301135026 1.2177425973625904 0.17321547708614685 0.006629332391059551 0.7255869093814342
Ni 3.012653969823999 3.8541144850687705 3.523117236957287 1.0617131391936103 0.011884667252727918 0.5090979663186329
Ni 1.8031560602139385 6.8701206296846244 6.51146747780827 1.1645829766766589 0.9682509681777067 -0.23728222565906879
Ni 5.533683340766458 8.209780808416449 12.648803621457464 -0.7820758456070983 0.12740947449562576 0.44059529346154447
Ni 4.423199255173676 4.886676667373192 10.370534501006166 0.5900357796152806 -0.035333128083655276 0.9343093211249394
Ni 7.4887215464394705 0.9021090219817122 2.768056025714163 -1.4468289115306114 0.12093543673550787 0.6851627399281167
Ni 4.57206167292769 2.413048710223 5.00303314775164 -0.3780964035963746 0.4868905769836583 0.18000730319699967
Ni 8.958137670075862 4.924372473159289 4.13966898680769 -1.0568671239552183 0.6685685830148616 0.6430030758409313
Ni 5.236115494160528 2.718733806531521 9.38163554969582 -1.991898667958163 0.5889006375695729 0.22150413688920562
Ni 8.78140510487882 6.541413572615511 5.996906800330227 -0.34954276032839804 1.1039237111233893 0.4159528123225159
Ni 9.120796641931891 0.6930672172687916 1.0693317535681408 0.2665730042033861 1.6058385294300217 -0.7976708718318778
Ni 2.4390072869169535 3.453386460501918 13.210548698657227 -0.4990650075626631 -0.17558243465642662 0.03546785388930666
Ni 7.836156456064733 5.828508498906324 8.327914033780992 -0.6289226864884653 0.34900719953990217 -1.2405878714480636
Ni 6.915555064880018 2.4590556931789864 0.9711961439384803 1.1600951161086341 1.0180434662198017 -1.3769141888173448
Ni 3.884514924227965 8.07704207437202 1.3668561973599607 -1.6351429348210937 1.3855777780296137 0.43834917773984505
Ni 7.822295259473619 1.4004241184850126 7.241498193808079 -0.9104911356594191 -0.6249012240338979 -0.7449010363290138
P 1.0637568006154052 3.3040530760416105 4.391604776894408 -0.22697595863705425 0.38382559277066797 -0.5752295678403836
P 8.235702446545202 7.7037594037484 11.858655390595457 -2.0848188504276672 -1.1264542881257373 1.6199160905690102
P 6.420116559141629 1.387283223915288 5.319236500500719 1.6557171594280193 -0.305794411597854 -0.13627155287194595
P 4.72493192500585 4.741646625758627 8.133435258397977 1.3997764381274989 0.048440097779258506 0.02252774878887088
P 3.7317831917693027 3.3593685774278725 1.5074342184038545 0.015051752126799886 -1.152398518795325 -0.10581683592651454
P 3.9603775025064523 7.773850331214464 6.086733079718258 -0.32055357218489955 0.5228973340955705 -0.721237631273803
P 7.241676422385167 4.530930580578039 1.5380073453553567 0.291792183781491 0.93628238569091 -0.001726752883119607
P 1.6218061743669585 0.5113636446600264 9.547717803081715 1.8242203186401613 0.526841406344983 1.564372806086067
