# total energy = -381162.5183394848 ev
CRYSTAL
PRIMVEC
9.32406256299424 0.00000000000000 0.00000000000000
0.00000000000000 9.32406256299424 0.00000000000000
0.00000000000000 0.00000000000000 13.64670805163829
PRIMCOORD
 96 1
Ni 4.248406614998873 4.91097451208806 10.264822422982094 0.0975311988789546 -0.5591123505635467 0.1251798138341586
Ni 2.7760625185513743 6.995154280349453 0.34918335175374215 -1.3247776160231057 1.0891185277897564 -1.562701074810599
Ni 0.7248815406725915 8.257716289594454 4.753489227885755 0.9341350003306041 -0.4608103349568387 -0.8755477868150148
Ni 6.3954025938244365 6.3015092822048455 3.7190823714387267 0.06938533257235792 -0.525115939013444 -0.6165664789159575
Ni 0.6879983457596208 0.3625950835743597 2.5814115203355947 -0.06966583992725423 0.27273696692225285 0.39071177836754
Ni 2.244059471770939 5.976537724123655 11.780316416898623 0.13943220998811467 -0.2972004992812559 -0.19887662929767685
Ni 8.133277348494646 0.6411178907951581 8.599500065171304 -0.050874932472996244 -0.8014956448946068 -0.332057459059441
Ni 7.285141955094328 6.549324221254049 1.1668551674258052 -0.9075595638349209 -0.528352957893503 0.3210441386680729
Ni 3.3648024870006483 1.8441038012721962 11.834794118169706 -2.78478188859341 0.6298760515406701 0.47645061259725685
Ni 7.720566360190978 8.038442306540043 4.46602184729488 -0.7681741479243415 1.0455337012202703 -0.09314412555485249
Ni 4.241991659845519 3.3649143757533233 2.513696447216815 -2.6615939083783 -0.851074998484631 1.757802810446876
Ni 3.510267189540592 2.6240709721054016 0.42105509203439045 -1.706498760856261 -4.51855234068143 -0.23468258325269262
Ni 3.540234727131989 1.447756543047215 7.686672459786969 -0.9133316904320076 -0.2109191622845077 3.1214961296985724
Ni 6.803908429840077 1.6195151024657335 4.757311161195871 0.8055492461386901 0.2152635552961325 -1.0815710544598018
Ni 3.471395172048827 7.307762131260081 5.510049271659395 0.07096656101654875 0.47625006655067653 -0.19164514454624415
Ni 4.515718169201659 3.510108680474303 8.132960330362067 1.3036390342722775 0.16787658137173667 1.3717948653129084
Ni 1.7070027829946925 4.970368791632925 9.389235124113018 2.3869856925752635 -1.0699249855804414 -0.8808810261024699
Ni 6.167270751183272 8.311273705874784 10.99209558574311 1.0200574113260368 1.189576413397203 0.986418640225669
Ni 3.3182847380761062 5.813599728040998 7.74480705845797 -0.4219915623174281 0.3746516395808838 0.5695258325873869
Ni 6.483048783419685 3.2731469504345534 6.319982115271453 -4.380364801733696 0.6791031639975983 1.7003152577533682
Ni 9.13186581799166 7.45868141049292 2.380586127784712 0.35284585655970196 -0.5771332126209996 0.1251448468311651
Ni 7.495166467927623 7.366503726414344 7.867314053761593 -0.3796655478557074 0.4967229896930478 1.0627174120884086
Ni 1.5851279591436827 3.4579591976651303 11.130569106053423 1.1540131715806126 0.6761985887562935 0.7727165158793854
Ni 2.8383659056657837 8.517587241744366 7.5329690154250715 0.0934094634010972 -0.056841948689708564 -0.4758528311122579
P 2.4887508498079716 0.02999830699838222 5.058725474807658 3.2093489249474985 0.340225082471898 -0.5511308750199669
Ni 7.587045781999068 4.173851409466575 4.712604145252117 0.6446817490949349 0.5006907160915441 -1.8930248390083848
P 3.975593863789578 8.639424769344483 11.316027510830697 -1.4050178890320963 -0.04550826884444421 1.1196863732742846
Ni 5.922700585961637 1.78287268137092 2.6955520341579597 -1.2744588131638954 -0.0481297656276913 -0.4735324105091974
P 0.725169654210729 -0.08450771008272072 8.31716371629684 1.8363129881386373 -0.6717791195323591 -0.6934177808480574
P 3.5266402436820026 4.26698947200561 12.238817877234448 -0.38455475762720864 -0.44268688588325045 0.15283357099568518
P 2.126455068647017 6.595077397035313 3.9964247523188066 -0.7743244837964536 -0.7220084480015565 -1.6443246013203616
Ni 0.05058956711563187 8.690324827748787 0.1432586292997059 0.5248837683979798 -1.279678666801938 0.7716471940746065
Ni 0.7498728259887771 1.396380957444043 12.086971786166954 0.805732822904406 1.4560504301288795 0.8584093273625153
Ni 1.3437186511851107 1.386049895947071 6.173019968258211 -0.31450170956386486 -0.5435052401539091 0.23632217573864459
Ni 8.96213058018401 5.046098829068309 6.87043561736796 -1.4237195792066577 -3.6445389882330717 -1.6431976868047702
Ni 2.318931695435816 2.8380955078468197 3.9792162621574243 0.13980579127744955 1.2468749900083558 1.2014096585867051
Ni 8.069929666355273 4.240993985134169 0.5480898521962525 0.26931071484952324 -0.7475001645147579 -0.4263650087947754
Ni 4.9804014831227645 5.242687367517907 6.274074160048988 -0.5055871249518971 -0.24255735801507905 -0.9526806245432754
Ni 0.7956269341763137 6.826416717253155 6.836059662921177 1.1512073267007013 3.663557438317103 0.1848029248134301
Ni 0.48794312078964935 3.435730632133739 5.174108886190986 -0.8697232097134376 -0.12562024380568687 0.36126313408911975
Ni 4.7226377691482275 0.9794554927896244 10.388720568443972 1.3532158167591404 1.079244206098838 -2.8624299753951927
Ni 5.167544746034066 9.105646553614868 4.2732076894355115 -0.10535300891621856 -0.727713983026766 -0.5542889610329744
Ni 8.224242904419247 7.108264485240938 12.078756354501806 -0.7548090394713451 0.8042667798818408 0.7797757367190119
Ni 6.269509098939857 8.523302892193502 13.742644671465815 0.20837171327230564 -1.949163333873166 0.14684495751241808
Ni 9.481359661034073 9.205833607572416 10.665462479684697 -1.8303264315378995 -1.575001489444507 -1.4846634658798818
Ni 6.208044877470508 4.053785453783807 1.9045209304977633 1.7527997008053293 0.9535314025793449 -0.17155068778921426
Ni 4.17959503210388 7.230456327224527 9.737636187004307 -0.1800273578016577 -0.012931620460003535 -0.9831574529758939
Ni 4.7659107442452004 6.796924706860626 12.196254463310687 -1.355270128185008 0.18409715699565715 0.638939447294519
Ni 4.211781696623326 4.489498904824867 0.6697707355426259 1.2123273339404734 5.760494155054227 -1.3644453669263727
Ni 8.6888236536504 8.911780641480357 6.541918118233251 0.5021112505881546 0.742575730629947 -0.1911221821632386
Ni 7.337524539471574 1.4413509119565837 10.507924048324872 -0.4453261232783105 0.6001479283486181 2.413484253086424
Ni 1.8692041781222397 8.361586348327545 12.001242623867531 0.8183034604805648 0.183986856670038 0.5069775775415204
Ni 6.401071623959958 6.156958337811745 9.952816906523365 0.009055682444365049 0.39930697623571876 1.1944175435395883
Ni 1.4178915701457704 3.984880630261585 13.454685912769444 0.04703627545319641 0.06364457343383878 1.0999361872305509
Ni 3.2372306608259476 3.44087751475678 6.287953027412023 0.02567220795512353 0.6644591888321782 -0.772644010770237
Ni 7.884436762545924 0.4873948659015429 12.653227709766227 -1.2291107240463992 0.8787989467624608 -0.4032783021786409
P 8.841980707936736 3.307524769693881 11.503356322590184 -0.9214399213614389 -0.1423882072926451 0.0418578165760505
Ni 4.711337005128074 6.895647882970678 1.32627053261175 1.620433910745693 -1.131544301054135 -0.08697553485029537
P 1.4766331653000326 2.8223751380960125 2.0235062273109468 0.47928473961194223 -0.47887850531245907 -1.772571741225934
Ni 8.24455071302972 2.3137381924991614 6.880533577296859 2.586707957702687 -0.7476102077300609 0.4002078907834334
P 6.395775556333351 1.933260489028554 8.689814801517846 -1.669652281451873 1.1268510093435238 -1.303586840878103
P 8.797467632497618 0.8040969127537948 4.461600376751681 -0.025218665357472695 -0.3033714039786582 0.4570426403842903
P 5.504208678769772 3.673317074375923 4.182852859619262 0.7084834169319282 -0.32272641146650227 0.919106902352888
Ni 3.192158141623455 8.094405331002882 2.5552509975539577 -1.3882769221283318 -0.3843436700576671 1.844788115489184
Ni 5.3441424940057685 0.9221460736695994 12.682718787752485 0.297680524241468 -0.7001990654359489 0.20710107408999817
Ni 1.232044351952952 3.400494999103905 7.317760323717844 -0.3486356751330964 1.1032763073473772 0.952472108076895
Ni 9.163017511548864 2.0083285180106123 0.5803995943436413 -0.29215650909944524 0.07906270776112191 0.33208856940769255
Ni 1.8540712243229749 5.2595359488581845 5.7013762415144615 1.5358158203839807 -0.6995017822586082 -0.5942037949500412
Ni 5.8068957269432335 8.894335320125812 8.645230863202032 -0.9405740710877285 -0.26881114950528545 -0.13677086110586767
Ni 1.7578562210853825 2.4533287355236792 9.205304933216027 0.3444373207810326 -0.3705021361888845 -0.4109954683172406
Ni 2.2956868070676295 0.320877362139566 9.74339472814197 1.5617335686910072 0.1977538285471433 0.8951575906261422
Ni 5.391396843885419 3.0845864299893715 12.163474788402064 0.0008376654099469446 1.162406023629998 -0.15810613224853415
Ni 7.436630002153265 0.49442707400715313 1.6917691293180206 1.424951651841546 -0.8336359770725772 -0.4504135651035469
Ni 8.592925668545387 3.7396018362730103 9.241455256798979 2.627976734544487 -0.8764049926089875 -1.424059736154896
Ni 4.186056607570849 1.4566516988848606 5.728369403097253 0.7672382663736336 -0.5334172597902878 -3.547296267128813
Ni 3.2299019475257493 1.2839047888177149 2.738907993413167 -0.057426874658901096 -1.5791309382318481 -0.11629305286749003
Ni 6.270730551156557 5.231563760689489 12.566666841071925 1.3047811182965205 -0.05873890860210529 0.286749479151261
Ni 1.8679920499682627 5.676722487268844 1.8885133796150906 -0.19644667969994556 -0.6409955584925993 1.3086375159281334
Ni 6.712392754214825 3.838185151442219 10.217154084717546 -2.1079081281469634 -0.4803098384423469 1.6370056990614454
Ni 4.151585547684292 0.11189061748732984 1.022005853025573 1.196574699091907 -0.2443915830103404 -1.2461800208238603
Ni 9.246943400117676 5.98215080988284 8.709643353304362 -1.8561917293404353 1.6567054914832178 1.8240017748714523
Ni 7.111872897514701 6.038244371223799 6.155839450284998 -0.6042251837417852 1.0884927212802995 -2.053519526093754
Ni 6.614741845317907 4.9075152848178645 8.120937883887162 0.09013259242203833 -0.6048144805863519 -0.6866976885154045
Ni 8.924638523975233 2.573189561826543 3.166691329108401 -0.8510392601506893 0.2934767705727655 -0.8074721741930158
Ni 1.8783324355279574 0.7180656508221525 0.6097825132023122 0.7945567516829284 0.0955787031382741 -0.4070879057327182
Ni 9.409471137440525 5.496991854222248 10.886388686653605 -0.9768497655903111 -0.510109695412599 1.7949300543164766
Ni 1.7826395798028474 7.3909234466856155 9.314369427292046 -0.7790833386376776 -0.7920501832109907 0.7395032623522102
Ni 0.0009920802737164293 6.07169910827356 0.2505879153029936 1.9609415574550162 0.8434195388219022 -0.5234413795244984
P 6.766379077380409 2.3338501957924542 0.13031403302150552 0.48945422394577637 -0.025422296727846537 1.0899747051424649
Ni 6.451346970161829 0.490875538516001 6.608104977471747 -0.6821038984971349 -0.4241314914785663 0.651340134951717
P 8.435666026660977 5.084560587800267 2.8452293482361095 -1.0349944922518435 -0.16988358449943647 -2.2927326502269483
Ni 9.20295247219104 5.956313832077687 4.55467037363284 0.48489848625429394 0.7261944610584461 0.5344840104919054
P 8.020372272983066 7.643670814915232 10.00579343369606 0.5295390077818042 -0.1418475042978267 -0.47107752121080165
P 5.050993961997831 7.373795143463649 6.992805548949556 0.7661746009958096 0.3132248997339703 1.0768139993907906
P 6.036649956498183 8.182993250933142 2.3911763982253804 0.5013694873261236 0.45907072655791265 0.6733498064535887
Ni 4.149599522324315 5.332944294675567 3.837181882293235 -1.0585188006260287 0.7196448328653865 -0.016418550567339468
