# total energy = -340869.3042299024 ev
CRYSTAL
PRIMVEC
9.20481968596761 0.00000000000000 0.00000000000000

0.00000000000000 9.20481968596761 0.00000000000000

0.00000000000000 0.00000000000000 13.47218404784154

PRIMCOORD
 96 1
Ni 0.9650516879376096 8.700248131584877 10.871486482453193 1.0617357649014294 1.244210298691999 1.2442108129126315
Ni 7.0665307393794 3.4357633189421066 1.2979973737701356 -0.48928016026175736 -0.7585582221011323 -0.39066626984158526
Ni 0.05418232913056934 4.274681365020451 8.44903940211095 2.1814424498906884 2.543825042296232 1.3525550432466902
Ni 7.978148450013276 0.029956164640355554 9.623248522035084 -1.211886646858629 -2.1385502785128527 0.3375135970780058
Ni 5.443757877581181 3.46200625938878 8.993463975412515 1.0674387288234777 -0.15045015836517314 -0.7879896399883719
Ni 6.622766390402156 6.194383294839992 5.750036280787239 0.5588884074781988 -0.28899559487296034 -1.5164446149462205
Ni 5.1961298228998745 7.136726693025955 11.829439413578289 -1.8124210120123885 -2.100843765101014 -1.0496153274888116
Ni 6.004653554928791 7.570881210426093 3.499871204959259 0.13970423270257876 0.3222702977656901 0.47038460890883504
Ni 1.5570596552570748 2.824406820995175 4.1502681039291565 0.3118943538480048 -0.4424883967191992 -1.14271523006929
Ni 8.148787394243524 7.472923521112345 2.451681587132364 1.2699056465755743 -0.42709674475447734 2.5263649378382556
Ni 1.9455766774854815 7.374570024559309 12.886588082242348 -0.6936725771713409 -2.0377519788468517 -1.3572287945732755
Ni 1.5322986907528477 7.87206290506487 6.501231476374233 0.47630740215117323 -0.5794140382353763 0.015104716851922374
Ni 0.15918170537581758 1.7451693469330538 10.17281858944738 -0.7186654996712526 0.3431702811431509 0.6218853200257096
Ni 4.646500844642661 3.9315717174758182 1.3235232587763333 -0.051612324859653044 1.946971725538486 -0.7739637580229252
Ni 8.581515164618326 5.157957436357484 0.5012825047012447 0.30191178871399615 0.8301475043033445 -0.6116045069249918
Ni 3.0849124181825838 8.911912956408186 0.30701939117728216 1.5037243391660748 0.6660630429841883 3.743865588449552
Ni 6.327052358557249 5.271103077876427 2.6169854179698024 -0.6546254905712081 0.5795384796283825 -0.441362253534556
Ni 1.6600431760278154 4.196072206334169 6.007044967039646 -1.4767748071604243 -1.2895578735888629 1.9528472104826562
Ni 2.7097884083533033 1.6303576330812977 6.131958970312737 -1.0999235888250607 -0.5885067445652639 0.4105838347011187
Ni 0.8844791412480741 5.61665200259341 4.243657441315973 -0.7961148401986676 -0.6602952872624758 0.2557964824131724
Ni 3.4062986916640283 7.096510836550502 8.598729097599497 -1.1204975563216701 -0.7077665933705617 0.042993472842390475
Ni 5.988351819561882 7.724951479523399 8.53751152491109 -0.7183664803735952 -1.3792603204520182 1.1144577778854934
Ni 0.3785003376285927 0.3013584271735277 2.103492720177533 -2.760341496162859 0.30644695758018836 -0.7068597652855761
Ni 8.343193182470019 7.765102902262223 5.227921428552178 1.1028227647497264 -0.08311219524014718 -1.9411569186289215
P 3.791189015002225 2.2604275291089335 9.470689684302684 -1.9489918412923082 -0.2523576319349525 0.45510171460783555
P 0.19894008232121077 7.766409986633821 0.5812199188440176 0.4434775001053459 0.36702034828787117 0.08153533767133056
P 0.18355238553246866 4.868695982994906 11.271610782094177 -0.969121286597802 0.0480037815727883 0.054653425678822004
P 3.6703481443659824 1.7005167674497803 3.937878859809758 -0.19118954506606428 -0.2646369635229378 1.1269422835057494
P 0.25485936089488337 2.323747482575319 5.964041891214052 2.2336253025418307 -0.8286061279581535 1.98284349973443
P 8.68349536006157 2.019565016773577 0.9652413072196866 0.3975527125487734 -0.0012102182580172706 0.34251233584417784
P 5.830728490130513 2.093268006656605 7.1275393626647405 -0.39462859692344293 0.002639494505376099 -1.1459710180024265
P 5.443417299259003 5.684436293526171 0.13984514101372472 1.3319381383272868 -0.12235571412180218 0.3327195181234721
Ni 1.2293496707665579 6.325386286224437 1.9760731650315615 -1.0461073143355533 1.4890356268056484 -0.8089094208601747
Ni 3.6734225540850947 7.150625970498589 3.4206416414374434 0.27495737161233935 -1.4100479952568359 -2.288040386957601
Ni 1.0959258118487991 6.403332697905402 10.043445771599623 1.72979835481415 -0.14513183147605327 -0.7643622303774191
Ni 0.7554643908795812 0.5493049686101678 4.517411535236071 0.10930402314416658 -0.4393189978522821 1.084498769629558
Ni 9.198560241027565 3.907666801186793 2.4849846241495728 -0.26934233941840713 1.4811981330391006 0.37249371269761655
Ni 8.379450966552602 3.730142651956859 4.88998488957683 -0.43522528739888267 2.2626476579161094 0.10135160106630932
Ni 3.8618820289027687 8.900545004303085 7.369257923215298 0.9525638964597529 0.740540188257157 -1.1651650744323738
Ni 8.011405462932895 6.661362198642388 9.700025921637224 -0.2173075823093548 0.556041682058023 -0.9034596827339344
Ni 6.099398762230654 3.9515185613719748 6.076210901382104 0.6074696588210119 -1.5596993118697977 -0.43351987467200176
Ni 3.392712378055018 8.833036857955872 4.844543457060838 0.7658241596349263 0.7559547230400142 1.8844265558164124
Ni 1.5688602338795354 2.5448748618634403 1.6029337142904265 0.8468311356066125 -0.5400985284652053 -0.5740684576527468
Ni 4.506872937369569 3.117543503374957 11.367895955701451 -0.19924506838068912 -0.2503246606653237 0.09822308273965664
Ni 7.8599861818568595 2.1899554308768283 3.2544081238286564 0.08322018157292119 -0.8782947534325325 -0.9842684266518855
Ni 9.090283949033802 5.699302077048225 6.590242081116195 -0.7641609129998903 1.0109333375375815 0.023243029688340616
Ni 1.2684241296217413 2.2927364456181665 8.227692027636342 -0.6785871435931281 -0.9852318190064194 -2.5334732667482625
Ni 5.548131326099185 0.8779952663793836 11.47799112003203 0.5395066605174773 1.7777306597190545 -0.7591963699057634
Ni 2.9944290423176945 5.85077658704137 5.3015332907219745 0.568660399263298 1.6626244280708138 0.14555812038019447
Ni 7.462531279876184 1.6595092964957538 5.629189887259287 -0.5970140107053266 -0.12926323987491287 -0.800176411862551
Ni 5.516126168634056 8.75231059078038 13.271098246534438 -1.004100373776148 1.0149967089736776 0.8919827924425863
Ni 1.6176089580484523 3.414049149698437 10.192851958647008 1.4351918415123155 1.5989027215421365 0.43404437971690407
Ni 2.409628448681058 0.14875908823524644 2.6958918923265256 2.355811580965304 -0.2749110917554362 0.40640579206402905
Ni 3.149603889757196 3.6511745053093634 7.866030986834528 -0.3352700524594677 -0.3590105906095172 -0.4303455907090782
Ni 3.6177886249164892 5.0748747353853085 12.525520752299464 0.34652942742337095 0.6861271607239151 -0.8833626548737432
Ni 0.06090276786088018 3.175064420544814 12.637420061255629 0.6176399144857945 1.6295569560928838 -0.11757449068307493
P 0.7117866017832958 8.5207909702561 8.819282096149676 0.07304118415739032 -0.6817295458768518 -1.007120905770027
P 7.688076972533089 7.527185932172723 7.188608737758901 0.8410705789737516 -2.0011111876953662 2.230816886558758
P 6.93988162762711 8.31844142278531 11.703205439186275 1.8522144898602424 0.241085658565559 -0.5320808003670513
P 2.167606129086396 4.6952955929091695 0.8187447636220383 -1.0382685350174248 -1.9271184382579845 -2.088410681543984
P 8.044331102349854 5.623546412412616 3.7392047967726256 -0.5868108449200797 0.5851843650602502 0.8076380103469188
P 6.083722954590988 5.688854606894955 10.036750185882013 -2.008645291288883 0.3404521108810395 -0.27547159224459655
P 7.9704256064374235 0.12465166591681873 3.731147818248258 -1.007735142315258 -0.793468403714756 -0.0024803432196925023
P 7.076720474586157 1.920640821410407 9.940868183369641 0.517191799070361 1.603768277164554 1.1976692177076664
Ni 3.510147465469489 6.313153081084617 1.0505929962031235 1.337467038565316 1.7784986482333307 0.5358847474941739
Ni 2.3251650247811377 3.2193303976083185 12.4197095109727 0.2252746596752314 -1.3414496773621478 1.1758559784873168
Ni 5.568041350717268 2.974233668294544 3.471243295775394 -0.24926176661844812 0.6897097358688509 0.3103133825141301
Ni 7.341561541766685 7.4196644353794605 0.4869975452907949 -1.938057196657675 -0.8251053138937468 -2.3590830526277244
Ni 5.509020047965929 0.8446333185172571 8.883100030352002 0.0046058742031275515 0.7962050859196288 0.007352840820645402
Ni 8.118972983823749 1.392882494328676 12.334996636463833 -2.366482430415589 -2.6030915412670335 -0.8796098726995303
Ni 8.893880714971836 0.13834751687809732 7.103195376484692 0.29674695668360507 1.208219482419687 0.04617032790847533
Ni 2.6795413714161698 4.732593521597322 2.800327933617254 -0.4374235806017822 -1.4648544015737546 1.607417700991683
Ni 8.85687734050827 7.128157006054418 11.932165199402519 0.641474812121863 0.37622129806084886 0.6816069042560584
Ni 6.308918864106198 0.6664703548127531 1.6018429431775079 1.1881682201957666 1.2955305462325302 0.3819767124873873
Ni 4.257790521204371 8.595589333661806 10.190184401950605 -1.0537586602332238 -0.7171727171758101 0.9119139841488747
Ni 3.803100051458905 3.5174008632499096 5.429141544668072 1.0867166032164832 -0.1663110366568297 -0.7552980632926217
Ni 6.798035358850107 3.3776624981425973 12.342136814964178 -0.28218140016460436 0.2520177320970305 -0.38502372684382724
Ni 6.383404263648282 9.099000913117633 6.69892246468681 -1.4968250409430803 0.6974171318154376 -1.1288970932392752
Ni 3.770017930110135 5.049773192558904 9.66850125575095 0.2869001457965123 0.10638093596010066 1.4794073596872652
Ni 3.9024476685199168 1.907910556016598 1.7886078107218633 -0.03421058444343786 -1.8951817374503879 -0.32193142636903266
Ni 2.470343438223765 0.4649059784468749 9.152907097662652 0.38565801799371646 0.7813641642520543 -0.1631526935335061
Ni 0.9102627612007843 0.6346603395214119 13.248559325461928 0.7671948147302078 -0.11026484439553913 -0.45574860416321505
Ni 7.8407296994245765 2.920468317488154 7.63600714948197 -0.7584240105161132 -1.1234887777395102 -0.16823962113811025
Ni 5.8908267567654935 0.7312860914508625 3.9242179871626486 -0.9061233456090265 -0.5449738542796356 1.1059065458813728
Ni 4.560868408663917 5.375743466160462 7.026349861218115 -0.17393924262604882 1.081411903174118 0.6450869549531535
Ni 6.7563375264322065 5.353477007745694 8.013309019609279 1.1389627050053932 -0.1356128362420245 -0.626048964485096
Ni 7.052649871545802 5.815623381300982 12.009912786981888 -0.09185266043693859 -1.8936524452900547 0.5202583538108265
Ni 7.518689883757332 4.11668984280835 10.064557025164845 1.4511722761009715 -0.9586257863831169 0.7281297304079459
P 1.551757679214534 7.571507138153338 4.011248635226224 1.0928728526258662 1.6332570306522907 0.7743558512550213
P 3.0867809965447983 6.660395692592966 11.069837456325233 -0.019792352135578815 0.5909240957575049 -0.8384159149597239
P 4.452702574504373 4.86434210336275 3.8502158406452756 1.717052110892075 0.8948403164960396 0.04489634629205816
P 5.430797491699415 2.2284223716438043 0.0943521615084306 -0.04291453997533899 -0.6244600227314213 -0.23000548949199745
P 2.9716379091903833 0.5258280764287435 11.9958349360106 -0.5000898492827517 1.1915592481551867 -2.802634343393799
P 1.955867665706941 5.648555907043837 7.731214438723651 -0.27280150161160116 -0.12082282241704355 -0.3703830941125169
P 4.941404852369957 7.4134972063022 6.061418756416195 -1.9771767883669562 0.8110246674309645 -0.11015891494529416
P 4.70228205092356 8.442485570613922 1.7569478339886704 -0.6222162210025671 -0.8200276422605232 1.7119381867042773
