# total energy = -381175.80405425135 ev
CRYSTAL
PRIMVEC
9.18733264816965 0.00000000000000 0.00000000000000

0.00000000000000 9.18733264816965 0.00000000000000

0.00000000000000 0.00000000000000 13.44659000041379

PRIMCOORD
 96 1
Ni 5.370887226466678 3.060199514155152 2.375985761862566 -1.2999716127230192 0.8876245154738907 -1.5190715110461064
Ni -0.18398185287015006 8.097145565919238 6.724236480366202 0.4942035657053037 -0.4874536485759798 -1.137768684697292
Ni 2.3496695656256863 0.789433519309103 1.6599011518874862 0.008540176260527228 -0.676741605743957 -2.523972012126047
Ni 7.962854321541892 2.780922969954388 5.19486160385108 -1.0956450160543647 -0.0322640022400283 -0.24290188583869132
Ni 0.6555768357759143 6.919311118928438 0.7389252381919862 -0.19065038473314264 0.4577311818108827 0.27999827647035647
Ni 8.403359370058046 0.8073497371144162 12.010817065599776 -0.28139798503136054 0.4080356143579682 -0.41102812132738886
Ni 0.40991766123384543 4.190636510934368 1.3350618678467705 -2.632091013823177 -1.311689929601212 -0.28361761839049865
Ni 6.498632334718661 8.886539579697056 13.248602534418582 -0.2457434690525445 -0.24953404644322832 1.1471254433218439
Ni 2.0800948449223893 8.061755959752341 10.090308029877866 -1.6032149757642455 1.7425795657392182 1.4964882264289516
Ni 1.5770056849812868 2.300489772839757 0.13477817301879103 0.9747082937672761 1.0655785356862872 -1.1810226102899206
Ni 8.522693636543464 1.275459045934064 7.492883659085326 0.8495163957482597 0.6210916204798207 -1.361148441342656
Ni 5.9453435880444525 4.241120904986055 11.596971819569372 0.07244803065808168 -0.029563315479413602 0.4362483293467584
Ni 3.9026871245161714 3.793789668156817 10.012613512102268 0.6691087717890476 1.824487199148303 -1.2982345754272546
Ni 1.9131150702382365 5.010899963113216 5.139179016868647 -0.6350372840266354 -0.041166961156612975 -1.715761931325742
Ni 1.8909552233860671 7.344225263585499 5.0592124716774025 -0.07387242180943407 0.5720270017426858 0.21102432040380428
Ni 1.7103322594086006 4.336917224690686 9.17901923994726 0.6889952263003295 0.773615630654887 -1.2031559518538504
Ni 7.5648498748243025 3.2805852547396617 2.835321167803349 2.0956208261391778 0.8532231551758855 -0.9089993816052411
Ni 2.467745167509633 0.0676196885641175 3.6193644789249864 0.8143537318041975 0.47580989368946447 2.8781869811191334
Ni 1.8588271203835645 5.732546584400196 11.06818385215941 0.2837495159826726 1.2313786941449696 0.8053929230664839
Ni 8.931318640044266 1.393130405172283 0.919326787447588 -1.6533442883204688 -0.3940076755099924 1.4170329112151014
Ni 5.498379844529511 2.2950324971224316 5.638720028860202 0.35909209457972996 0.9425867306423831 0.056199944230335475
Ni 3.0540072518092307 3.3437389808017732 6.092260065234506 1.4676407060696404 0.01476430279336812 1.070264371197731
Ni 2.8849695145650087 7.4028128852174575 1.902827094904464 0.13746788717289227 0.7598260330699623 -0.8033715217610808
Ni 4.445465562401457 1.481824916578105 0.3663834844888187 0.20378872188731356 -0.025220722240001728 0.2872891537048149
P 0.22244186567800708 3.950580690702058 3.8044166560730295 0.06508490542479115 2.7352236180493086 -0.02338212636936618
Ni 0.1913556062215394 7.01711946452885 8.857309161477792 0.6282102338024729 0.7661506897364095 0.589100926505837
P 8.271043402245052 7.773448267352704 4.542500334575273 0.17990805861497403 -0.2397476564804258 -0.1423136453009678
Ni 5.984895055995775 8.259853230824676 3.8605292102331905 1.4254195926169 -1.119033570181634 1.651021296614247
P 7.649538709104276 6.942711255716363 0.6700909842241137 -0.034331683402334424 0.8025441407637791 0.8881608475933349
P 4.233963972690102 8.533562251313827 0.1894933338513343 -0.03400438196990273 -0.9558721348973795 0.43334992475304074
P 4.446384295687203 8.284392596886926 7.009479278524595 -0.19350970855880867 -0.28530966138094094 -0.5480206115257594
Ni 6.495453517549984 1.4131863528000965 3.505606923484041 -0.03797570791282492 -1.5791790178609642 1.1293074413038164
Ni 6.398490406572457 7.318693665574645 6.243049921957261 -0.6080941797788882 -0.6895726960703543 -0.702400443962642
Ni 6.004013895672128 0.9305665704653923 7.701157738763859 0.09981742380997002 0.7408461495333499 0.3817453132028716
Ni 1.0360279643360604 3.564924019344881 11.639489877300365 0.27236030030912445 -1.102518089025114 -0.0016192807709778565
Ni 8.91599416883804 5.172404087414328 10.200758145490129 -0.6017391840951378 -0.47832288991930527 -0.2804489908545299
Ni 9.629335441221885 3.9344477342043755 7.0653492870973205 -1.3914861730942487 -2.827325675492892 0.952642315106172
Ni 5.029522686815267 6.55913092158497 10.558625891153378 0.32490696405758884 -0.4342223000556651 2.2643047339035585
Ni 0.5330224091239605 2.508426677402422 9.640102995330816 -0.33165739540754496 -0.8723272229951881 -0.8644768737128338
Ni 2.3872181950140847 7.906177665144283 12.582377579860882 0.1109742117577379 -0.4368918764680282 -0.02882180932769875
Ni 5.689182373313032 7.382609940263925 1.6927504605192987 -0.42246927328479494 -0.7865171692079035 -0.1759184778396067
Ni 6.605866883830817 8.664996235172506 10.902670375799307 0.056789755295534455 -0.2746472965710883 -0.9711005218113599
Ni 9.04223730963226 0.22970812723496428 9.513086281109999 0.3075173078262317 -0.8390694893833227 0.5941068643608607
Ni 4.24535626543334 6.7924799888313405 3.789800528230112 -0.7864994285960907 0.05441791262924822 0.17799515786297732
Ni 9.248153000966287 5.385403212381449 12.444752252389568 -0.10903945662887028 -0.15398079722625096 2.625817264999323
Ni 2.0839902740539484 5.025342450365128 0.20534148303043548 2.3641208721619478 0.2138383928138317 -0.9354935712410276
Ni 6.7758509163593565 4.598278469819423 9.601121142016655 0.2851427967857734 0.08542670230593674 -0.25491407980821906
Ni 8.648165041377657 5.609592508768943 5.672081071932174 -0.3433330319732603 0.25478089666446446 -2.990144639836063
Ni 0.7319088720887515 8.050005361027663 2.9245255761827593 -0.33723977459132887 -0.4464391538368311 -0.13455585573241988
Ni 8.992846208190608 0.7929136809955051 4.128722156074727 -0.060028831058122414 -1.1824107488866993 0.45578665649000216
Ni 2.12631631652822 8.227642441826458 7.62179663880792 1.006437249439441 -0.5697037529261479 0.550687102614329
Ni 7.368727880316318 6.390010498345031 12.060045551249852 -2.2299136580181984 -0.36969069603118265 0.7022880867544938
Ni 1.6899547551307765 0.6118478875743096 6.003364351239106 0.012537984566010666 -0.8005597633438987 -0.15851982274718507
Ni 2.8032573761308486 3.1942243258796323 1.9543009647048988 1.1572823292501875 0.29045598146857077 0.16062864156007176
Ni 1.6709369761158552 5.38943645150587 2.6416898592330194 1.4397627487124494 1.2380283382510033 1.5293911478045594
Ni 2.7351333029928573 0.9381736820713608 9.37586335881784 -0.1596999590982153 1.392634170655763 -1.3228454319973992
P 7.956974428513124 2.930024194897943 11.218530879438434 0.2543216976398588 0.8802755313079872 0.5382301077978988
Ni 1.0599609664297176 2.5995650193483257 5.222480563887146 0.4978437335610523 0.2297704906630559 -0.4817892512013509
P 7.186313386431649 6.742105842773943 10.031815037774338 0.5381671157704473 0.596310813990715 -2.38786321008421
Ni 4.115677062150434 6.232980605145496 6.1711112682168565 -0.8277939164695034 -0.27708675925051635 0.21081606104774017
P 4.88662291155049 1.82753506467109 9.813778498201478 0.2262424229051394 -0.80467327129164 -0.35261497149581855
P 6.786535784472571 1.5220470598280211 1.2922121473996242 -0.881062803095973 -0.035046192970855775 -0.10452742769112966
P 3.59717155767453 4.924006168947455 11.961401158359411 1.6649507622111455 -0.4140093154428999 0.6269534785772364
Ni 4.933946863099215 3.7621760557943316 0.06302694086867826 -1.0706986305216721 0.3049654879386554 0.6967491592141355
Ni 3.9906925859576847 4.368310341064593 3.937779979831773 -0.368915508428055 -0.23259536170636075 0.6930951074013161
Ni 7.699866918497387 3.2444422872784533 13.406640278032578 -0.7097219173247196 0.031982723554183634 -0.30399438227463776
Ni 4.835054412221624 8.335887597552933 9.032303046613498 -0.5841433253902456 0.9181717921331284 0.6412647529935859
Ni 7.244450828753592 8.198463472671197 8.284014078773199 -0.0481225665388397 -0.20761863715636503 1.1179488217578875
Ni 8.407971411152486 6.177424803356496 3.006361743610495 -0.005161232485965305 -0.7021744439947648 -0.21521367589480356
Ni 7.275017085170329 0.21732452127640747 5.606152771347114 -0.8505024138106128 1.1706422954968614 0.47419138424943497
Ni 3.4940345590167965 2.4441337220659873 11.688435393098429 -0.1417199775810269 0.17166535899020757 1.8209534749634317
Ni 3.810473864625946 1.4134068487886753 7.203943878185095 -0.6543246715013377 -0.7676025916915877 0.6540403074916995
Ni 4.599353387763745 9.3050225913539 2.4320845350234412 -0.9340344701969978 1.0415325504806772 -0.1495667273189553
Ni 5.216393037135799 6.256040810617695 13.068498654747563 -1.0081344346362058 0.24774250176044435 -0.37060343765343917
Ni 3.884946384768435 0.1622620792618526 11.179764009713141 1.4906988734406845 -0.9466953534941179 1.2035081929869467
Ni 3.093751653750559 6.426162653139096 9.34064739324195 1.2112574979150623 -1.9078459631816178 -2.840949951144546
Ni 5.277249929983548 3.679554371407284 7.996619607259592 0.5390708585316394 -2.214393708005728 -0.6888746415620652
Ni 4.239026193094557 5.421849361826953 1.7383481122241087 -0.24589310725653135 -0.7792831133533095 0.36390314281512814
Ni 7.366440234434813 2.396883269180122 9.241277201055771 -1.2309241231060544 -1.2467178956052012 -0.18178907768777078
Ni 6.239145305492845 5.1489028899649725 3.6221353785147934 -0.5884262690363156 0.6811765015868592 0.20221314987007755
Ni 1.25140660851326 5.889806160921167 7.104209867617762 1.916924528444118 2.645410099529586 1.4633662470640023
Ni 7.690394778321356 5.827267986160504 7.640151092390534 0.5964625090772308 -1.0096737540988676 0.9893985487895992
Ni 5.500244873099573 5.993751644870356 8.348894104679227 -1.342443922954617 1.436056760615772 -1.4256718178370222
Ni 6.131331954410669 4.788143890651484 5.837729602085283 -0.11142801146570488 -0.05624365298407733 0.9598365188617664
Ni 9.13868592996977 7.6422715288140335 11.263375169848937 0.8756058937464597 0.5917833584340066 0.20905356983067866
Ni 4.354253721792695 9.442740710887076 5.199729052798957 -0.11229755855485174 -0.5664716191420954 -0.8361250620430181
Ni 1.5474959718431576 1.127671609589124 11.368164050954437 -0.3612698189573391 -1.1764470751040965 0.7812950015770158
Ni 7.63554640116238 8.715076386578467 2.2577898059181867 0.5804157400270133 0.3988344074746744 -0.7599895552310202
P 1.7482208201127245 2.1009776525073733 7.674318783287391 -0.821417066408882 0.1838374755763673 -0.1003540130397304
Ni 5.9425047021915 1.6249176258328883 11.842963575560882 0.31542293582655356 1.0865970469194834 -0.7811921574505643
P 3.493896749023935 4.777844890518283 7.891010297329919 -0.8944219980116983 0.686858639573301 -0.5413115749366999
Ni 0.816372616713718 2.231998206387467 2.7908664203060063 0.7922538145813646 -0.07822118569643302 -0.5780870918938367
P 0.8258741563548927 -0.017274941971863172 13.32551704763458 0.8130496682807933 -0.6894174014394127 -0.7598982810687945
P 4.111432514370292 2.1447461062402646 3.8755495807218354 -0.42967916076967283 -0.495965542701733 0.011899836761379505
P 7.315055481763095 3.325492937746877 7.13321427744873 0.14044651018524199 0.30383368832705737 0.7195101070597351
Ni 6.713818044905855 5.15247676244652 1.4315371314495668 0.3058854286497635 -0.5129877882913423 -1.5643653498868995
