# total energy = -340869.68344366626 ev
CRYSTAL
PRIMVEC
9.28607513522212 0.00000000000000 0.00000000000000

0.00000000000000 9.28607513522212 0.00000000000000

0.00000000000000 0.00000000000000 13.59110961125226

PRIMCOORD
 96 1
Ni 1.352368276815644 7.74211662731652 10.6802336088933 -1.2667452465697215 -2.148852174659493 0.3057532739472734
Ni 4.040389895072856 4.53737135412017 3.4954978595983164 1.6815017245912909 0.9611580658866674 -0.29054597007921573
Ni 5.520794576853921 1.1307653780562297 6.425862825591609 -0.26522548903655613 -0.22581741955257884 -0.6176864514530136
Ni 4.875226628406281 5.82628787904078 9.004382116390687 0.34348292728756336 1.6938954702699536 -0.38433312853470586
Ni 3.0041196183314014 6.9356767119686085 12.50106209336296 -0.9221233205817088 0.7996729898635713 -0.5673504222026229
Ni 6.89911743387542 4.813019210589095 10.125634839004027 0.01014351619190511 1.047406749873267 -2.263490208422063
Ni 0.9984480924200039 0.014382273281871466 8.776608620655677 -0.017012989618228766 -0.3836924096269134 0.43308947200280246
Ni 8.001578854698215 9.050357474744605 7.929719490310022 -0.6346832431213263 -0.18082465689197247 -1.2391459967952143
Ni 4.93767548417887 3.7701558204500887 10.512750885052581 0.5470852441956836 0.3939035458319603 -0.594879223750511
Ni 7.2789736263265015 6.8350249427910486 1.1456398133241157 0.027230296470862777 -0.23762572504141657 0.3001788651832895
Ni 4.383761098032412 8.371526804902553 7.72036213892716 -0.24567662037035107 -0.5641105751090866 -0.3780822625289876
Ni 6.9590590493418985 5.832314541850655 7.40964170500582 1.185651367311184 -1.9636412157743666 1.076636593272662
Ni 2.452796047167926 7.258869273501572 8.742536153503144 0.8234328112873304 1.2488197724395524 -0.5227194137568094
Ni 4.804866036556629 2.0297874632261057 8.779422301443645 -2.0270510474895804 -0.14480710114678289 -0.44564905383536796
Ni 7.690894636470185 8.699492409092336 4.37764250307798 0.5321144818184642 -0.23625198462234157 0.3705946959026908
Ni 6.58754175242744 0.7646711490631378 0.07393758801970363 -1.4551991378721778 -0.858076883723761 0.7562280313060589
Ni 4.514666900237049 8.161550072303328 10.226684980808 0.2234491764307184 0.23165870882470427 0.6362508447187623
Ni 7.036300622920544 2.003684305816924 8.434751047954995 0.5337216784045841 0.11545281635438182 0.91457610436207
Ni 1.4441054137936968 7.748031857223901 0.5320874663704767 -0.26531624897814954 -0.2200362940944275 1.163485372737106
Ni 0.5184378644225021 3.08092474637528 5.396839401942336 1.2337155698082625 -0.720665560820417 0.21641335262985953
Ni 5.375764654258189 2.8074126872041525 2.2040434503234088 0.935968196884601 0.41779706462010624 -0.5902077864167705
Ni 4.097359966472831 0.36686125880525783 13.050794959843335 0.31245845388159094 -1.237931664772139 -0.36292972315826527
Ni 0.9978816418323269 3.611735377404681 2.242207362212507 -0.184688767833069 0.29455740523145396 0.15044527326916668
Ni 1.3290509419688081 3.1259064946819595 11.158368978306342 0.1754101707446205 0.551637125232424 1.1409967047162866
P 8.810888167285343 6.334923362473908 10.632801265339276 0.6872831287052292 -0.22326817076816388 -0.6881030535033633
P 6.22621128001596 8.429629777477881 12.158823791578756 -0.17889838640353706 0.48309100073190997 -0.8818696152679845
P 4.402453967425754 2.8177759471360795 5.112554566922617 1.6324376200747885 0.26100862274173114 -1.1748866725955118
P 3.0523329208104024 5.706543939235942 10.175310698328257 0.6666523398287552 0.1657011709869727 1.836144066660941
P 2.948978903747367 0.6346298804603486 8.118133027669167 0.12173427848771938 -0.7292211636999119 -1.1275814597516451
P 4.8404967071290335 6.982877832249956 2.3190375626594464 0.4481309397169573 -0.3077314807195668 0.5161013942196596
P 5.913112682233896 -0.01102442848672379 8.919600249743292 1.6767122736224478 0.6641077190300305 0.41562936754482616
P 5.392321726353733 8.822607194197612 4.701015214469975 -0.10344705014275732 1.4171509248502043 0.6205812565023054
Ni 6.270366567629143 8.84395588110039 2.2166827272887724 -1.1146063876482157 -0.7543210440913332 0.3848905437000726
Ni 6.380174406961614 7.703662989880938 6.49010853691691 -0.6802280216306608 2.541804412321777 0.7387578995457534
Ni 0.6660279579530294 1.3822601529096163 3.596126413587857 -1.2640152492330683 1.1442000421449328 0.7526655107657811
Ni 3.5414397880814845 6.554520468988432 4.682694716692468 -0.6323155142200981 0.20879003175664687 -0.14977447245438721
Ni 1.414798560437817 7.272621950884353 5.487614501528859 -0.6190874455655982 0.10991594569655264 -0.09417410948126362
Ni 8.260270337837662 3.47637225910029 3.709258667844727 0.3734558195005697 -1.6261006221131673 0.7388216629041533
Ni 0.44067255620213514 2.833840857245608 13.498567649149368 -1.8957244973277352 1.4625368091841715 -0.18302552119803317
Ni 4.936208284296034 6.149434010197704 11.56837241391961 0.3324320687900404 0.4771224418533009 -0.8864916874210281
Ni 7.120079593445496 6.245414883545731 12.050557440730785 2.565733669443865 2.5710702511654304 1.3386939689938817
Ni 5.149676581173399 2.5395001313833405 12.844753665917185 -2.6816773093917363 0.6548026395790207 -0.3359277406481247
Ni 0.007933094050040545 1.9610055041617838 7.737025072280073 0.06693018616364603 -2.1902747034703376 -0.1478299471335067
Ni 5.1473364902210275 7.447673754626966 0.19184567075595532 -0.4322368941945201 0.5935332512455779 -0.5732279640293224
Ni 8.249702784251165 8.453272124956992 13.256931900344124 0.8634867418854226 -0.23935710591022646 -0.6850334134391041
Ni 7.537386527209715 3.2343771391845038 6.424830214028499 -0.8365927457080561 0.2628968409033795 -1.01305398342501
Ni 0.5309991383561201 0.2816448038381361 6.008928263443223 -0.9876370860138023 -0.28338930442977645 -0.05521649727114362
Ni 8.647536818304584 3.9759445331305856 8.519573773333304 -0.9290776404123547 1.2403184198367607 1.0247936404594415
Ni 7.0872347454354365 3.014102149179808 0.06582527271815217 2.1548760122560697 2.131057312569917 0.2998693043626706
Ni 4.979815693471957 5.178937004153239 6.128218114170399 -0.21184835896699644 -1.0078143322926256 0.5576745896757556
Ni 5.515074354525903 5.105001273348576 0.641179349304424 -0.7575914873124889 -0.37276136453670644 -0.5488145681819645
Ni 3.2258246639181016 6.064800720753634 1.1674639472775339 0.12697778627484585 0.13829192573608443 -0.1918750011688631
Ni 8.12704301683107 1.5081607605772385 12.14088402288477 1.564776726392705 -0.19441782219537482 -0.48199982455026025
Ni 2.9269151890535867 0.1934540189819497 5.941489070853951 0.5826520855566998 -0.04637524483042981 -0.7345502892223091
Ni 8.374256911013653 3.8162333256312913 11.377770148633982 0.8513863590774629 -0.0643786233863859 1.0183180600374269
Ni 0.25883727452020966 5.180125621779839 6.325234271602068 -0.25363958397116965 1.2343439474208806 0.2661426015341868
P 7.739089366798771 2.175030965551617 1.7838197603364137 0.49975354898925545 -0.21598860638761508 1.925317894714136
P 8.78313208848917 7.431562414141398 2.6385101224641576 0.42148736898749994 -0.11561531007417508 -1.097259668839652
P 1.244603374028894 3.59282892828156 7.443375230413266 0.08754683397273309 2.1902142825460476 1.0681858914021474
P 6.629041222531186 4.735935500288982 4.298854797977232 -0.722447078200872 0.2819985947298369 0.6061455406929496
P 9.080955092554369 2.039723563698473 10.084318304581872 -0.24671586026814285 0.01942442727319881 -0.7464416413432564
P 3.9594060331854584 1.4456004719021558 1.3489974315152053 -0.3813910151872464 -0.0010474674279078735 -1.0535334315962952
P 1.7975241501281143 4.63797669292169 13.666540677761061 -0.8704505747977653 -0.34082209262594854 -0.08593063852554879
P 6.311253156769174 4.396436590691087 12.244978140141868 -1.551691868184289 -1.338482624314024 -0.35406481656846767
Ni 6.940264033121271 7.164949908849682 9.686886357584951 -0.2034742759706883 1.1097742563668953 -0.3759901558866492
Ni 2.0212999904861584 0.3745027700937728 11.376506313798197 0.6109298494554704 1.9639435775061338 0.3374452057339157
Ni 5.908581077532479 6.821959434973645 4.5468106495689184 -0.06854561027988196 -1.6169379817772926 -2.6684451269721787
Ni 0.5212376160976598 6.262807702409978 12.721374227668486 -0.8917958732427609 -0.7848912035687063 -2.145257772440015
Ni 3.1670995243038487 8.628481791978137 1.859603420107432 1.2539581221073823 0.3985778113791781 -0.34288848823667395
Ni 1.8086952986031217 6.905274101738206 2.8064692219630376 -1.289459914558418 -0.18841403920345615 1.5583870208162776
Ni 8.445378961030345 6.251775845063087 4.347986493294286 0.11388470053631354 -0.9776115834570003 0.0033383203446136055
Ni 2.8918045386928197 2.7389557407721044 6.532757623131386 0.5237936206575947 -1.9908404018969779 0.3533868166648365
Ni 2.5308455092896525 2.9463973748395933 3.9721103126772768 -0.4845858401098815 -1.0621880219474997 0.3230691395179016
Ni 5.923540944692277 1.3378819994914448 10.9562556941931 0.018912777744102913 -1.4929089937181255 -0.36237385065479527
Ni 7.177662545809187 4.591927045966111 2.1591926356771594 -0.09246046922426657 0.5112998590659581 -0.7106863381205181
Ni 1.1938642590933661 5.375300350497799 9.13033101164939 -0.39814329494492073 -1.6159429648538752 1.1591461219318038
Ni 0.1375564892684778 5.653399730821588 1.2891041036398085 -0.13207782650557254 -0.015437674711308896 1.0103355560525826
Ni 3.37222892564459 3.649121116191364 1.2334294397313241 -0.12441028265798573 -0.14144332688087252 0.8104312568213398
Ni 1.283939188609219 1.312818882505539 1.3751758061335704 1.8236238227067434 -0.017775835926182287 1.7931333674273697
Ni 2.2659416418361737 2.1970389637941503 9.307966201514818 -0.4297418956868083 -0.0805500909399258 -1.2489133605946232
Ni 3.542451970279137 4.543815890314396 12.291147577467628 -1.6616193838450675 -0.8080571001622082 0.5669069069073011
Ni 8.14829884298177 9.332412723106925 10.230572131889994 -0.10632797123497817 -0.26851058754573115 0.49468050534172214
Ni 3.2352778884796622 4.272188904410456 8.349358157558925 0.2936744884058684 0.1990283243841927 -0.2858400799631141
Ni 4.109394719942165 0.9705712946461286 3.5671910032402896 0.053928888807971635 0.3225510622309026 0.015842366348895295
Ni 8.58714947122813 0.17430148886582117 2.065929796542462 -0.2480852298118437 0.15788681714887648 -0.8368948503295071
Ni 9.058854233559758 6.858110125757689 8.247411909497394 -0.2181668449858565 0.8801472332602389 0.7058254104837909
Ni 2.597454526755344 2.2463758813732975 13.13049362892197 0.6444513782516837 -0.5887944510090118 -1.0102309121539181
Ni 6.32273074572604 1.3968857213619326 3.8081748695659448 1.7541163627342242 0.7401529801210672 1.2319402230753946
P 5.828497964940241 4.05183033972889 8.20928885633921 0.3264437124170894 -0.819883146262859 -0.3649156432400425
P 2.9632701734922016 6.5212298893683975 6.845705786495082 1.228857984605645 -0.4506249097834046 -0.9247736137203622
P 1.5450729095283227 4.948911635180332 4.059243413567292 -0.32314627261274026 0.25362878533789224 0.216760194446317
P 3.4948515487638523 2.457680522727239 11.030095778423123 -0.7736341425976483 -1.8339943673077899 1.5421782722668986
P 2.216279711624753 9.373364314773411 3.6578565271393604 -0.5899136522151196 -2.2180945538960835 1.09306851357644
P 8.492821519267096 7.371045062012036 6.264767992886348 0.8418707062775436 0.7072462020907174 -0.33012784613689594
P 0.9732735425316041 0.2588920623639358 13.284888558364788 -1.0472373141749383 0.6072050923057155 -2.653855144973145
P 8.22973772255435 1.5392969707490585 4.973856819011098 -0.060387757059437934 0.28582002535845613 1.0196213522298827
