# total energy = -340865.36790567153 ev
CRYSTAL
PRIMVEC
9.23554651566641 0.00000000000000 0.00000000000000
0.00000000000000 9.23554651566641 0.00000000000000
0.00000000000000 0.00000000000000 13.51715586902143
PRIMCOORD
 96 1
Ni 8.065430659032863 9.133881823763605 10.69430040327817 0.5536893797757625 -1.9336022462101148 -0.30079001640472713
Ni 0.9659827738492633 5.979314600996093 1.7905905691409385 -2.193980691567015 0.8744866925403519 1.0167304038353329
Ni 6.671047814933184 0.4276917038168316 5.996575837819662 0.12106502033483665 -0.5712412726165969 2.272576229883731
Ni 4.387891367580833 7.901850655491376 8.181772688200251 -0.8850634396149337 0.4345125776025743 0.22327357008480256
Ni 6.731226637374259 6.164219481918862 12.617751700453612 -1.6488227463010316 0.2601982110252938 1.339906501244744
Ni 7.020807204845085 6.3828433439239465 9.861590262847216 -1.2790374336735135 -0.6409742183363606 1.3909914928460172
Ni 6.484342002399609 8.815070750917394 4.03297854259801 -0.035101471688823424 -0.11167946535487865 -1.7105369354813766
Ni 6.213565008054938 8.018107717628922 1.052394243199735 -0.006398190216859949 1.2778205305472767 -0.5628818449083081
Ni 2.261545268022683 4.050138188407635 7.205725939087937 -0.9423026237430611 0.8665011032317141 0.7096031323586682
Ni 5.864618346254579 0.8188642087852135 12.993001199318455 -0.4063510275666937 -1.1376750965422213 0.32237879831909644
Ni 4.6467175644671315 1.3933946406004158 7.264160166753212 1.126719368861666 0.8415997120043441 -2.620303791380261
Ni 0.731326002734648 5.157221645076841 9.594099276026261 -0.6388540866695643 -0.2104566208257924 -0.2495962671397314
Ni 2.1978754089206616 4.583481776061048 4.650429330694736 -1.1991931105513605 1.735650442719553 1.104625108065788
Ni 3.0140391438443386 5.530910336545652 9.13287976694426 2.160710873770292 -3.616789328923629 3.2168706872458404
Ni 5.562274253213837 5.3692051489887485 5.957781000258891 -0.06902717790199081 1.3916553516822612 1.1511821298897205
Ni 8.221899291598346 7.7511727107206365 2.4592570815849606 0.4163927280734119 1.188005212255341 0.9080997526091069
Ni 5.129478062723711 5.823178448112605 8.408779655964969 1.2193739563746095 -2.1168267707928314 -0.016874150047519326
Ni 5.691876680364789 4.362475143001668 10.891178246971444 1.3469950326604092 -0.46055322464071 -1.151836732754584
Ni 4.940093941640734 5.682262476227105 1.4092982520558381 -0.20294051495440535 1.0442221814976984 -1.3270347874883983
Ni 8.969156612428582 7.96078267912497 6.505888532902222 -0.0771238388671962 0.14898205846007892 -0.8691215715736967
Ni 4.016456149512209 8.7373166830642 3.6941845173092345 -0.5375096846921066 1.7840650865775145 1.6219979127987036
Ni 3.356945758088457 0.44289710794006454 11.58103941558797 1.0276789324270366 0.8132841528891026 1.0466469888891072
Ni 1.2189074563801532 2.497208713730005 5.164702437921727 -1.590033958297597 -1.1181365122886615 1.6964742867407232
Ni 4.405124897764234 2.993804060976261 9.350992903215614 -0.9712609586486238 -0.00869469956052051 1.7996763107522102
P 6.94429070025265 8.17703300562248 12.242258383155304 0.3828436884733729 0.8534476124818657 1.1302196687054407
P 3.584315682839351 0.5531575295909642 0.5119632969917974 -0.6127800152903318 -0.6917187958790797 -1.2103766379720058
P 4.95441827460668 3.725878142995397 7.555779019385601 1.011030268126762 0.6527840664870951 -1.1692829532554894
P 4.729643538484691 6.625470391859717 10.426417829276199 0.20144310447327246 -2.9669561175347416 0.3460604582067524
P 1.7433387414467592 8.830494113943269 8.752358618010453 0.5859556960086361 2.298227869013564 0.18649573913482076
P 4.757017698968937 3.716088463469992 1.8236131900004084 -1.2581739599609427 -2.549058522781029 -0.8035864659853643
P 6.128653391492132 -0.17239440933303907 8.067079204122754 -0.06518106468302323 1.7387622488756571 0.7636104398130591
P 7.293616019468614 0.6378013152988299 2.2946048310690412 -1.8590366549883983 -1.1947358461109554 0.04199588481581155
Ni 5.019427287983404 0.8540784248818333 2.0721399051822442 0.9109117681366055 0.9944499951705779 0.15120014915732025
Ni 7.3974143290780745 5.088989425894112 7.667782188702957 1.221072170012639 -3.483134901959556 0.3782355002774002
Ni -0.10047813056287225 6.611164529987215 4.25609272741937 1.444588709346183 0.13796128186954307 0.31846686485919995
Ni 3.147363496324289 6.654423830833439 3.6431304150295745 -0.9169134942459951 -0.4903803353044716 0.8173963752852632
Ni 2.234623649327819 0.812487063773617 2.2148540380145336 0.7169359185746556 -1.3474084660487438 0.8849487684139405
Ni 7.823607103661912 4.893389781867174 3.3719221206529824 0.193964279597724 0.28066882017481987 0.11536102797152391
Ni 1.378793241232807 1.3820718603191455 12.272631325660212 -0.2507445218115617 -0.32470770356258916 0.34443269279534233
Ni 5.538418836030704 8.512569653582378 10.63658285403853 0.27318356754136824 1.8417850669968021 -0.6070446554684513
Ni 7.083285678419958 7.182318445920824 7.638963588711378 -1.2468045417817364 2.5099451017193353 -1.100398214468634
Ni 8.645524584193446 7.423375450913842 13.784119978641193 -0.6632535985598513 -0.449224172781136 -2.306683970200717
Ni 6.109498867590537 3.896107740176781 13.313776672952452 -2.73864575635698 -0.41553089429374884 -0.9273002367969578
Ni 1.7502284593014312 2.574150053471656 0.8801910096838431 -0.43789357825966524 1.5662347989954704 -0.2664850724752701
Ni 9.062287865574039 1.0167413386338164 0.43497393240719195 0.7184330719454723 -2.094587499778657 -1.2748290520191206
Ni 8.46867310001233 0.17988905549800718 8.235543888325548 0.3062438404304468 0.13247968992968154 -0.04704296032141576
Ni 2.063996923637386 8.237054823769279 6.382085105538064 1.634449508298495 1.8286048208611023 -0.7690683776038368
Ni 1.753202305345941 3.406004982276147 11.113913774377199 0.21516276805221007 0.8069301856466167 1.3827122835563606
Ni 7.236272509871218 2.186543393092669 0.844065245125754 -0.8964523981781658 0.10346941874026051 -0.1763167417192899
Ni 9.233542608441574 3.2389524131671594 8.085152245503192 -0.5875461804242075 -0.9723742463174607 0.19001943601736307
Ni 2.707751472353269 4.653228624906199 2.4586087462050705 0.8404671410617977 -1.7647962110455735 -1.5773825880821737
Ni 7.876489844192544 4.426172708743856 0.9539608626811314 2.432143262948508 0.35075400702767984 0.5326091620666956
Ni 7.81391901515045 1.96803035764825 11.37363212507685 0.19161789085273453 2.133579050550506 1.790751754569071
Ni 3.8383671020703347 3.4159054883622173 5.761268884215812 1.6526017537274893 -1.087128236832605 0.1619357904072695
Ni 9.00910035200158 6.668729692705941 11.187595889680628 1.5250431552485089 3.323010710839729 0.5913084756801171
Ni 6.932986391064825 2.753901499323504 6.67613660117705 0.3965538389706138 -0.020781712632041628 0.4861328728820273
P 8.933525873174796 3.071428831175345 13.084512537568859 0.5355918988441034 -0.5023056259871479 -0.4965787508056996
P 7.007249422257072 6.163471402634373 1.577194950135224 0.8282171200498512 0.1863515002474726 0.9263738683279465
P -0.07022525016535391 4.103907541423586 6.124596215817122 -0.3590152185952075 -0.9005864749511975 -0.3128351204947193
P 6.466840641361266 3.8207179722844393 4.872800054004968 -0.24788751197874082 -0.5570163872664665 -0.622749724908534
P 7.8912205412142615 3.838995119247436 9.69861334050668 -0.7170179367655005 0.13512509797232855 -0.46464513532189655
P 0.8659479495290509 3.2053627297389533 3.050295129611209 1.1291557462173005 1.70906369336996 -0.3519269442898584
P 2.6500754830738775 5.638347451563612 0.5701121462633592 1.0438010347998798 0.7684055472088573 -1.5665525873462054
P 1.98760971669906 3.045717069101074 9.115159523448604 0.5656583792121807 0.23369193720464917 -0.12828467801172747
Ni 6.99774604468005 1.8022892361737974 9.221025671969139 -1.4174807973857975 0.19579490504855956 -0.5118727008502927
Ni 3.809893911526161 0.739033990028896 9.10446660745378 -1.9808174704433372 -1.0589810849744279 2.7371673720392407
Ni 8.057081724796102 4.808016387968264 11.55642483646428 0.46716867307469867 -4.1738314272217085 0.4008758633847354
Ni 0.9574029509444506 5.8682848583032445 6.269933243918483 -0.6275304341266289 1.2305590264571518 0.10230625167009477
Ni 3.91625970312436 7.669724424178611 1.7429019000868047 -1.193723602796357 1.3235694546476173 -1.5756869455473057
Ni 4.673149699185726 7.924256091839143 5.803280462699882 0.21096621347235928 -0.2799517395031372 0.2480973139967018
Ni 5.907443576404865 6.64515134192447 3.6935897481003326 0.3667886918930393 0.3505411196859253 -0.46672541488969294
Ni 4.6594441478501585 4.764258367599048 3.8936169132258356 -0.28185564139406943 -1.5595884973235463 -1.1402798811549202
Ni 1.911314865227955 1.6107162905176866 7.420715613457882 0.31287240149055795 -1.3504205134021905 0.2847098230134129
Ni 3.9001252030008855 2.516861957154592 13.000895744656487 0.31311537073929946 0.22427347210422668 -0.12984765162347314
Ni -0.06787757418860112 1.3979754717745676 2.599848885780516 2.506935882579366 -2.0800162868327017 -0.7795713340176896
Ni 2.003494857061038 6.894520338967359 8.087179448008689 -2.454081972003128 0.2307310548041123 -0.22326354278247354
Ni 8.20145179115566 2.465226015431441 4.127598565875068 -0.6088274584004869 1.1905660310039816 3.6570854574395146
Ni 0.7232827650943882 5.024534545320714 13.0362697357114 -0.4711898784189498 -0.9359566269203751 0.5583006532955288
Ni 1.4917070354569602 8.169145848721824 0.8581448361035653 1.1207456677767342 0.3007843599777723 -0.748976234839652
Ni 0.6388301552036697 1.3093973431630956 10.039678386734415 0.6956870364982083 0.06335815254167153 -1.3526422036438577
Ni 4.363315577753377 7.623361979633768 12.848516612179543 0.2940825224775645 0.6087960909419192 -0.2521493725788883
Ni 2.1663729590516456 6.461677970743623 12.069996042140392 -0.21120352629414593 -0.29111881186355026 0.49628744481752585
Ni 2.9493349035094445 2.6416896066502287 3.7707324227605246 2.033363619971169 -2.1255142712645005 -2.256040179901921
Ni 5.164711673468448 1.5941200130581084 4.602064619620546 -0.38458509664451185 0.4842467116029079 0.13888327946318016
Ni 6.41171366297717 3.0560516458830818 2.891171277363127 -1.0639055188592386 -1.0320271820934033 -0.931853403385279
Ni 2.9862770903977656 7.742851483124042 10.442841402012075 -0.8824797380481576 1.2411722831966236 -1.9207274471299758
Ni 4.256986728342067 5.2439526643438965 12.310790757606501 -1.195722892614573 0.3198776291637975 1.1037841002217312
Ni 0.8744095574358208 9.164876318562907 4.680112377859502 -0.7214579748147252 2.088967582488719 0.21206458874286058
P 8.831325313148255 7.044967395070047 8.952669314420325 1.0425663910618304 0.6180448632336969 -0.4828434034974782
P 3.049291225682519 6.302872744857454 5.859700417625071 0.9125855562946025 0.01256446692857191 0.19078202521500046
P 1.3037174819290165 7.979059826087967 3.1143796647610515 1.0827977277780514 -1.176042126356194 -2.4569160990178136
P 5.471488828935788 1.8047089494149826 11.175092806528275 -0.8972671807699772 1.1007376000859237 -1.3218524719565106
P 3.098996938140755 0.9030766944611579 5.504524379560669 0.5338157807802871 0.2855806556541404 -0.5463074854893946
P 7.40174580049073 6.82455183700088 5.401333768925522 -1.5115502629683968 0.4303401913924395 0.0007880431189341268
P 1.2259357074356565 8.42671601125392 11.963494488005379 -0.5789802931320673 0.2749933670565974 -0.023111646316798906
P 8.646466609959099 1.126117918463413 5.97025730032575 1.1998207168330306 -0.01970570595904348 0.6165811342039769
