# total energy = -340857.2921597403 ev
CRYSTAL
PRIMVEC
9.33112325608928 0.00000000000000 0.00000000000000

0.00000000000000 9.33112325608928 0.00000000000000

0.00000000000000 0.00000000000000 13.65704208968199

PRIMCOORD
 96 1
Ni 2.018891104530809 6.689948638587191 12.341773451464759 -0.2697038365228839 -0.1589751651170488 0.8792452902712599
Ni 6.227162262020666 8.365613045617264 9.020940613610248 1.9530248737111007 0.3302090929967926 0.24344567415730328
Ni 4.3891269835768885 4.123572553971542 3.590764497261601 0.0758683691935403 -0.5009915351614147 -1.2498433286080606
Ni -0.10703264643129141 8.684149591646207 9.34749352741297 -0.3857161249251615 1.4575501546028575 1.5139742990288572
Ni 8.590558427903925 5.456206217083989 6.073041036455869 -1.4004261558963558 -0.155568453428345 0.26052139869266744
Ni 3.9521691554887917 1.6330025126502405 4.360365663137921 -0.4833236855680063 0.3036287714051029 -0.19884243362563175
Ni 3.5969986205413833 0.7464030609730615 7.05480394610171 -0.3349455792405135 1.0350708540157334 1.1439272480995202
Ni 8.879011433364063 1.097181436321916 11.05750579822523 0.1436205370378494 -0.9071810974495795 0.43324810906785394
Ni 5.03605374152828 6.415193721698706 8.88906758462678 1.2020663183340976 -2.4419998440276136 1.3700927950201371
Ni 7.139578131716367 3.342622876296282 5.037727744995415 -0.851630870988101 -0.6966332024615616 0.24859996466473316
Ni 1.6025737205302424 8.551433029143068 6.720480073060247 -0.8952537498843745 0.0010055584463789134 0.4939027466354332
Ni 6.051167951019351 8.827298349669174 12.819386982486566 -1.7184032256033308 1.8594814558353008 -2.0729305836305136
Ni 2.5816697952211927 3.899466972755351 0.7381739435947645 -0.7239365182622048 0.9432619023325368 0.44423520420697693
Ni 2.5464821303685357 2.8598585653755966 8.450266859745154 0.6367344692234002 0.5408271791011138 -1.3373420829516776
Ni 1.4568495725578365 5.010430477755966 5.538244517433517 1.4149770571273372 -0.8667258176480105 1.9710040838973408
Ni 7.78618763148558 1.7949628146517163 9.05082166880984 1.9211264823406076 -1.06286473629955 -0.480491872546166
Ni 9.16087666598252 8.647468947112715 2.162701439174845 -0.6127224225795189 -0.9897330493108826 -0.6591686298572003
Ni 2.89754697119365 7.622118495684928 10.057345646462313 -1.1850062775280172 0.4486081364636919 -0.2225768011280941
Ni 3.7091680501870443 7.460260836036509 3.224905160911722 1.7839329318750243 0.9121487258675 -0.16504965344590283
Ni 8.03918236952591 0.27948579625212855 13.225164863052745 2.254718118656388 0.10200491837959207 1.0013816892934044
Ni 1.4258982375495464 0.8709586232958416 8.59010213598897 0.05062245014255798 0.06696978115232982 -0.3473478095596082
Ni 3.967192263527184 5.870414767285377 6.711603375745389 -2.135907698683683 0.6291090914676585 -0.9657572552215756
Ni 8.923754168174058 8.55061189031861 5.035214873570111 0.9251330539423098 -0.2292742677529277 1.4471631549415787
Ni 3.8853303214024533 5.682831201511587 10.803307345317227 0.6359937344026337 1.3339423132415091 -0.44347210078870725
P 1.682429471208852 8.436538911579884 3.713404380031411 0.6229752106557788 -0.9087602690112414 0.45004718290306367
P 1.8090154858975664 6.4287984990403055 7.225722126188189 -0.4226986156867817 0.1771603206665078 -0.74600506802647
P 2.664175584833283 2.1467834764402527 10.523610665685181 0.13950291532505008 -0.778650107755001 0.9652247797568732
P 4.030485270871541 5.632984342417742 1.3763835664346862 -1.4346138575216583 -0.37802261293564576 0.5763276860005687
P 5.255773694932021 2.1430603583611734 6.58128771119149 0.19612194937067515 0.5066219939743146 -0.5383818028844147
P 5.997644629461451 3.5336682887050053 12.182900818065708 0.1866587470752463 0.06476763129468846 -0.863911488127667
P 0.3344955657047585 7.327021730645078 0.45857897320347496 0.15170897047293874 -0.2947767203311117 -0.5026586384511924
P 6.994647129199405 5.419180320999304 7.83460776187193 0.32165040479350415 -0.10863502210159999 0.510420027564166
Ni 8.110836063082939 3.341521803781667 11.76219500691579 -0.4151889375732979 -0.17454062365547357 0.8266238074208022
Ni 5.462280778160382 9.290513957893939 3.729765571108751 1.499624200954772 -1.103867661074473 -0.06615165612640865
Ni 3.4607362312962637 8.577289570990512 5.405498095336762 0.49367828932945296 -0.9952586071148021 -2.202977495748987
Ni 4.417773531202891 6.005156183480647 12.85709405055063 -0.19656083668030663 -1.1998371718932626 1.7353478238774693
Ni 1.016644513663926 2.612985044026686 12.109876382539213 1.1743590822268164 -0.3485747399881739 0.12003529351874168
Ni 8.05124751157165 8.167615946569658 11.31137672871575 -0.4990318403318825 0.04146006691699956 0.774379505404105
Ni 4.761289493516789 3.9480914547355135 7.883923680066779 1.5173658412089093 0.07087065886863278 -0.3901937010805409
Ni 7.3444242750498 7.400466999819106 4.0164680578931105 -2.017719228565693 -1.2922163942576326 -0.29902495408450436
Ni 0.6432251014552235 4.590119373109168 7.98605095513423 0.39019215841864413 -0.16336403821336384 0.33622367462198866
Ni 5.627628277812749 1.6917139385990383 8.829591939703855 -2.2922104591748913 -0.15054297518929557 -1.209829250108968
Ni 3.9049630042054213 2.420222704985004 1.6498255943163385 1.4267203137061943 -0.4564345744866462 0.8647890056366139
Ni 6.134597521808956 5.717412343368905 2.007967158828606 -0.6428002158015058 0.6833686241421715 0.624373376554886
Ni 9.227286268410618 7.123304653195276 8.010742972830624 -0.32039467800953203 -2.6646836030472176 -1.9910718011814934
Ni 6.753437599514658 3.9188943708522035 9.816818221869246 -0.4392439216399726 0.32605907538416107 -0.623097595166256
Ni 8.121688159138001 3.321786478625642 7.351571915271792 -0.6129628207250992 0.3355708715293382 -0.49723952431815005
Ni 2.1927859128559515 7.980377632347061 1.5120123724277523 -0.22938276830633397 2.09806003170829 -0.44603009132387056
Ni 0.3070573985079308 3.731609401014581 2.118739719360387 0.47166990337916187 -0.7452393935050391 -0.4668205457066606
Ni 1.8885539783939986 4.29833515673617 10.181174314302988 -2.4542642632172633 -2.256688612119197 1.0916078698705136
Ni 4.6819469546034655 7.637169597092336 0.7963954855857887 0.43018875341623974 1.0679305808582318 1.0123628708952563
Ni 2.7457949177598775 4.310605583488024 12.166280221768822 0.7048681887768441 -0.5457431283454924 1.6520620791739355
Ni 7.598566741219771 6.297369631511885 10.098003215620626 -1.9827547966753656 -0.772430094987218 -0.7581435031612168
Ni 5.111934433806669 1.921483511479394 11.135951616217753 -0.1118113629470526 -1.860029615029287 1.3385299326121916
Ni 1.2924911719440215 0.326904697140018 13.397408062605965 -0.9962945045784842 -0.10089625869644558 0.16084872799067781
Ni 7.324884903476884 7.465971483315699 6.581246654250268 -0.8478513493410108 -0.17309849189230833 0.25728746513640205
P 9.285671105054234 3.0435977084712382 9.951449530813056 0.08410001307471322 0.38636738535591525 -0.4649611239004186
P 5.142316570311642 6.61153921197439 4.833377084293558 -0.4111687606703112 0.8354398630505353 0.28616403896143616
P 8.233848257660657 5.472470364482074 12.114109913046677 -2.526315572657559 2.3306613069519213 -2.190640828560505
P 4.105236897266299 -0.5789999149226455 8.736081956731718 -1.4750899632588337 1.9475743921194912 2.3301450294371353
P 5.527244056522672 2.42202361172501 3.0095344439407095 -0.3472976730479632 -2.908325966596359 0.5247325875320963
P 5.618035883363391 7.088592875615885 11.580993929277566 1.1041245142802856 0.03829426759450825 -1.3986502949428556
P 8.104406919332346 1.3677093544890406 5.506860218317785 0.05859518393538941 0.34004973323629817 -1.4155347294030203
P 8.333336691142234 9.327651827454686 7.197615850584189 0.6508878779056467 -0.7085173554936571 1.277960912779883
Ni 2.8494077076097586 5.709406239830433 3.9607061999262605 -1.4203313794607153 -1.337092685945033 0.18564367554717062
Ni 2.942037765682504 0.22175693755577958 11.686726750274229 0.36228154805130514 -0.2536652950027825 -0.9505602357661629
Ni 0.45214609700368136 4.764004850311305 13.002363772832682 3.231021524824926 -0.4529617854466973 2.3037547123690647
Ni 0.5169750071946967 6.035174406188416 10.10425786737102 0.6120156263204816 1.4555824893535254 1.0062642141966862
Ni 8.510114816475987 6.0178091862757155 1.9672554691568636 0.18856624851060427 0.7194334881855288 -2.2407739977714702
Ni 4.236553791318657 3.646826817389219 10.020854423725828 0.2043973020055899 -0.36568414597495086 0.5737810083193151
Ni 4.947557370946844 7.825257043508406 7.261995000646353 0.7228443136392906 0.18153479558511962 -5.33262967889579
Ni 3.925454150324868 0.15329075561733246 2.187051937769248 -0.5823849479382421 1.143332294827999 -1.3934232422159616
Ni 2.9177021968849095 5.44396378370115 8.755283541651844 0.211393530817765 0.9008587547759775 -1.7717597868476005
Ni 6.076128705058294 0.14536303351210383 5.913950054778497 0.23831992289496376 1.0510482032805966 0.5101243507006182
Ni 6.726666607612703 2.1427617624250064 0.38628983016979224 -1.0570761546422311 -0.37688284290424773 -0.22775114624018197
Ni 0.4608128440509229 0.8005329055263 3.7201918389054027 0.3412666363625349 3.1607969841807244 0.9767330375067889
Ni 3.2458311373632114 2.035313881019983 13.133703994692551 -1.3526943970380316 1.8437303636486313 -1.1861046527985186
Ni 7.500851221109184 1.1047583082021488 3.0097798524757464 -0.13786897926605288 -0.11053301045526125 -0.15281711593545294
Ni 0.21852463654677393 6.151318894234298 3.9814782128481645 1.7842131821196043 1.5454122058231643 0.13527447906599926
Ni 9.349598628762946 3.3974058994598852 4.671172306869347 1.4732138292820434 -1.0902228165975287 -0.33881766060141
Ni 1.7004012141168914 5.848122714425924 1.6235351552491517 -0.39112495464555863 -1.1128084152075286 0.518107626016411
Ni 3.292953308539535 3.1500658219607147 6.112372653035141 -0.9145509075510894 0.458857582105842 -0.2584460042208775
Ni 1.886323839995753 1.415484704275729 1.9839311190794793 -1.076614996006107 0.2731385732360457 -0.311820820297592
Ni 5.319132020137416 4.523317863514851 5.617305256432084 0.8905776845649437 -0.09091420778306923 0.33076985059626907
Ni 7.1745978363549305 3.5044712048216953 2.635508508736668 1.1249807889040047 0.2955585928024587 -1.7441548806461382
Ni 7.057772176329667 6.960355252155248 13.438788793797181 1.2172957336893422 -1.5863279702009196 0.425662326300796
Ni 7.561998070162342 4.421487318158966 0.3879824958829378 0.5325729095121214 -0.07167618548906365 -0.6638557509202244
Ni 5.223954565484246 3.970066249412789 0.37754376857700644 -1.20698998088796 0.6244967895066277 0.8955054608838642
P 2.1424631664888394 3.559944731087684 3.625548124488132 -0.4261330952896274 -0.3070372828660196 -0.1359311388133917
P 6.575605057281316 8.044305156055772 2.101573252367697 0.2041540756465323 0.5170830414066385 -0.612168606958578
P 7.723790411949723 5.149622839624723 3.74929467844636 -0.24665312535100742 -0.023333789629934005 2.009948840591654
P 1.1971270948307484 2.4989400586569777 6.64787927051819 0.24580029043240892 0.49452006850445807 0.7754562834080515
P 8.795955107494665 1.9515390586791839 0.7445359032597185 1.3074316685454903 0.23450851956867352 0.6195972953224813
P 4.343068560423159 0.4630037917325468 -0.0890916962291691 0.39979368606415017 -1.7762833857495666 1.4881295700516113
P 6.6296509217275075 0.44213380201908825 10.45431494691157 1.2231704473025644 1.0719548715262763 1.812330766291427
P 1.0729391787543736 8.355302154696505 11.415661359422007 -0.6530661165038882 0.8685816399098266 -1.1981566988670462
