# total energy = -381168.1046382214 ev
CRYSTAL
PRIMVEC
9.32368691398688 0.00000000000000 0.00000000000000

0.00000000000000 9.32368691398688 0.00000000000000

0.00000000000000 0.00000000000000 13.64615825133458

PRIMCOORD
 96 1
Ni 5.694404544826595 1.9073280036645133 7.963392773283569 -1.36557588098639 0.6364920141952909 -0.2226433926999714
Ni 1.2752659377674962 5.979149946022844 0.521059842602917 2.49421894923333 -2.5228319849843324 1.9040474153711338
Ni 4.611765980625389 8.551965433504758 8.605076884171895 -0.40711104566116985 -0.22575031376006927 -1.040847865708827
Ni 8.160855410931733 3.901095909571673 2.5442169423250967 0.864763294605001 1.4022421260591722 -0.6213947535425364
Ni 2.604590612802047 8.995390663874517 2.978382819128122 -0.5558470495487138 0.3246351984534409 -0.6267117948800756
Ni 5.704697895282412 3.4267067146514 11.94734828928717 -0.3926797007271882 1.4976071705247433 -1.4254316768017579
Ni 9.177715363297983 8.975568505297463 2.3698332271255613 -0.22567240933428231 -1.147867463694191 0.37288246349560294
Ni 3.8305528936760997 6.463086596438368 1.066754731015943 -0.9749934291078628 1.2426653228023825 0.10017789247318232
Ni 6.818235158225083 8.246698597205926 9.14209328471873 0.43551453650452737 1.252259908469353 -0.132934518078913
Ni 4.203826703004581 3.4774368956569273 9.363379807407386 0.6586654649685366 0.4715323493600331 0.29840223289884094
Ni 4.240245024454239 1.2953025411457129 3.692540881491187 0.7602147838679488 -0.13113063210095482 -0.8193383295029824
Ni 7.789716725927872 1.008953465784246 8.234678499916397 1.1083830324463235 -0.2795038533324412 -0.039967284421556976
Ni 9.240277303115494 6.262058580878698 12.466720544541806 -0.039439951163177236 -0.15880418675682326 0.040554010162962416
Ni 0.23957400238434362 1.780758952543391 6.573859457032094 -0.5653580743629425 0.21181904839095775 -0.9159837833428741
Ni 5.23190305084035 8.33946928292638 0.03167536186915574 -0.5258741573357072 -0.3541766595559836 -0.3647112405387203
Ni 2.6732222728611688 5.089231992257998 6.101484178505349 -0.4045376285070388 -0.47939066906218736 -1.6155202754941598
Ni 6.860583344611245 5.01084775558947 5.7373093553270795 1.0535002643655147 0.8472072879991086 1.2286916342311098
Ni 6.82757749260618 0.1145620069934037 3.3952187588910867 0.1595750034845768 0.3745634507424517 0.734933897813973
Ni 0.17825584241357575 4.0494077987933075 0.17349982967126382 0.2334960191437592 -1.2736710271552776 -0.7569867638489542
Ni 5.2154560669598595 8.540292177371894 11.25997717969545 1.9250258173950137 -0.8954162436041676 1.2942529650716872
Ni 7.18223189898152 5.314408357166008 11.422066681207447 1.6090120420619964 -2.9801263363681127 0.253614387160189
Ni 6.8076341260980335 7.104360465098381 4.667709035036575 7.944708768373415e-05 0.7620430953259392 -0.5429509103123359
Ni 0.3335250668798944 4.7900348762007745 6.198358218877621 -1.7621130077864555 -0.9103661800457805 1.6166057952488544
Ni 9.245153591420198 9.213742089893342 12.472002413231316 -0.6691285692833896 0.41572706946495497 1.0559890922256394
P 7.0360364867104925 1.3782740318217253 6.027603282661242 1.0291637445026791 0.015867048939243643 0.8125164214851427
Ni 2.2093688442588975 2.5985115688734304 2.5969731605172615 1.2798031081949444 0.9036761696201145 0.9814816079353678
P 2.5244535229761875 7.156395962284899 6.900712493489721 0.04067819444565252 -0.02916633715131106 -0.8690189845575614
Ni 8.16904160812395 7.6034014884653764 6.799212039624536 -1.2265159667360295 0.06709705075881348 -0.005247621552184511
P 4.802938859018574 8.337063771678553 4.054847237793239 -0.48246442289150454 0.18781420083592815 0.8922283327944893
P 1.6215197021494574 0.9733183340431831 4.487375875157821 -0.2045543964087445 0.05406412883425527 0.34013637941283353
P 3.8814602247347607 3.2340606937110956 7.071521507090742 -0.12222973006689915 0.6390389489868608 1.5045231809182862
Ni 3.1931203840630036 5.431066328998603 8.283708972780532 2.4036191873668864 1.6736704014723305 0.09336164088229727
Ni 0.3323008667758647 6.722257124174194 5.117255265926481 -0.2881926393556908 0.6536991221021967 -1.0064231083720538
Ni 6.0809925792011885 6.2516160514307675 9.859731879441537 -2.1638941565942797 -0.18053977866170198 -1.0234774927511792
Ni 1.2090491126432081 1.1555218255355568 1.3776474800548493 -0.24029195901967002 -1.187665055307103 -2.0883931980424872
Ni 3.435620159430169 0.5650890897564549 0.8340858512290436 0.10136317103053512 -0.248247723531637 0.7007315409006513
Ni 8.519714800147266 2.0165549969524657 0.6221211508100677 0.386684916596334 -2.1054195573971546 0.7068132283183569
Ni 5.199754978039935 1.3823111882957912 10.600403710546638 0.04335265595402211 1.8904007711219764 -1.3480692395611944
Ni 2.751848925391882 6.246366815645781 12.243319409639943 0.18081385825869506 1.1263509297786536 2.837922991392764
Ni 5.6053540102219666 5.10117563531407 1.6209863872526522 0.6078710080244887 -0.22094312217941303 -0.22665482785220967
Ni 3.968123895465577 1.9340869853748355 12.63803490197861 -0.7122822218527282 0.2786124518664234 -0.16389754211933064
Ni 2.5980920029581114 2.006541357106861 10.105839921680444 -0.3795814727823334 -0.1670916235765961 0.23086038129312503
Ni 1.503062258724495 8.012263811099885 0.2188241369500852 0.12112904080355268 2.5611319090057956 0.4524038560606983
Ni 7.717336943691904 3.4321797189245564 7.473673572186255 0.7097273166413584 -0.7882588344893586 -1.0844820574590095
Ni 3.7705642914725415 7.09637938902032 10.275489068617784 -0.8088903946967811 -0.30913915970037087 -0.6015838894641962
Ni 8.308952855352205 2.651973590172032 11.956614169434808 -0.8925232383270888 -0.7534144731166638 -0.32224073007933535
Ni 6.174061622905868 4.328223335053054 3.7521071206733243 0.26789377989733865 -0.4441321029702093 -0.6789424700500177
Ni 0.8445936464860235 3.9270717015734005 11.45032770889461 1.2642918999332227 0.4269599620662969 2.7129848612557663
Ni 3.5169227101319143 9.259717190525258 5.567687247082061 -0.9693578280886402 -0.009840383129189504 0.5157995467085245
Ni 9.095536386017573 8.36386937182391 9.045492428375766 0.13367216757588593 -1.4476799466769972 -0.21753409649786407
Ni 3.98581092971801 4.5800467974273005 13.403338981787718 0.6653793866536024 0.21168380836467413 -1.0246609715363193
Ni 4.613061973119373 6.0730394741841485 3.601480159967831 -0.5374734321375324 -0.44276556163998587 0.09839560376177892
Ni 5.709658096770179 7.59680964175137 2.327038436131761 0.9293630328632575 -0.06381040958774171 -1.7584779821370298
Ni 2.6223242654895147 4.97766475353127 2.9714376046765474 0.8490379134499443 0.4959035791155459 -0.6235519090948551
Ni 6.709810002019741 3.2685210408892664 0.41439126902970796 -0.5002034920424805 1.704927045493767 0.420461755936463
Ni 5.39683907399561 2.8146532810715783 5.491691739024746 0.38328591821711405 -0.06315400695066542 0.2955501081620265
P 2.3160038525588806 3.3926099912665055 0.3655957530781504 -0.7124894527675277 -0.9583437363663236 0.19297003400525475
Ni 6.546253884541529 6.1882988929656815 13.309317057270912 -1.125539746731268 0.5755167600634992 1.0506859348451711
P 3.527943308174284 0.01609268377422153 10.188590440974387 -2.0159356543027087 0.8004592332102923 0.725422358779112
Ni 1.6534160354006808 3.810115371756578 7.990166672893103 0.014767388117161665 -1.7424967762174248 -0.08013177245558457
P 4.575310364427703 5.40044734086735 11.320730324233589 0.43938121854878526 -1.4503096709903602 0.08803611490432581
P 0.6908385887896548 1.8441134057565052 8.693612751253733 -0.6315470114851899 0.45471450647174594 0.34754578450302726
P 7.172115698578837 0.4933703569292883 10.942185834640002 1.1574183406074197 -0.20011975767615858 -0.15627370702548568
Ni 2.972307504674308 2.7496951536932457 5.202352557240108 -1.4692872405341275 -0.3869314853895014 -0.7165672223813272
Ni 2.1083933139722117 8.20950640973468 8.75804968452837 0.8838655626520907 0.9207436666253627 0.21352343267657417
Ni 2.3434621107947335 5.253608594192834 10.37857175216807 -0.37293439977946097 -1.624802472127034 -1.2327403503791865
Ni 9.206105990234544 1.931383116142782 3.321242761439506 0.7581519878016492 -0.520447072782865 -0.02118049073235707
Ni 7.679081855901851 5.6847172340262375 8.128647666534473 1.8695254703348643 0.2861645531820685 0.930333881416959
Ni 1.578593447168857 1.8528403767951331 12.424881431466233 -0.32932283373709736 0.09974903246587982 0.960911754203816
Ni 0.8878350420874631 8.644232640126832 6.698435103871102 1.1943468382026527 0.2460309183859763 0.1602686871174917
Ni 7.099288379366529 3.169456866439033 9.689918635612875 -2.160703417571124 -0.33389399804754755 0.9014452234070668
Ni 8.875916938565783 9.251726790760191 4.854074620408909 -0.3886232712696275 0.1477283885586359 0.17796481884567414
Ni 3.1041444389544313 8.880131245092985 12.406609802038457 -0.16587446334004335 0.1298265685775506 -1.1418299992508594
Ni 8.383551675095859 5.815342088995441 1.1070731507406628 -1.117771929860391 0.34860070813010285 0.18128925523321682
Ni 6.26936835149225 1.36592947022435 12.784539860658272 0.9116046804385719 -1.7129997951995724 -0.40858865864796085
Ni 4.640641439286318 6.403321762722979 5.9277820248260324 0.032860241063130506 1.1989066896591933 0.22235131538084932
Ni 0.9637056127388827 6.022831419651017 8.47390939061888 -1.679471838645456 0.7075879017008523 0.2440671097913861
Ni 5.807034683872131 0.8928474562224699 1.3479841698418216 0.1293426869625966 -0.12016821955218014 0.5849298258472829
Ni 5.698917209338022 9.101018713977735 6.677720668447471 1.2750164854395785 -0.7370247189047306 -1.086242234683226
Ni 0.8119672685421456 4.313575822764929 4.078782074709116 -0.7676774107935811 -0.4697762859008748 -0.3146107243379033
Ni 1.1757076079058868 6.8831839619164095 2.7680553581475897 -1.302638360921905 0.009936285277105467 -0.7059544798624875
Ni 7.626337758502795 7.654868240744462 11.609960418880243 -0.8889548042495401 1.4323888248458814 -0.6976426175626823
Ni 4.3865523209693515 2.876879568156836 1.220972243587863 -0.24198297356884776 -0.4290386989721966 1.5341718570226546
Ni 5.614696344603061 4.664193072666205 7.669113902122581 -1.3410156751485227 -1.4557701798842992 0.3585997283243437
Ni 2.647143920302364 7.218314567698923 4.472856097381694 0.55611161606401 -0.8612359981780329 1.3557246992239234
Ni 1.3172971187954166 7.600986653530542 11.043795375643171 -0.29932320205121354 0.16261944673785542 -0.4851648525418032
Ni 2.4467312680851614 1.495183743203512 7.426580561482189 1.2414905857679908 -0.481599503788048 0.17631442772644473
Ni 7.503293061070349 8.257532721508152 0.8460779774575509 0.3638483783177927 -0.10254999224978469 -0.4837872554679861
P 8.107057736900876 6.796669470177705 2.9218607637537968 0.5883488788311609 1.3272304484389723 0.6639660512458436
Ni 9.213798032015386 3.7748252164347775 9.629370612188891 -0.20274742510699276 0.4171835994058235 -2.5250729584997096
P 7.079699312964652 2.1550490437556444 2.5414058506924615 -0.05645422633298664 -0.43478048655198026 -0.2192009426773257
Ni 7.918709935670836 3.064080555885005 4.940742020614529 0.14098104253247334 -0.11976172814238084 0.331427538784926
P 4.243834643951965 3.551010109829802 3.471309368555873 -0.8667340451781266 -0.29236014046981906 -0.27861476585926853
P 8.843647657834277 6.248893534824699 10.336473440593698 0.591094045676466 0.08883212844305992 -1.5913405929241626
P 5.917688201272167 6.769584159422136 7.5479628455212735 0.7654076409227979 1.8177000010231406 0.5326202178102891
Ni 0.7039374366659027 0.6003801774469566 10.465430287957334 -0.05932691989509138 0.7531041409650966 -0.11786965332599054
