# total energy = -340853.924179956 ev
CRYSTAL
PRIMVEC
9.46121781632005 0.00000000000000 0.00000000000000

0.00000000000000 9.46121781632005 0.00000000000000

0.00000000000000 0.00000000000000 13.84744862873392

PRIMCOORD
 96 1
Ni 4.239249888261521 8.403046566819816 10.714491073268585 -0.6224633040163667 -0.6764873236413058 -0.9114606986615399
Ni 7.371717090091309 4.280576486378599 3.17596798773242 -0.9290704413235032 0.09553499438453224 -0.4698755304829004
Ni 3.9883100160409994 4.314192192218794 6.4567463970035694 -0.8676868960096992 -2.2270569052956937 -1.4959871184228173
Ni 8.050237765586802 3.5109159025356234 5.655644295105954 -4.490143707631751 1.0600180108793744 0.12791649603903132
Ni 3.939698280435335 6.3824616476637726 5.257294869473502 0.6755146753153914 0.3019716954176541 -0.5840993595261876
Ni 4.962086906609667 1.3219402340005184 5.629126394647495 0.5777554195860307 -1.1039967304531697 1.5776389270673539
Ni 7.308156630807764 5.679862173585871 5.134647214548755 -0.9112082163311016 0.22352605241524084 -0.5937767347149516
Ni 8.608809125393579 8.465074308865502 12.452968977457477 0.3483878207883484 -0.24208067548897666 -0.27594236123342797
Ni 0.7010629723530354 9.277792893631284 10.80448522817468 0.4735851181240037 -3.9279123518232475 -2.661182531872494
Ni 7.124325174439904 8.832519613598315 4.296932093101352 1.4121557856284583 1.4871391811138839 -1.6322735836930986
Ni 2.2657250650382483 6.6693163015812775 6.835584899871131 -0.7676257316200393 3.777511301528456 -1.503366955826656
Ni 9.446656703886228 4.960875870767408 4.229038396194726 -0.8118085967848405 -2.288671592783697 0.8468727874778255
Ni 0.5551076080735676 4.965322643000702 9.507256748208503 0.11654759208045734 -1.7820652825386665 0.3929308975060459
Ni 0.6004930685057148 1.264349802970608 12.405361077030435 1.0354894296103907 0.987228537721474 0.6408083821824577
Ni 6.071452505423717 0.5611230501712868 2.218125679706972 -0.8602507514466281 1.702809742040448 0.7112455530580977
Ni 5.08750480602358 9.363861589389309 8.665012541935402 0.6895516130244318 0.23795431202542888 -1.1095091756309665
Ni 4.645722715254624 1.7898163626831427 9.993315444716538 -0.37852732048620613 0.4114685512989172 0.10467192368879394
Ni 5.89846360433108 3.306771212157378 7.6768035101653185 0.9071381600267859 -2.0995625843957457 1.0514629222205116
Ni 4.266356276449577 9.292003642342788 12.81070328853018 -3.053323586487393 -1.358317399651764 2.798686671599961
Ni 2.3193701683633003 0.9059049544623311 3.122197996336135 -2.774264019781222 1.4917306571393083 -0.3351047305261971
Ni 2.802251788028911 2.3221801499660413 5.340323676043107 -0.6055277046032926 0.30451811598859163 -0.18052280938083748
Ni 1.519102545850741 1.0215276553802262 0.8044286659768202 0.2484935209938559 0.9482809528136831 -0.13886708151326407
Ni 6.610959511932439 7.519927062505231 8.515862124500226 -1.0065532061920148 3.1582649617874896 1.592143291331116
Ni 5.6169450770935265 2.5364767267407204 0.6225869036529216 -0.6097895652034402 -0.23151884081273028 -0.5688537462210268
P 6.946492129978233 8.19802198321243 1.9474638995709173 0.22639386088133914 -2.4911143421660773 0.4974102455680596
P 0.3482428176589991 8.728824669604917 0.5986046094891928 0.9333572416243151 -0.9146285548665604 -1.5870717903454796
P 7.154761911194171 1.5132838970773888 5.025778876816707 1.7054636347235272 -1.8102949668083208 0.2883152809764841
P 5.1367977492905155 4.639412083170353 3.2558121484855853 0.2567148804623837 -0.04267002806470071 0.01496536306058068
P 0.6042406567644545 2.7139975510243106 9.782668059538414 0.33627741067805955 -0.6750076537719858 -0.8808051785592121
P 9.259229984861664 5.566185645111356 0.7985475731678515 0.5766691285003874 -1.1084228845453235 0.37051370615311024
P 1.35625606993702 3.35149438736329 3.547203456202802 0.7990096452479595 -1.3096459025879899 0.8310039387663688
P 0.38653425719641554 6.535127853528507 11.360502059251694 -0.9050355118614865 1.5868470759291833 -1.7620993809397008
Ni 9.000768444714613 6.8511892859229855 9.156957061861167 -0.8576223126848457 1.8405373106326304 0.09172616216140331
Ni 2.110816550621832 4.516794704141663 1.3143873440561817 -2.412018210063859 -3.3842618443407266 1.6299274520584253
Ni 1.1512314863296336 6.187295652709773 2.895778761556096 2.497603549434847 0.2068349649128051 -1.9738361540294975
Ni 1.9684441494162968 7.751897193602874 12.745246801256098 -0.541333686423887 1.1742742358224936 -1.0619016010553326
Ni 2.558511902339318 6.408565146794958 0.6583257067040772 -0.7857705208498661 2.6019350590650867 0.5029663994995983
Ni 1.801567194840059 9.268615512639167 5.160196286333405 -0.5066543898741468 -0.04171280635775397 1.102364079945753
Ni 1.8640301528915568 2.122501154256125 7.6353302631767175 0.9533609384397518 0.6690997729279831 0.47383760045444206
Ni 0.47705824028349963 6.911343706900178 5.158285120394842 -0.4937813905662205 0.7083286365216188 0.453251034552342
Ni 4.171687333968012 2.0859335485504236 3.434402090348669 1.4179955322386868 1.811840971139202 -0.7248595442971065
Ni 7.61707484397642 3.956491941529156 14.017772042283703 1.0726632104472107 0.7472970473650162 -0.3208194242517765
Ni 4.351809993068954 6.654869022431833 8.01024992974847 0.22344506266566033 -0.460551167758181 0.38378394089945517
Ni 7.85744653622973 6.961904453314478 6.881711173634911 1.9812910676456459 0.1853832227969323 -0.6152387612434694
Ni 1.439637779920033 5.30232174976173 12.620868689647374 0.11204636177599414 -0.07037957816482718 0.7815598252026282
Ni 1.9810181074972484 6.899148197519932 9.215407517563431 0.5905142619135959 0.1671690137817508 0.8812474083029532
Ni 5.882436301856188 0.7567914357754731 11.909996326972042 2.123871850565071 2.5701423400345216 -0.673302498155421
Ni 2.2887347460411633 4.81686667893132 7.665199326879925 -1.9412533349974694 -2.9068113297240457 3.0081544461499226
Ni 2.6508250016589887 9.269192646907744 8.952278758814925 -0.05001541268617838 0.5629947163370885 -0.17008541609759742
Ni 4.274861910997941 7.238891057361078 2.8017399361612063 0.42323211959274853 -1.3296285163575037 0.558397069664077
Ni 8.619481378753484 0.3554125282938712 1.9470201684693396 -0.7172837888323776 -0.2493576687663641 -0.9407062257902186
Ni 7.763373650451778 5.154736217703972 11.511591080156236 0.8501866823424067 0.6210075454064465 0.380092608090797
Ni 3.3170366331640238 3.654016817490017 13.151932505643346 -1.574569801223727 1.0057469082406356 1.5854882479084436
Ni 0.20892544358991172 8.585269616209676 3.4563095395107784 1.7604078521698907 -1.4517060371172548 0.04095484514580689
Ni 6.773181547489995 5.463181369996746 8.92578829588727 0.14375783394666208 -2.637141174652574 0.25305697199482224
Ni 7.747336886759368 3.28711080215571 9.878091061056136 2.081411881628648 -0.21477401725422368 -1.1909581242360778
P 4.0793458509957885 1.1796719061876773 1.4713744879612245 -1.0281162770747714 -0.7902424405782905 -0.3444113526391036
P 4.327598737441298 6.765943716088995 13.658970505875011 2.0883325200078806 0.7766004243148239 -1.0951626771013074
P 3.2276943561448936 0.5702852932153751 6.70638819018067 -0.7608938122128444 0.9022579491163494 1.288598080778755
P 7.7354157526871345 2.095025778584881 1.2976882951375366 -1.3220260214198973 1.7078092521375683 0.8402033458774497
P 6.434971404886707 8.861650702335147 10.44551812045943 0.8580239189986385 -0.6925088958805429 -1.4212220095957844
P 3.8496274896673457 3.3575211829220306 8.609664419457173 -0.9167147479716277 -0.6480295825212452 0.019818577387823933
P 4.943959213845857 6.112816948410865 10.073520077857125 1.1165434567699288 0.0690613735740359 -0.6044272724502622
P 5.886391090778564 7.3813959156118605 4.866962879565503 -1.638085305278869 -0.908563579619403 0.5450101068342098
Ni 9.309024372657033 1.2245275384388363 3.952782198140487 -0.488751541451797 2.0915268585754627 0.9430333312614985
Ni 7.909625150839548 1.2040723861656857 13.224506666855953 0.20523291053300782 1.352952792905741 -0.04945902596207611
Ni 6.123063446982475 5.991013234088691 1.6859132719043555 1.5321743669766517 0.956578674046101 0.2557221775318112
Ni 4.008509715441173 9.282343739257271 4.121720752013821 1.1482963237014934 -1.3422891425443075 -0.2453053530738614
Ni 5.922693782393771 3.0747064688845596 4.742543138599701 -1.3866936368016118 3.46016518053726 -0.5961781450675926
Ni 2.850295850583517 8.714708533068588 1.6976281514347047 -0.05804008276286779 -0.5574727580775948 -0.9041605654557009
Ni 3.0537593333004915 4.682649847225996 4.03326309883259 0.0415881078544316 -1.0489936347444127 -0.9685631001014867
Ni 5.914547674111078 3.8389741587424764 10.747073614155854 -2.592834382315399 1.5161504807445696 0.03395758789236732
Ni 6.095711067138961 7.053101128967066 11.825083791994674 -0.29072389041797675 0.3126831682978873 0.40404449092070416
Ni 4.444369084044084 8.356856902898668 6.337976895139305 0.5522379920412167 0.03067737447919878 0.610880998495406
Ni 8.236330452941377 0.015515450607187486 6.351062705087961 0.20514060792951766 0.49262336570237736 0.6262410258912441
Ni 8.31003333740384 1.0775286018671721 10.71231688548303 -1.6660789622783176 -0.06979079554089271 -0.4631929762564023
Ni 4.292421930710691 4.882924899639523 1.2752311492376522 -0.3719308982156111 -1.2238242788364795 0.11694791284266956
Ni 5.544226159252901 4.784253862147994 13.108312508399992 0.14212286944640037 0.5098554133099478 -0.5484893236320617
Ni 7.652393568969791 6.88589303177771 13.919870201776359 0.2247833218611096 -1.3377130931378511 0.014717508715832718
Ni 9.263771369270133 3.502949557385765 2.114920826780987 0.523974369209833 -0.012371634191475467 -1.2717900080824807
Ni 3.483941971392815 6.010702027742912 11.532113407073762 -0.20331743867784982 -0.10793439649014959 1.0281193623985647
Ni 2.7707837785652205 3.1162790586570956 10.830379634398724 -0.723551109898328 -0.23245703635628354 -0.3803738867766417
Ni 0.9461501354171413 3.288965200789168 13.437951734054044 -1.351201357432273 -0.37031521698905895 0.44240817830056717
Ni 8.813360648125084 2.772893630071656 7.80514208742693 -0.03460910543343717 0.007756504016967288 0.5914730262824394
Ni 0.4565548358010092 2.82311377265532 5.654065217902259 4.80420550144472 -1.3665210185084788 -0.6027354865701362
Ni 0.18345773827591255 0.6518703179917873 8.49218258929706 -0.562456070224799 -1.0539406943370428 0.15321075182944582
Ni 6.556529127553421 8.976443654476745 -0.00286201829908788 -0.9530009839971717 -0.5586701208198056 -0.3900461197590831
Ni 8.512976453157345 6.764297464240925 2.573146513595612 -2.3859202274252262 -0.5895740094875137 -0.40974051286421687
P 5.741823687108934 5.146703644031491 6.7400237645776535 3.223145207400643 2.5402015866110315 0.21719008289488398
P 0.14250580437253407 4.598445011318947 6.947749525786327 0.5227289268385061 1.5275134711658727 0.043034867603287175
P 2.3656449832421065 7.487758922945235 4.0103319459350715 0.993041287748509 0.26889573879929174 -0.2658132432192261
P 7.296566639348647 1.1998432219352984 8.079169222634011 -0.41313565458869494 -0.23252337081784472 0.2915093624337496
P 8.472094532263595 3.0273909200788127 11.928108881787823 0.12898581784381014 0.010944414826645668 1.343495247037267
P 2.498840003455525 0.48802568362995474 11.43998669373919 2.298980945129505 0.17953164911216177 0.11205818885053605
P 4.821370218469719 2.7726854832862675 12.204489967913295 1.2619478251810783 -1.3978239423868182 -0.8197121679026333
P 0.6145354075454049 8.26059847587414 6.818095839289763 -0.800116762269209 0.2161554709827826 1.8482215666507653
