# total energy = -381165.52995231916 ev
CRYSTAL
PRIMVEC
9.25945637417513 0.00000000000000 0.00000000000000
0.00000000000000 9.25945637417513 0.00000000000000
0.00000000000000 0.00000000000000 13.55215036379749
PRIMCOORD
 96 1
Ni 5.232259623645781 2.2685668512918995 4.001706554341885 0.348265179167555 -2.3810058208427445 -0.14249593651510295
Ni 4.104513374314166 1.718768100560638 11.809696054998835 0.2851327694834444 -0.6195762122765588 -0.5594864460735138
Ni 7.349313987640989 3.2701067080393975 8.416183939977426 -1.8719268806875051 -1.1798887537957936 0.4219604519691765
Ni 9.074211848428384 2.3264384546411825 9.535429082263445 0.28060608525768443 -1.1728033077039222 0.18255860886394368
Ni 2.1547496115527975 7.607458376404935 5.154601487624965 0.4527041609099365 -2.014868646490775 -1.9968048470105288
Ni 1.44993829895428 7.674719068681607 10.854378479332821 0.1180221197434548 0.09079979369239202 0.4726677485160569
Ni 5.688713793038783 8.353437232762 8.833115971038309 1.1992794996175797 -0.5858058006943331 -2.644020675381227
Ni 0.07728127613980593 6.655271422993706 9.017628235483242 0.07818853268628469 1.42184858743619 -0.3449564265092962
Ni 8.851049686457012 1.6623965291701681 0.33956279008398593 -1.2228845406310296 -0.0954941138442678 -0.548571598933223
Ni 6.036295272482845 6.823710196837995 2.8220184576265677 0.46690899165540883 -0.14713240684584983 -0.04258466743974601
Ni 0.6104768953565718 9.126009248290126 9.40386424218201 0.0207382609886159 1.6548039035851307 -1.5088097241087821
Ni 0.25609341914124784 3.98228854804048 0.4091679767555429 -0.02321526177419873 1.5964267491978184 -0.7661175225056289
Ni 9.271493829381956 8.674110731512778 5.767713624311649 -0.8912677686534329 0.32903718417587846 0.15656192768986585
Ni 5.691574965108371 5.059950396969492 1.1627525507111829 -1.070348703381421 0.24551489798150622 0.9463389985959638
Ni 1.7379166566768487 2.1047022489763374 1.0912260268084295 1.619158129357063 0.6007143423750494 -0.13528270659611538
Ni 4.052401152930203 3.441480729605563 2.299176762708229 0.5756746257976021 1.1219497153871645 -0.03583500742073829
Ni 0.692624941851639 9.240382055421382 1.0370350574321607 2.1692649339878898 -2.336323133223389 2.001120186556431
Ni 3.1867345613902867 -0.036256328011912496 0.364629064872281 -0.42079419957521724 0.10136008570674157 1.3073789609306838
Ni 3.1751880190900375 8.730991573012721 9.230044798144718 -0.38304757695406294 0.7580082631349332 0.13357549409702157
Ni 2.161462717541314 1.6466091557764835 10.215177823856282 0.4336196334746597 -0.7883215694064939 0.4821348074662278
Ni 2.979387551182207 3.223809425359971 4.400315972809557 0.9726992337570475 -1.12078911942016 0.6487014117772893
Ni 5.048663119452247 1.3755848629711207 8.411833847296867 -0.7712499586361878 0.8929860368961201 1.485997354199957
Ni 6.929073552759834 3.816349827460879 3.4837695935506043 1.4765081837625988 -0.9607973401131388 -0.7357129420718427
Ni 1.4246692420678488 2.59934241712333 6.406643903657343 0.39722489689570945 1.1071172783600223 -0.07235289984111411
P 0.8814706319553661 5.414207944575926 11.082853717464486 1.6818501090696454 1.1539386095889352 1.2770576842393233
Ni 5.298659186464613 0.07428676789610061 2.3958575262363686 -1.0178786585071633 0.06934393781146123 4.064027067402356
P 8.556802676659649 3.324552312470403 6.161661832359157 -0.2998055410042708 1.0251196563402927 0.05161078219775627
Ni 7.877686355948212 1.600885959402282 5.081799010611566 -0.6945611504238813 0.015189563256244808 -0.3777017392611173
P 3.0088696607924654 3.034027604200466 12.928575448751685 -1.259631518343076 1.2936024759718816 1.0579251329060877
P 1.8479560381493096 5.3276505448784715 7.3600642166791514 -0.9000252031310887 -0.6437070438864914 0.9666746248295222
P 8.825502845874503 0.9391218602390952 11.3779655605023 -1.5368211217200436 -0.1005005659199237 -1.2855258696113345
Ni 8.663758659105659 1.4415121935066242 7.291233120573995 0.511291888646158 -0.617615231895446 0.8976811283789443
Ni 8.081014762019718 5.21693522307889 7.69587322308349 0.3720465978578689 0.34283038130522897 -1.2213403360723611
Ni 3.1789751368132144 1.1037457379906002 2.7711571888206037 -0.7492863098809032 -0.8023165981340054 0.9786084001526308
Ni 2.4982198922949266 6.300717572778122 9.315856811591035 0.9619085708994466 0.07478567765232283 -0.6021860418245694
Ni 6.5627787116567475 8.042208379677822 12.082839837405263 -1.9585766567672656 -1.3944411419575145 -0.6275031804331193
Ni 0.8499097743528011 3.1792806988788986 11.358436440722464 1.7136752240000424 0.7207509214453716 2.124198380666555
Ni 8.576358648863438 8.317816103468449 13.148676434392295 -0.05517535962056304 1.278230878611818 -0.4617457022869145
Ni 0.9711966176794019 6.7016890786081 12.85519055192218 0.717442683007745 -0.799928557517803 1.0895358178328332
Ni 2.7729016704319642 2.6611678084134365 8.367951430882 0.8582275503690122 -0.3858577927093484 -1.4520500507202347
Ni 1.32333374973912 0.7762137597836899 12.386286117271027 1.6076879239339346 -0.30326136076335514 0.47778398669669975
Ni 4.314897486266016 1.8286130334458452 6.23365040314305 -0.5256553564566818 -0.0288752882734535 -0.09683802946667194
Ni 1.8832530864641044 4.288387662203776 2.590981127871426 -1.2806315176335108 -0.42784133622998577 -1.3971965932154649
Ni 4.2625908162948 4.179663123559411 6.843199500954727 -2.185113213874056 -0.3099991937078209 0.635536078039925
Ni 5.1523597731976265 3.5577424658701386 13.062714417750094 -0.105859773349308 0.29219713252939356 -1.208222053522848
Ni 5.715473622427491 9.125212935028038 0.3329033889433772 -1.6387581629761778 -0.6272712669279713 -3.5681209171836485
Ni 0.36220030942291825 9.141111421900154 3.3651883634237896 0.3643356023668564 -0.1241876251242184 0.46763378563657526
Ni 6.013183668969276 2.676723695393724 10.479336229640285 -0.15948347221203502 -2.956657306711895 -1.2625000981401224
Ni 7.481455691864609 5.652898215157979 5.116777533621526 -1.3642995853771278 0.10653880169420363 -0.45881927266873884
Ni 0.18399280893326972 6.207706331875154 6.067107965997311 0.6169045789816666 1.0583254536682998 0.23648364101717334
Ni 7.08471575767153 3.056944759126782 0.8552709996870786 -0.7881251371249717 0.5889325192487728 0.5274098772539433
Ni 6.7071891957904155 6.3970066612947925 9.717488516672022 0.19921550069433433 -0.9275910285644993 -1.6191866686021534
Ni 2.094887225048299 5.126535148919042 5.198320011659146 -0.5832118147149118 -0.21884613044106827 0.38809028158429293
Ni 3.5405846929091433 6.356857657755194 6.7133013630497524 0.6896470009517155 1.2692063065157044 0.5344842676022215
Ni 4.2027006514206935 8.656536283007668 7.137375212936764 -0.8583620190643475 0.024332663208093575 -1.9914302129621766
Ni 8.484495580570918 6.963898368791299 3.333801583604099 0.29943658770062626 0.9033758647708764 1.1089229641101934
P 5.2588157449907 4.348629686426246 4.392238022927652 -3.0054866695097724 2.147896238504127 1.1957496320874503
Ni 3.8406188630414344 3.71024571501617 10.322984750357941 -0.13965178219808852 0.36819559954289494 -0.14205113566820052
P 7.599124865522638 7.70765495557975 6.9752782408739025 -0.15337401688018745 -0.752365205916543 -0.5344081629486473
Ni 9.271771613078032 4.249275717796197 4.0025732394736435 -0.4535153439573222 1.83506626021573 2.342475783088346
P 5.353836287961955 4.621191049016566 8.946723021114046 0.40512743957223774 -0.1557970244993833 -0.339835303232647
P 2.2527516995286074 7.984179365567429 2.950235078224625 -0.19842514358255506 -0.13308801293764175 -0.8947904370947106
P 7.417889522745756 4.974152272707978 13.267203033725547 0.3074286047671673 -0.9698728200518458 -0.34946485590261106
Ni 1.6266272485720432 7.805240368011446 7.37273578294851 0.14261960657716083 -0.05132179020242774 1.3134873878212667
Ni 5.940496935162576 5.99096097328315 7.104660627049828 -0.4568462081027681 1.498342248918555 0.5978473052398994
Ni 6.339598030772304 0.4283304220565575 6.765246914216069 1.0954123312182684 -0.5896416295006555 -1.010520675480195
Ni 7.240682043561983 0.7808462658885934 9.256661105957122 0.44727707635709424 2.791463928599276 -1.6745792864398452
Ni 3.373025567435763 5.717121805690879 3.3073343530419246 1.7494379834219482 0.9981279582427972 0.5133618838013095
Ni 4.646284176228815 7.139235437754823 10.275389291872182 -1.3006275011394632 -1.156013746950409 1.8900349031421255
Ni 5.586211609186532 0.18279278336621899 10.731270300905614 -1.9438722606775551 1.08037574860012 -0.32098808861915684
Ni 2.393421363221777 0.5024616310828552 5.225966896983993 0.7530542615637675 1.5191360457354546 0.1193758055578718
Ni 1.2670177350878657 4.269794673479718 9.320071716206169 2.216873279894472 -0.8835434034259815 -2.3074779268569228
Ni 8.1899244897948 6.494795781770278 11.597401717163631 0.3925742854975755 -1.5913305656218337 1.0773999538012478
Ni 3.186345664215779 5.771910010013713 11.67546263954376 -0.2592430462008761 -0.1535074571342582 0.4018063456188048
Ni 6.261096358261069 4.603422151924202 11.139704928703512 0.3345249467633271 2.9887660143209818 1.463431810194615
Ni 8.5165888569243 4.772036855442673 9.989371161098262 -3.2529810598151525 -1.9914091299162542 0.8208874191576573
Ni 7.946585972031735 5.245083970947982 2.100555864339568 0.6020921965591824 -0.4771592086285072 -1.85070242409109
Ni 6.314578979212342 3.8000254055881135 6.341728631721211 1.9242184910023699 -1.4624774167011458 -1.4923024704823782
Ni 7.796842040933398 1.675406065603087 2.701526075670746 -0.6437566661775042 -1.7950179860445923 -0.26803056258551905
Ni 6.912165785125308 6.921758582096485 0.5024523716263194 0.10847715636749705 -0.3044661797047337 0.36576410728326686
Ni 4.8629739780816035 7.08899362659111 4.849311649962904 0.06077882185026952 0.34553055384521136 0.6320015825241052
Ni 6.6268726697981455 1.3641309152362309 12.377002586148148 -0.9878592293269375 -1.811545037165338 0.9377913661362687
Ni 3.4302304899144618 8.747519702929278 11.722569198724422 0.19256534236766837 -1.0156906497169087 -0.4831401088022905
Ni 3.9584917447432546 7.169226817474555 1.5057385618764854 0.15742427569016113 0.9792277789041844 0.04823286686445887
Ni 3.23049475297888 5.093914083543119 0.6813765540518455 -0.5439230444176181 -0.806026699995741 -0.7586039877374032
Ni 4.676358891057371 1.7880010570794522 0.9297531421160865 -0.26389391470932616 0.3581050480761123 -0.6038379756056955
Ni 0.8492764275257465 2.0665810664180975 4.233949465337999 -0.1513184199027394 -0.6543028171244667 -1.134431135683627
Ni 0.823812922052062 6.508749782769858 1.6880017043288518 1.227206822155467 0.16179155151992136 0.2546358864461679
P 7.183504899452891 8.735945382259422 1.6334135042671936 3.1072609599357968 -0.15551137493816442 2.559124134547148
Ni 7.85167654253891 8.291306279406209 10.240113540307421 1.534694562295344 -0.29774248782765494 0.5520371888843202
P 4.536948513453082 7.046992731744334 12.905361065270569 -0.13841122492276808 0.708084895941929 -0.14654105311875407
Ni 7.089725123657444 8.707574407433468 4.161120135900647 -0.4333254992730085 0.26041649768368696 0.24266817256133047
P 1.6777487081066658 0.6768977549254377 7.37864424216406 -0.005386461122893949 0.2750820701156617 0.8858964770391905
P 4.848844047407842 0.060950372647465015 4.785332509082552 0.27189235953377044 0.2873596019314341 0.3385865184272105
P 0.058827179263786514 3.065565313161691 2.3214966826879806 -0.10695197797222226 -0.7130890340247397 -0.8846757172582119
Ni 7.974595828052787 2.935192165136426 12.170400036245553 0.5362398168407474 3.2523866207642635 -1.3154776787784181
