# total energy = -381172.17362339085 ev
CRYSTAL
PRIMVEC
9.19392156821036 0.00000000000000 0.00000000000000

0.00000000000000 9.19392156821036 0.00000000000000

0.00000000000000 0.00000000000000 13.45623355091061

PRIMCOORD
 96 1
Ni 7.297344322849853 2.258238615686947 7.50271170876316 -0.9338730049184691 -0.29526085905638183 0.3261102403370706
Ni 1.8717905072721428 4.082662038655017 12.251389705757243 0.366526182260272 1.0695038388826228 0.010227334154963031
Ni 7.791048721150392 0.3733789487994628 10.748812381388179 0.05164137832537558 -0.3580680241905898 1.5240697355916462
Ni 2.2650972812325287 8.633855518152393 7.287451663162123 -0.4240484448464568 -0.5789090735744997 -0.6635577600638315
Ni 3.528765035358601 7.445559533654579 10.258278966662266 0.7316853089696882 1.5262281766955457 -0.35668348513823733
Ni 4.724600035603569 1.1617163570282731 3.893036485378635 1.1873128141740068 1.2514911486241285 0.17932570374894277
Ni 3.7014912412632213 6.716922855613753 7.983300977840143 0.7552438130159187 -0.1720245421018392 -0.13007468003261471
Ni 1.210692377619848 2.4256047652737736 0.5387334683308295 -0.186568244243969 -1.9287744858041687 -1.328027490418971
Ni 9.249452929594119 9.068773981468414 8.272757809883478 -0.6406978247465224 0.6813371955344395 0.6082453606447719
Ni 0.2873661342617458 2.275357697785973 7.041189713781327 1.3423207671131914 0.5311387481687562 0.11765162377791351
Ni 8.35673233199297 5.875127389992468 5.668317477773395 -0.3017847762178287 0.014128726091898245 -0.28188855151453385
Ni 1.4588730984475127 7.081756054246166 9.22504214824013 -1.1115382902458535 0.8300174064833833 -0.24415915528456014
Ni 8.529440150054306 7.695064179198817 3.9891276768212673 0.36021540955089576 0.8068589660890491 0.08276715319590262
Ni 5.091299600329486 4.645302461433805 8.673848157906718 -2.1647439061890847 -1.3902705555195927 1.0820701055834072
Ni 7.362611972592595 7.8734722286787315 6.612406354377594 -1.465662756407663 1.1206623640343087 -0.9411163167444436
Ni 6.255084589727405 7.436374805933351 11.818084775689545 -0.455424645164893 0.01990290957151411 -0.3530590010117726
Ni 6.222464555738498 5.915930014243529 7.333606988593665 0.7077313692572521 0.5155596627835767 -2.425432683697552
Ni 5.253268917911948 3.3972827619439 11.527027281888188 -2.7212856678119777 1.3249359959778406 0.23453140238680897
Ni 8.414129984809415 3.0253058861949746 4.9318034476689565 0.509924061764354 1.202906811957522 0.3757700694560432
Ni 1.1893348976434583 4.740716980243522 5.366184066568869 1.2105543012004507 -1.851341857447302 -0.803221626446778
Ni 8.262255593190826 0.6973231003173715 5.829293851818426 -0.1765640818434056 -0.6365457502513617 1.3484713600956195
Ni 3.106947910383671 1.6092672686815992 5.883428581843816 0.30753530554836067 -0.47300379169923695 -1.6258903058745742
Ni 3.7622170937143853 3.3934397026971794 2.646827988452376 1.0639636257906837 0.6403188441405488 -0.4185249439250663
Ni 6.813275154431043 0.23299328166580563 8.70468916805773 -0.21598860638761508 0.17334814600926918 -1.9079531781834431
P 7.002348153016688 2.2365225727664853 12.058211621158057 0.17703973592824349 -0.6729661978619249 -0.632139650763866
Ni 6.096664125899092 5.670893614617728 4.559281372366609 -0.7163782462989727 -1.3878190086553066 3.374549502148969
P 2.855567704824287 0.7396142204824147 10.455291835978693 0.02705726122810824 -2.7372270216325827 -0.7564524886120392
Ni 7.1874126017660425 8.854399310521586 1.9253175190769387 -4.042196087570193 -2.524138362500582 -0.8538744156066391
P 5.171930293137466 8.032600624473547 7.038551977661986 -0.28766993408300134 -0.04871494870719997 -0.4704504291497639
P 2.6612817526671337 5.438213845679944 3.5309292845133324 -0.4193631235556455 -0.3509869489740923 0.4189836287290397
P 8.270861103848553 4.256914435552354 7.059019486023346 -0.3367237541868588 -0.24509940771064243 -0.1819790822113898
Ni 4.449674196716792 5.051388786477782 0.5931817110842412 -0.32224432962376115 0.2721543549459055 0.7688704026604178
Ni 8.992694279873655 6.94740527727889 1.648631044195552 -0.2854626420190374 0.23934450750473615 -0.8755416161674275
Ni 6.901591965732464 6.003741159854593 0.5821030355045814 -0.535417063829136 -0.24945485646586074 0.8850865795433853
Ni 3.780182016604556 6.309494218009917 5.444392161023953 0.9339061721492498 -1.2353551622942143 0.1809439560786561
Ni 2.551110989620608 1.3436824541839796 2.9424070529176984 -0.9574214816623706 -0.5455826915082281 0.37470897518138047
Ni 7.647191429204387 6.558870148651154 10.06323083840092 0.8793039114233372 0.5487762587448612 1.6256349953306584
Ni 9.021995308149485 4.330750820266253 0.26870523150321013 -0.7488019140453168 -0.16264207244567472 0.6172689042996207
Ni 1.3959131230371307 2.4743601317459194 10.048321055672673 2.245281141613204 0.32675764411308245 -1.3129091467202938
Ni 1.6826623451566396 6.103725057720816 7.23700461510769 -0.12488310852934621 -0.05371754412811394 -1.2575476392308536
Ni 4.093115527562961 3.9653292106486955 4.985601680162217 -0.6848215545386142 -0.23959339029074864 0.1977024064839176
Ni 8.505793383588841 6.579133551952042 8.023091351318325 1.6307301504653786 -0.8634913698711129 -0.19007651450754362
Ni 0.7338818103380845 4.4934832333450725 8.499657360284388 -0.41851414529178893 -1.9296008383602057 -1.6486751649795737
Ni 7.302520500734789 4.556231748557669 9.074641542260894 1.2831529985037837 -1.1843251923005926 -0.6830171543400236
Ni 8.650358607501346 8.747253347695565 13.355608196223164 0.3129657325353126 -1.2964137201684318 -1.030289116356374
Ni 3.76047024860224 6.199525721239534 12.173248726930153 1.512094565507641 -1.0451835169697032 -0.11863455651647312
Ni 5.855222549635652 0.5856969394747797 13.158985149184394 1.8588229963156955 1.22788867871384 -1.470965913788131
Ni 0.9696645278303373 0.8823930654197111 11.869905395637424 1.5268151595472672 -3.206523796793878 0.137233402564583
Ni -0.12658834892420037 0.3398496359600759 2.184888589427956 5.66066259017687 1.0436459972792542 -0.3898576578973609
Ni 6.1465319568900245 3.5354674042362535 6.045858514900585 0.5514054688375923 1.1181005168444034 -1.0663326402434925
Ni 5.147970933336143 0.23106715508162415 10.297181207309746 -0.8101648905338306 0.25792844115451063 1.279332339206113
Ni 3.7437556990555 8.667174290186157 2.6294827358809347 1.7764800751414052 0.16404075256541428 0.2271492509901249
Ni 1.6813476143617094 7.095454997494044 5.061697011423769 -0.38326380672992705 -0.21441072037753395 -0.2278100245025754
Ni 7.999052004398709 1.7105107338128964 0.4273252034311737 0.6968134367931678 0.8579005060468967 -0.3258153348044711
Ni 4.0273330182082185 9.82949744604286 8.004400108618368 -0.22854870244081285 -2.7033879615959506 1.800607821427544
Ni 1.4258209501413905 3.262509064581051 2.533795157598425 -0.8458214633951756 1.9343674065109138 2.145276541493092
P 5.284702936008923 5.595282803026755 10.556710905013372 0.26231911402303854 0.5785270076447326 1.468028428426362
Ni 3.627820347138895 7.245315920272844 0.8453893695914833 -0.20190101794629747 -0.4159818657882385 0.2458630253495443
P 1.466825840668596 2.4563952088557497 4.716463414949628 -0.4197883840185222 0.02441442428862247 -0.17552124240118805
Ni 8.273941067598914 3.1743577438692023 2.418192625645291 0.1803772849419087 0.006363480324182589 -0.2577273808872981
P 0.35541678408578536 8.092885168685854 6.392033568950957 -0.7464382989091468 -0.1978553871220141 -0.11064459633246106
P 6.348733875581691 2.878690417756108 3.9332571343897036 -0.08711488864163706 -0.83817243149035 1.174680213011661
P 9.170808123860999 7.846019178653119 11.030411168603353 -0.3507018136335057 0.5950764273629816 -0.31440169365089077
Ni 9.172600938581358 2.7015327416196238 11.642468000820406 -2.415097106099499 2.0268980668514835 2.447542628222714
Ni -0.05898084612334717 5.292821168819579 3.3243896735905603 -0.1615994901137733 -0.10672237845991944 -0.05070164011992558
Ni 4.854657251163624 2.522049003307492 7.698351925578308 1.3207852070342607 2.218441652822857 -0.945939706275016
Ni 4.290600964451834 1.4470864909013517 1.0189439478361266 -2.35327158815227 0.6543490969813699 0.27783983536645696
Ni 1.183846126422664 9.411633707374365 4.7173515477803285 0.043712096175969876 0.42576002822092485 -0.42819074914960453
Ni 2.4901369012850862 2.5913435907298124 7.738720596727826 -1.811922732219731 0.5393271975168196 0.41980689596128345
Ni 3.7954623143750075 8.565103372107002 5.193325468192591 -0.1434855541218819 0.4739707835981966 0.11632390610542548
Ni 1.725901358643063 6.533835100017616 11.348327785092193 -1.4055300527818244 0.44008158704991945 2.7102839173848357
Ni 5.587624266298243 0.847886438709687 6.242050367014307 1.1792624330657044 -0.548647703586797 -0.8904794684241826
Ni 3.2007351050626 2.1639917249258747 11.840705500499666 0.3822009126830514 0.48017614107796003 3.2275839598982867
Ni 1.7836299926386512 5.415127908434695 1.3539263216784667 0.5960156513477993 -0.14218586147385193 -0.4154625029496587
Ni 6.097353670022306 4.379230369089113 2.5312925721272355 -0.011785679781018412 0.40289135115286745 -1.093160301959298
Ni 8.509452564402704 2.2347849215759825 9.47540918363447 -0.30601989734509877 0.1958841223282562 -0.8607333475100015
Ni 0.2996703595964003 4.90235531664684 10.563103438731659 -0.5235712202341434 -0.44060737764640245 0.6284277491299177
Ni 4.583693992504925 6.280496589148301 2.8381884347427677 -0.6898164366500442 0.22206643715057886 0.04108211475229054
Ni 6.040599591720863 3.498323960799054 0.2664968515245925 1.2320276405828783 -0.9007008890418746 0.19929263378917292
Ni 8.507816046350273 6.090715658596153 12.325533167454013 0.8738506016182498 2.054443837680236 0.5820365634598879
Ni 1.8715330774661423 7.473886006236265 2.8055840304206536 -0.6350108016640741 -0.2810837962250514 -0.2463006271075952
Ni 6.232770941900157 2.4288226378487785 9.817251142414557 0.15041056337648934 -1.0355945877296875 -1.0757297651876765
Ni 3.843040858876866 8.74950585849807 12.597497644179622 -0.4336823683917951 0.5492483132852735 -1.451506776622255
Ni 7.408287375314379 4.267855202307372 11.490574301966369 -0.7076125842912007 1.0821220418672655 -0.08729820829703674
Ni 6.06047685031275 8.058132144875799 4.135248512275748 -0.3802692428779773 0.7247150482994421 0.09822565384281792
Ni 3.648359568089069 2.519667777601989 9.622067863505057 2.1430967602329543 0.7497797045775539 0.8979577790790987
Ni 2.6153948897475634 4.886367086909887 9.836762482925058 1.316808224664384 -0.10675477435975163 0.07841478976447785
Ni 2.019417307091725 -0.041144638136177095 0.7761756886796205 -0.3023475906998341 0.8651677291322712 0.23351375975557204
P 1.382968081363968 7.287911359244267 0.015277539593959033 -0.18157001969842923 -0.8791573585431439 0.14441989301069322
Ni 6.3172263061115705 1.836789247577732 2.010711582688091 -0.8462580367119619 0.08908589632507882 0.4751573477071301
P 7.041357962547391 6.362754606087069 2.9685527272856955 1.8563395677722097 1.1127793617418062 -2.223433963831125
Ni 5.750163607022563 7.324374452479894 9.150130994086181 -0.7917511639133332 0.5450828690536741 0.2668077459220115
P 5.786635894179833 7.873122859656303 0.4193163782880686 -0.9988129001249638 -1.263295083237592 0.6750595900558438
P 3.1189919477358323 3.4073868818294155 0.5179717544768978 0.3224273921688447 -0.5060311544678511 -0.3019572972399509
P 3.536092590907969 4.333536578524043 7.165740689669466 -0.12027234923021222 1.4271831122752259 -0.7552440701262348
Ni 7.8036903634093395 1.0944536262890276 3.7553924456788823 -1.555310952994115 0.0605448514625925 0.3254535805896782
