# total energy = -340889.9916168659 ev
CRYSTAL
PRIMVEC
9.08282814469933 0.00000000000000 0.00000000000000

0.00000000000000 9.08282814469933 0.00000000000000

0.00000000000000 0.00000000000000 13.29363709610958

PRIMCOORD
 96 1
Ni 6.309840817549559 2.1392694658365197 11.31344376647227 1.349917862734159 -0.3670946531692323 0.07168029925412171
Ni 4.755641736429399 0.4431293937962874 5.843218688364483 0.586237488915113 -0.4237993049501282 0.4430465832155144
Ni 2.982791729728599 1.6040365599828268 4.743142856410643 -0.7131661671195783 0.883154138407363 -0.04494031215611615
Ni 3.5237831487222464 4.40186557428235 4.704485430898087 -0.946865303413079 0.05763976200065558 -0.015245613305160841
Ni 3.78745765416843 2.7459751475550425 2.545346369880235 0.9657158604606788 0.4939667671041493 0.030910316425611283
Ni 5.340466884781754 4.538752879538272 2.8191818353416664 0.19785333023948506 -0.7481216001488407 -2.2199053818525765
Ni 5.1678114016943795 4.585947255366669 11.430852946446436 0.7513028260902996 -0.5771584094319802 -0.4069647498912927
Ni 5.611362238723622 8.079657159599343 11.97341932786669 -0.058225202190480364 -0.33179957741236404 1.677954373559665
Ni 2.154301546667158 6.801639638489589 13.042427345632495 0.5192887908087056 0.10926262838326989 2.0115426674413355
Ni 2.919584327613546 2.2153018215061717 13.05900441555636 -0.37003599518574337 -1.3111870218228645 1.5419319605840478
Ni 8.192965442597659 8.955477960913628 6.975995427034061 -0.09736921937979359 0.7493025078308192 -1.0249162820802349
Ni 9.083373266156055 2.449647874383092 1.1698737342808028 -1.0277869187598105 -0.3123602377408298 0.42303337331838115
Ni 7.079556018704619 0.8220767980013118 4.8182523967253745 -1.0691899071866298 -0.4335748962796533 -0.11349569262801097
Ni 0.2797774517329744 7.813648367280969 2.390913765204044 3.030925421297851 -1.8611742701566911 0.12921464602516455
Ni 7.933269215945324 3.9021919412092907 3.5804282073931084 -0.19968446991095287 0.9956440154786788 0.5476786548053083
Ni 7.83572872286966 4.114602963750264 12.379287326859588 -0.3744585497334712 -0.5775469031196505 0.34712103826078283
Ni 8.36019847719205 7.420779712145963 8.670814855839987 -0.6923168344743947 -0.8347955445983171 1.7589775474812674
Ni 7.1362328672745186 0.5725860372228775 0.28635432770243985 -0.6148590093065476 0.622123918399077 -1.4245816700966367
Ni 2.1716134174002075 6.470488801629017 9.06590153764499 -1.3395061804825317 -0.5240286194865361 -0.8758992566171626
Ni 0.08777463609131342 5.036573615638853 1.1622813981077933 0.14255455766718028 0.1307267117943168 0.27696874561541335
Ni 6.365691128744482 2.054799162679458 6.882594887095921 0.45627850852475615 -0.09971560812478311 0.15269755963845313
Ni 3.6673735812609554 4.516245631019649 0.47547788677412356 0.69621822641133 0.25620271671265554 -0.19424735805578158
Ni 6.006901245377787 5.535756775983903 4.725315989313184 0.73362443497393 1.6436977663696402 1.0420053763520376
Ni 5.467290416285201 2.7995820001607394 9.165617368097655 0.35919545292681365 1.4458948297521161 0.22489490773830945
P 0.41510523537039506 5.876317422959606 12.309429477865867 -0.8657387711443929 -0.14168732457087857 0.12481600273683664
P 4.300246891301574 6.173916292093061 12.477420928623012 -0.565630868408355 1.5049571831319113 0.4593602327738734
P 2.2457747104407892 8.41831041263279 1.6491418853030386 -0.18416374856753445 0.46994212205477776 -0.8318953402323866
P 6.630255751363718 7.935058533119727 5.783968674538197 -1.0447721404638974 -0.03241466888527966 -0.3817468558647684
P 4.763452968764353 1.2310592988170643 12.686862774593871 0.49470415949080604 -2.1414278571709637 -0.9941003251406428
P 4.1795088547567545 6.258813488180056 7.91656044501116 -0.5586523802079928 -0.1480163521126999 1.36045681459227
P 4.9342283063943615 1.1165884137968007 3.7531790601775965 0.6016926471279185 0.7326996091668155 -0.5447236859420425
P 0.3432936700101071 5.6865135600485175 3.3925226555959798 0.14054061256094505 -0.5108512015643137 -0.5884645784734188
Ni 0.558354153565157 0.0967684526704664 4.679054419950834 -1.644407133731839 0.4857379514364538 -0.6600582315510052
Ni 1.6900600267785828 6.695797440350961 4.711278478181009 1.6417558121519211 0.47708721773999124 -0.7300524013519556
Ni 6.139192639515701 5.829822424910036 8.931330353604663 -0.26532627628047856 0.6527982075544821 1.092422652462325
Ni 8.642193047312189 2.5759990988151222 10.191407472263252 -0.20968580409803886 -0.23306047426823734 -0.719865690626941
Ni 2.650396545391412 5.331529381738039 6.792091769384352 -0.9982745111229905 0.22149076715276694 0.3362121046577629
Ni 0.6477537076387069 0.1120121634004123 8.937578431189797 0.14536914429783995 0.8264322602352864 0.5014011118950074
Ni 1.3559845192065514 1.1014382561983085 11.279292332077587 0.20079210115283483 1.3429000366554291 -0.6257753991087351
Ni 4.112314091019557 7.313084617034857 1.4911742438538658 0.12231509069185385 -1.3498967796882364 -0.5991747658020713
Ni 5.592778772029068 7.865565813823525 7.708368396213892 0.691141583219371 1.5439772731488506 0.9483236331261604
Ni 5.337542214070294 3.0499319964960185 4.862971701842986 0.30562111924478336 -1.1798108493700068 -0.4006444641002197
Ni 1.1814670563184022 7.452733102092903 7.007860713546526 -1.3972680698833482 -0.4624242164111777 -0.562076061177561
Ni 5.196921866384527 4.5154826734427465 7.106046995714069 0.18236706167842787 0.06731919407194857 -0.39459440125139783
Ni 0.7813248722835924 7.788906743001417 11.09153301381603 0.36916979053070614 -1.2818376221264698 -0.02335178735206301
Ni 4.690254455523196 0.18908450291000894 10.212411512698813 -0.34835413933693554 0.8427837050101163 -1.0530395226790124
Ni 8.186198735516797 7.137059404649496 4.578461188284729 0.3050783593674359 0.3998597634153952 0.3698179656376663
Ni 7.335228552421623 6.111889657656548 6.882368724671339 0.2061636498773933 -0.17033224200108085 -1.0143505907492467
Ni 2.3714083914374 5.0928326541071165 2.566429430921974 -0.05307682522032149 0.6983748677430166 0.22804759443467823
Ni 2.5938014422761806 5.244815619991752 11.212371869754941 -0.6412644958832697 -0.960480065983036 0.7192373130143226
Ni 1.1385870239308227 3.3224713423595453 4.011168623393027 0.7787529518814523 -0.48479564212784243 -0.8043649960226018
Ni 1.8961221523403318 1.395658313205481 2.5306694276359885 -1.2003645051516423 -1.4259063024453311 -0.2354747401366848
Ni 1.3891186768320312 3.544192263904388 8.276764524743612 -1.2369304772011342 0.3849396517704532 -0.624767269559195
Ni 3.7174835449725157 2.7798813455857214 7.0322008768153745 -0.26648327270305716 -0.4608581574756386 -0.18598511804698936
Ni 4.196557323469206 7.129130095546688 5.875814234271982 0.03572213599195783 -0.9424538046089447 -1.6544313507370603
Ni 0.6172154223403549 0.13690547091251548 0.11759174482292663 1.4066060594548226 0.8450213360913835 0.6687778708121902
P 0.2013009069687453 5.6622987398101605 7.9146058203617615 0.9706400372351736 -0.8520535603478164 0.11059214582797082
P 8.76967054245298 1.8444862734749665 7.851501054206459 -0.7609987132218248 -0.4165997018778954 1.6548635531784728
P 1.9624994615308489 3.2093265502705646 10.333742657931392 -0.11375717381951377 -0.08502458177151163 1.0519581166893752
P 4.207520297223032 6.152680639535942 3.631010478176085 -1.016105111546508 1.6630160070822777 -0.2569501364016413
P 7.044968608551706 4.478897041064612 10.28643020533514 0.23397270166986156 -1.7616268121786565 -0.011552223613973654
P 6.560009157318909 7.974178274592573 9.78165747245645 -0.769554830321952 -1.0636430092264713 1.3214644924894725
P 2.343560439880459 8.639686186702367 5.47790915084659 1.5927405585954828 0.319000882985799 1.0835993977437401
P 7.095078572263266 4.066663796001557 1.4947628693137966 0.8284513475478442 0.40405631799524605 -0.04806754493118819
Ni 5.845599297660985 2.777801377905832 0.28212263799911996 -0.44638824599423765 1.406764439409558 0.7425091390580696
Ni 1.5603844871900483 1.2256096018391893 6.855887738773015 -0.23646924283947016 0.7931693844170985 -0.5141828370407081
Ni 6.890106386097092 0.8518448594601241 9.056875022883968 0.8744051885701393 0.4412277848392208 -0.5985731276623304
Ni 2.768100917285215 1.4402005031713125 9.020463780809127 0.3388282021243713 0.6116109346828951 0.3486400460084705
Ni 6.641418547340065 2.1857281325729034 2.6035854649171255 -1.0927517536669695 -0.22183015277005666 -0.29014127844162935
Ni 4.021612967651125 6.885337901241452 10.322642533470288 1.7044015120076002 0.3143836959287618 0.24448697093762412
Ni 8.31000676802582 7.487347760730706 0.12695704907940472 -0.3351083300706229 -1.4705457955315768 -0.18869634633056534
Ni 7.679422330715909 3.8607924098340343 7.919763958551321 0.9621625958917815 0.1713056616579437 1.962396801844304
Ni 3.0343004489978136 8.792513855618573 12.242828731099257 0.8225552937783834 0.4369106455211056 -0.08639960774216733
Ni 0.1677017085344869 4.931276387198013 10.398722119847083 0.49354073531032416 0.3575843996859519 -1.2676068232390687
Ni 8.529184497647655 2.6115129574542744 5.884388424183839 1.4087228486875094 -0.26665219418075364 -1.3251835932122726
Ni 3.95017652309948 2.5142812805406884 11.092875455838247 -0.44539477173271685 0.2001747792838101 -1.3826145816362319
Ni 1.1770073876248413 3.7264210480162303 12.6892288513651 -0.3383047255207335 0.19875373056656737 -1.5956009108624134
Ni 3.1266092329747193 8.54186412594951 7.518535468252254 1.0462219855365467 0.5145911282227202 1.593168904382153
Ni 5.922603515958357 7.886356407794118 3.472803050059886 -0.12104985082618507 -0.19217170647367549 0.41781300545970623
Ni 3.5884256377081396 8.439636893472873 3.689808167153207 -1.0631776395542787 -0.38590484389719987 -0.7125899829011341
Ni 3.6077266478381134 4.287894244818391 9.213806313624517 0.21038771526106995 0.6314829910164738 -0.4991498539669856
Ni 7.357199914070755 6.478000300630188 11.354707055423079 0.3487668013943219 -0.3772489679944149 -0.9153929438364107
Ni 7.750540876277177 0.07448282516227639 2.4004316609759027 -0.9676786406140042 0.7552170735430414 0.8322601797709731
Ni 4.933819579121021 0.5648447426658061 1.5839099207607048 0.03163639595835842 -0.18109025184853328 -0.26025066152978404
Ni 6.371858369157777 5.769966586436376 0.3460675657718454 -1.513108351484136 -0.8101633478719337 -1.3671684222844906
Ni 7.902006120948916 9.033036231737084 11.184017096379057 0.09724040711141319 0.6734233400040015 0.3211251284176534
Ni 0.25022737815327706 5.034693470181487 5.549109441862527 -0.5465075173153426 -0.3543640929764413 1.2260637096899594
Ni 7.486466726385949 6.214561948719712 2.459389207731043 -0.5923587713215025 -0.5351725519184978 0.16156812265520562
P 8.574217160341496 1.739388867256648 3.618594251894826 1.488113114991379 0.6947318716737906 -0.5349519512672594
P 2.0198211909097967 3.3150960857828213 1.3646449959872244 -0.47677560003684344 0.2638383788810424 0.9193722401991328
P 4.808049655699964 1.1587781512338495 8.058589539365707 -0.5991865928766131 -1.6291311814093747 -0.27769405381721207
P 8.59726029572961 1.8533147825791239 12.293184839457652 -0.7425181379191341 -0.13563134818478575 0.471032269795163
P 6.368697544910609 7.652909554918547 1.2004556171549778 -0.014766102565581021 2.207366368845302 0.5709826196385714
P 1.9169036634826284 3.479931253706946 6.035670195723988 -0.37571221963491425 -1.561790904291504 -0.8490967917123378
P 6.966983444798315 4.05534659194417 5.906429723610854 0.32238188364288994 0.37664758696499007 -0.6828346060155724
P 2.5015471552690545 8.494333685474144 9.865819867734261 0.35945564856673573 0.3100603859630595 1.0914042385001397
