# total energy = -340865.0844495839 ev
CRYSTAL
PRIMVEC
9.27500150534942 0.00000000000000 0.00000000000000
0.00000000000000 9.27500150534942 0.00000000000000
0.00000000000000 0.00000000000000 13.57490223459922
PRIMCOORD
 96 1
Ni 8.553898092620708 4.382920577611676 3.8858018219135575 -0.7706040975220728 -0.05834578692874468 0.5983769524911243
Ni 3.3317568161156625 7.07869980589308 6.0220981109322755 0.31838536088898717 -0.9133959680110398 1.6376942404880375
Ni 5.952556931094376 2.6026303867550653 7.2209384486288615 -0.6316305723379315 -0.5751709466883062 0.7716502793984001
Ni 3.1536953345242424 1.3597245162404334 10.330840007883273 -0.2827020485547647 -1.8778386181862499 -0.6929670664638841
Ni 2.911385916534042 5.368185452416 7.841651238754861 0.6634718852182444 -2.6441183773013557 -0.7662247375074546
Ni 7.123822688898719 5.5234860799692225 0.11622782812097969 1.250088097629015 1.7147016083820277 1.6175298497250208
Ni 6.3226944217636545 0.2025549059370098 3.032457150514332 1.0009206904965857 -1.8328319715685724 -0.49513816170443115
Ni 0.2304077358786202 4.962969905523221 5.956164906734498 -1.2516330735186314 0.8962572514482242 0.9312489370320607
Ni 7.431595068503266 6.806543432607474 3.678282935095845 -0.516624099492349 -0.8171130397168895 -2.1736864600943533
Ni 7.808670260403423 4.9227163983815 8.158570624982259 -0.19744298217494383 2.359860297113381 -1.872158794192653
Ni 5.2246826269559286 0.07092130008275846 11.042531289150551 0.8393422834287352 1.6763353498990032 1.0460458649699984
Ni 7.175716323105615 8.959326964551336 12.566219284481155 -0.8499743092212847 0.3031076087943103 -0.26064532586504147
Ni 1.1149386728108694 7.782106655690545 0.506486507360132 1.7871658369900254 -1.3882362986983834 -0.24207784727549922
Ni 4.299742362854313 7.912902728896202 9.597035267692656 -2.12366076299553 0.091649543287197 -0.07942626174812772
Ni 2.2265476200309835 8.959141464518424 5.609340132701329 -1.416150251499832 2.9363111389553755 1.7353437101124114
Ni 5.292816789044197 7.875598672277769 7.518961874003763 0.41404068290146756 -1.0988216140101335 -1.4463913097725607
Ni 0.9241082964540093 3.600295938759501 7.515160978329414 0.8193288164212856 -1.900615249761133 1.8590266276860692
Ni 8.829180141460867 0.7450469696851976 4.422391274614512 -0.004810534014765909 2.412778742378967 -0.8399174392059149
Ni 0.2557386928728034 4.788609149588378 9.767631300459566 1.1428748955756058 -1.1339361983250793 -0.302621156076195
Ni 0.10332166333118588 0.8634627706943645 9.085980822022085 0.6470461355620534 0.793618299029059 0.5773412148667476
Ni 0.42398444022272996 7.488172578541169 10.058853367127782 -1.1888300221494816 -0.43662011086388036 -1.480332699715012
Ni 6.361241328602594 3.4229579072964333 1.2641493342836176 0.6034985899884059 0.20811357451491255 0.3694325572737896
Ni 5.5686460629814425 7.637379530013259 5.024872194005839 -0.4758047514831419 0.990256011693888 -0.4179649576565382
Ni 3.8312991297437655 0.9794401737709141 13.13017462953733 -0.02460905679793181 0.03337806123981348 -0.7103649502253572
P 8.608564952319627 7.104382285449629 12.989701947114861 -0.4392626906930499 -1.0341264878245933 -0.44176283140708433
P 5.86568726568208 2.2319827709952804 9.87857887014373 1.4748148552205764 -0.717508246138358 -0.30314926066552306
P 8.656952635904501 3.635114294936925 11.705963809355826 1.8026320509464244 1.5556703932160627 -0.0724742559103268
P 4.940793376588692 7.729257696314155 2.7724565943853947 0.13589591470008208 0.9046945835822999 0.7676779250142134
P 4.712535586091513 0.6149975341120076 6.605194276884386 0.7101973142992414 1.0433927436178678 -2.4722617282359485
P 8.039627076379459 8.873737249366126 10.3716323926206 -1.0174001762088478 0.050506236279667854 0.9675140900116822
P 5.239068154508189 6.125823236835043 8.93179690466699 -0.11396157652083601 -1.4374251017182085 -0.8966143776773269
P 7.197438376959512 8.384675687597506 6.380502724519923 0.6153490615690885 1.4808361217139916 0.13992637601571384
Ni 2.7946878458296327 4.847477585032734 11.07876315557876 0.393746965649438 -0.6973073457104506 -1.9653085761744604
Ni 0.8500056708068244 5.9445804296791955 11.71719027134761 0.4139278114726871 0.39114372369863604 2.1040589296042023
Ni 2.789892669978879 3.2293978979552858 12.563477593994731 -2.7488134409186014 -0.26958967954252283 2.9609826735601263
Ni 0.725020386132109 6.650677029953873 2.583277168321444 -2.047877240206312 0.13000037515125354 -0.7209239566881261
Ni 3.0613163181344856 0.29050696404134174 7.789849427064256 -2.281461705298819 -1.13752442989697 0.8672778334967387
Ni 5.096066179136977 0.6110602959134682 8.706127767129086 -0.7791378460246969 2.090960187438715 0.9480850347527929
Ni 3.5183049242127686 4.302589788359499 1.3297486384221548 0.07767816870876945 -0.643106434188015 0.5348329091908918
Ni 5.469004720303214 6.488206826128635 11.016115156963838 1.312644065984365 -0.5886507263422959 0.6841952338085249
Ni 4.133747658403763 0.456876378558372 4.338403352213492 -0.3829200502372631 -0.813186965189606 0.8808864254191087
Ni 5.2315368531719955 5.77166657400106 1.9250571990409722 2.3791723671784317 0.09336266932356178 -0.2573509713844858
Ni 4.053212819115384 5.9287851018768105 4.172762025325638 0.5908425917872921 -1.0010379328007404 -0.40633328695488086
Ni 4.277241208862189 3.527255300800732 8.942303626531078 -0.7766898987048366 0.10821387540378137 -0.49934140115250136
Ni 7.424601717262515 6.348089376269193 5.840058581135075 0.16320180160388664 -1.5529676495729192 1.4696520800727142
Ni 2.651147920362978 2.168949859812069 1.5237417903401502 -0.7012627308137729 -0.6872167942436681 -0.9773251625648329
Ni 6.6359019523325 3.820836927887576 12.449732683814267 -1.2633182231660438 -1.3873484967767913 -0.9156186866939715
Ni 0.48153953543407496 8.472908778251696 7.337112481740297 -0.5477064227194504 -0.725728320055305 1.0666985082233436
Ni 7.369387632466509 6.93183015483567 9.35971858308826 -0.3065536583613817 0.8109989563993518 -0.645843887723836
Ni 7.172989472621821 0.10455523855004507 8.52684384032078 1.6567566564361271 -0.18585579155797669 -1.7216394731524414
Ni 0.5834347035121741 2.5295155487831327 13.423719156617592 -1.0892020886424982 0.613196276892144 0.2530762552685319
Ni 3.1263526296731374 6.651947705179315 2.061728985789091 -1.365791596541622 -0.8817390032273912 -1.7006441018476972
Ni 3.3115558625316375 8.930426059423777 1.6058023673992237 0.4608992951262191 0.537538738157829 0.22767221337313048
Ni 0.16097692856030288 8.954420488680835 12.102459927201616 2.0300065305734782 0.26317811958922416 -1.9021437705905175
Ni 5.477435696799026 5.146179013027926 6.91531323190526 -0.922573777855566 1.481382738246081 1.4088359772266061
Ni 1.1557486800513241 2.9290640696704755 4.966717006188027 0.07114653823783876 -0.7739645293538735 0.6612381107917192
P 8.383432837376999 4.860842862403984 1.8691280116180935 -1.3154918198458054 -0.2992931201442265 0.8750153113503124
P 7.111857936775949 1.1951117870350718 0.7914015729093669 -1.7159565638350514 0.8277635774522003 1.1130102468056897
P 2.5536862030714564 5.687384634047876 13.64834300147004 0.25013671302423374 1.2753625559250876 -1.7361384380995646
P 5.286500512923571 7.915685229389869 12.660402288690975 -0.8673865911604609 -0.4554192458482544 0.6704213199528841
P 3.3617614464390426 4.463353391881954 5.8752720523826 -0.6884144140961951 1.1339927625946278 0.7107141060346599
P 1.119019673534915 1.200880838058609 7.124624976541059 -0.1163915261185673 1.8687826786315687 -1.1781522307206613
P 1.1216352239989622 6.259281235512975 4.64892855230644 -0.10519231496863819 -1.058931976904047 0.39553439656716394
P 0.28131543741059384 6.36202042874082 8.044446367234492 -0.05515710478811791 -0.5842168589406583 -0.02758202338332669
Ni 6.13476433842136 4.369434725219035 10.058282954526579 0.6030807857246968 0.5538870976088655 -0.5193199011569573
Ni 5.219284575998214 3.7760850449477594 5.0649457661156365 1.8781417512489653 -1.7456515197963227 2.9570244602433267
Ni 3.3558903703974043 3.540973028234512 3.9010063321111206 0.11775009702899074 -0.8976333058601443 -1.1105085634297585
Ni 3.3043770112579756 7.0156668947098675 11.612052562694224 -1.3242086308935128 1.0478528362717503 1.4444683817182349
Ni 7.4284693929487124 7.92176035546771 1.0707284499671532 -1.4478113300485387 -1.218839166917062 1.865788629000251
Ni 3.197621742317604 2.52432154786162 6.888977792232864 -0.15200233334364144 0.1840616757720314 -0.26667224878541174
Ni 7.837858690581993 1.7748828648972506 11.503711268472461 -0.6422353444369714 -1.473026652971902 -1.0249329942507832
Ni 0.5326383019999471 5.061943448082969 0.45468191316903295 0.8643922844188273 -0.025694833662942847 -1.162272069155295
Ni 0.5262014508579299 2.6646801477638475 2.512062778186686 -0.675843776520036 -1.1805027332307088 -0.5398583874299412
Ni 7.596857047823817 2.2228097943678238 2.826403713956618 -0.7604397553945612 -0.058635550255021596 0.4895017893542602
Ni 4.681473605580539 1.6939863005446945 2.5534802980349247 0.7731546318580684 1.994379782508804 -0.9871123238585838
Ni 9.146681997791605 8.044811802299327 5.224287511885828 0.06895441568252642 -2.4169246462265406 -0.2660726675281998
Ni 6.407616336830383 1.3318716862988231 5.181513059296844 -0.18136330300426184 -0.6348948449115002 0.05689028542914073
Ni 1.04246380995248 1.925610916639212 11.102152854728526 -0.2764606956307432 1.0993044671838228 -0.07774758849412416
Ni 7.868123020951449 2.934610520654519 8.830840366755421 -0.14315105360059863 -3.242470647202132 1.4495943900908905
Ni 1.1646434066294142 0.1325518310171616 2.5161493439117186 -0.0008890874731726623 -0.025069284263801988 0.06047980255261197
Ni 8.91933315745569 0.2798351471479628 0.6513425555602907 0.2059062824509486 1.7841339921422372 1.3970014464855232
Ni 4.826534631317065 5.548018459321722 13.079106470476887 -1.0427445685109074 -0.08617952131156126 -0.23030399456902273
Ni 1.575989729609907 4.511527750428982 3.0010983699507006 0.1531313047417621 1.8954475895172647 -0.26546742984403315
Ni 2.3433384407518485 7.675082411702451 3.9310202374361456 1.4086629419838514 1.0544130059877712 -1.5720874011215054
Ni 7.7725441289939745 5.647205326919319 11.244824640041154 0.6188858710777535 0.30290603430646545 0.9421524713184419
Ni 4.4657648923097994 2.8896916876850818 11.354632312023082 3.056790461990071 0.3805083554719769 -0.2655458484904523
Ni 8.348799981232487 2.251794174510192 6.331415705810973 0.9675806815835594 -0.2943859126505962 0.5142309166698241
Ni 2.302148158443926 7.282369567027885 8.482236647406635 -0.7509274450287519 1.9847250330278594 0.8314834495059488
P 2.319622261544157 1.6620617448806843 3.5910506171192083 0.26975397303452897 -0.8857974895674811 0.7939959940834519
P 2.017767332989475 8.574989446362707 10.689326241485402 2.3860446688182324 1.2983286778029575 -0.23250717286792863
P 1.6420370163279248 0.6802137806825833 0.10770595660904109 2.1497294350581235 -0.3068372510400716 -0.1139626049621005
P 7.246354735638184 4.065613496315494 6.168693221940976 0.5359595665961674 0.42086670468436543 -0.5582885691106707
P 4.757185444013229 2.99680868168963 0.03041087539545524 -1.1412622996728472 -0.5427534495895491 -1.0510011520927447
P 8.54786006654945 8.414031067805695 2.9980988344185273 -0.01024764586993719 0.9921977088012913 -0.8245018759817929
P 2.1780579114280068 3.110260501818095 9.389881815939779 -0.6336859122050634 0.7945415821742768 0.42880781390831313
P 5.7327115670897175 4.1632143386317 3.2348182089169497 0.4825407846553948 -0.22041321781787204 -2.39372815350542
