# total energy = -340855.299530373 ev
CRYSTAL
PRIMVEC
9.36258634067261 0.00000000000000 0.00000000000000

0.00000000000000 9.36258634067261 0.00000000000000

0.00000000000000 0.00000000000000 13.70309149430024

PRIMCOORD
 96 1
Ni 4.67568495805445 4.837077220598864 0.646987482001269 -1.8946600606189627 -0.0032293055705750833 -1.3117511218564506
Ni 3.133966598113421 8.615283381636122 7.020642066406859 -1.8698535430982444 -0.1349273801392257 -1.4629579558819903
Ni 0.8429033452479837 0.7768259562159933 13.620776677017524 1.085068268979783 0.6148991185158637 0.34061460460083276
Ni 7.7168776885757735 7.02038553154239 11.563641387754432 -0.9657066044892981 0.31339125010850544 0.0956218976713837
Ni 9.13334336906912 5.019825542481009 12.152956274440273 0.7840106007359658 0.4705273051342864 -1.3694831864605963
Ni 6.299382123590033 3.3303655708129316 13.279775367775509 0.8301660162461058 2.29664355524558 -1.059811551295523
Ni 3.697332140625455 7.461709761705751 4.881658111498706 -0.4382072528453421 0.8120986172214336 0.5109087942751265
Ni 3.7376567997958223 1.034472159678167 9.836695493080475 -0.0327198588305243 0.6147890753005606 -0.20675860314891487
Ni 6.587281652145591 6.107299303172282 6.348121875321888 0.47749216648789383 0.33908325555797086 0.22478666429521932
Ni 0.9029774439479474 3.6645256382495632 2.0454189487741696 0.1423866646307483 1.1365787781542491 2.5310474309155895
Ni 1.429376686993448 5.856503704101787 13.404172306835877 1.3464535583346424 -0.6405723549122516 0.6274299039930227
Ni 0.2162476556438286 4.432622855263204 4.811922760001459 0.1574661846716901 -1.778809237495214 -0.994362320552778
Ni 4.7864911668497365 8.550194681716828 8.47344394430912 1.0192176890335607 -1.422722248290395 0.943914448314871
Ni 4.582686388391285 6.399646060217723 12.269611290893726 -1.0348420258343791 2.0928597184542728 -0.3758078646725141
Ni 9.016470204355006 0.2584888362286778 8.313802485401776 0.3569809617739981 0.6146258102498189 -0.07790905377265292
Ni 2.3150586252795846 7.3462971604535765 10.831320485489297 0.790011298404091 -0.0592112202528335 -0.09352516304335505
Ni 5.276716185229217 8.605087525161423 10.841748534104099 0.5027483699515213 -1.0034318869542138 0.45002121476113466
Ni 1.748949844983265 6.9936272599127385 8.382194305765765 -0.5207882581723676 0.0728123559760359 -0.03882314351478475
Ni 1.0148669039775056 7.193069073157958 3.162221011032932 -0.4706712869113185 -0.9642019949193135 1.97409300723531
Ni 5.129967007649386 1.3149190695433117 2.692917627987118 -0.22914854080834085 0.587918990382594 0.8390916008705098
Ni 8.963571591791139 7.579247670046775 7.110959191355283 0.3259498034998064 0.22575185642196605 0.5078257844744286
Ni 7.496267067718712 4.089203189981322 8.079534659916943 0.5072511429178812 0.04695194326950624 -0.042779299949055355
Ni 4.688727040762675 0.9823787295356263 6.897560570720867 1.6883655415906602 -2.566976283601715 2.9358295713332665
Ni 3.365596983039096 3.8155909681111546 9.559385985882614 5.07312720838594 1.415624718013665 0.570153953089689
P 1.6135200342334715 3.0002969535869917 5.696895950505103 -0.3814905168795881 -0.38324220946337223 1.876161487594143
P 9.196400387762507 5.369658579374616 9.784925072165095 -0.5070899347496687 0.21756237863263822 -0.7072760268873883
P 2.321003867576586 8.635637644240342 12.795974019852679 -0.4198853146077027 -0.13699146175710603 -0.06154063971695853
P 8.531787837061863 2.3829841888461076 13.253246479510073 -1.2244683401783816 -0.06317406155532346 1.4792520650563235
P 7.584865221823469 9.24524500046086 11.37038637153261 0.8714206520205184 -1.0811421944524993 -1.0307413734024442
P 4.029039210452931 4.932341536145297 5.4771532413975414 0.5461897289646077 -0.13282756018740352 -1.3577509856253327
P 0.157070492710877 9.086389998802254 2.028194598768197 0.15862549508711393 0.24646080683454327 0.8376659241675767
P 1.2864942575532408 7.6237199549456 5.395277424252229 1.2314002914115243 0.350016614641023 0.6274301611033387
Ni 2.5973406020584493 3.7806778838190027 4.080054070654347 0.5206316779898453 0.5034273982964169 -1.7386686607205863
Ni 4.380435799257718 4.331207320521291 11.660686467214076 0.41091165035418264 -1.4909837516709548 0.3291731955331105
Ni 2.925611602715847 4.762757010593205 7.414632805299798 -0.7174917910781256 -0.7310625877840249 -0.15181875657792562
Ni 1.5339099629714257 3.180021160096016 9.325611568695502 -6.059933056747699 -0.5792024364452025 1.3897622484246066
Ni 8.872370638696514 6.422631209570695 5.235512379205797 -1.2723240262090798 0.43207208648188167 -1.4454199469982267
Ni 6.825774812825127 2.295294205611917 4.8019609681841215 0.9721119937950097 -0.48975298613311785 -0.24453556478737246
Ni 9.101117347043486 7.92986716418912 10.035760930356657 1.224811582450413 -0.060994794515817526 -0.9858959349529794
Ni 0.43846583256765326 7.624141271328853 12.308746901604694 0.013355081150667322 0.9502236783623506 0.5727034589844201
Ni 7.825034285449719 3.286969983337972 2.618907319587806 -0.5976025362189449 1.4314673414728767 0.06310335621838808
Ni 5.916386806041342 2.8641836740377005 10.05050513125322 -1.041311949829439 -1.1129292570561091 0.431430853353457
Ni 4.358939301125569 9.214610618105292 12.859597475016884 0.9851341170862904 -0.3030003937924846 -1.2174248030680388
Ni 5.388542915930603 4.7145865041080555 8.443186874181219 -0.990423647620004 1.367940781674141 -0.54062354773074
Ni 4.195271930111596 2.3783590712166296 0.24997824528698664 -0.30480505110139117 0.2520390722532692 0.41926002231887793
Ni 8.624374452928071 4.421078786362098 0.5890106026312709 -0.3589704814002011 -3.4556495520550934 0.5477442179359212
Ni 3.673953762648114 6.534766905619798 2.8225903844244296 -0.2459692119101054 0.6179844423094066 0.28457278321491636
Ni 9.301373705296326 2.59338022805588 7.637171182674894 0.3221934217811677 -1.2871289524323961 -0.6604675511742819
Ni 7.7926022865256055 0.8151123803500501 2.533482145978253 -0.22906857950002485 0.8216183837864107 0.9298312307489276
Ni 4.680169636889511 4.550816144644842 3.033425528931414 -3.5752472438157845 -1.3579417614799 -2.137320005650177
Ni 8.460978596916636 6.509918601594223 0.5754985180910634 -0.2668324285123598 2.841975821305899 -0.3270214392974304
Ni 8.255085961714514 8.98684698131924 0.3176744254892944 0.6328040238207424 -0.7470664194114489 -1.287878686114227
Ni 0.09361743661723197 2.210562799646785 3.6642344618158047 1.4092015880961408 -1.7608238566613867 2.129707997630874
Ni 5.81232165937809 6.083462158466511 10.280442760576852 -1.1363280955960235 0.39289978715779433 0.151325618991591
Ni 1.4434861045392442 7.696251910969013 1.058691297904753 -0.0002635380740318042 1.250064186369615 -1.493065573900648
Ni 2.688316853082006 2.6894871763688166 11.585347607819575 2.0472244371136616 -1.6180744093745811 -0.044594755891239325
P 2.104868562968291 4.749228073397668 11.724885721435392 0.3689504754310485 -0.3995417179543442 -0.5834686679207242
P 4.895518484249069 1.7614488976864087 11.943203444908933 -1.7016362905576372 1.2682208026739834 -1.8094524163023673
P 5.969285418605209 3.1398837526515386 1.67401076802354 -1.1971228582858933 0.0778206078239047 0.6223252357766056
P 6.836597962581557 8.512688161021103 7.711469858732077 0.01651291005335866 2.1545083445040056 -1.909822113071382
P 2.314262805444553 5.448098327349851 1.6329427195013904 -0.11904773279449175 -0.46527299871388256 -0.10822133160294911
P 3.752524586831472 6.472692958487331 9.160406861011971 0.7189771173744005 -0.3259004383191097 0.04631662367835249
P 1.9436073766320003 0.06078659151697438 8.651830237236663 -0.8337501340529383 0.3477118777672463 1.0667013364368207
P 4.878693916677871 2.7161330969629347 8.119109375925122 -0.46937185137360454 -0.3903309979893536 0.05446085005204169
Ni 6.48309479186051 5.461056146781425 1.7669175843410203 2.0882936963501453 0.592156168392393 0.8287989606952499
Ni 1.5149600883113785 0.6227018694119922 5.672353803051357 0.41648220246342466 0.33066237848412733 0.20547716533333002
Ni 4.347460770328525 6.529991986609608 6.938327143964336 0.21069521919915973 0.40711515942622784 1.0221798569856784
Ni 6.717459051984176 1.1951528656641992 12.786464440953365 1.1899566795547571 -0.7938502125342071 -0.6831014865237138
Ni 7.351587021709964 6.862869379723896 8.714508071185124 0.38851425649558896 -2.3923341013713704 1.0073394495387362
Ni 6.988927241592904 0.04229922861987502 5.068471668349918 -3.2378753145219656 0.780119750321992 1.4549690241392426
Ni 7.839059439718864 7.713647596304174 2.8235903086406813 -1.1921310614982565 0.21495553713741045 -0.08140806806484689
Ni 2.49935177390032 2.1630383116159555 7.611381938726723 0.7810510038870098 -0.9069797800720509 -1.1757698465314137
Ni 6.662772185438062 0.49285403261097344 9.456530485368612 -0.03789214706008313 -0.004613587512611409 -0.8747278620168807
Ni 1.962987930261594 0.3245830779159984 3.041085997037565 -0.23181734588975558 -0.8534897785737107 1.3309374649769143
Ni 4.2823439826503495 2.391335615820792 5.450363136974488 -0.016779533451184006 4.409963341326418 -2.557256999431422
Ni 6.93726449041991 1.6809306555537973 7.166044904077543 0.7259568911263432 0.07446197576431692 0.7065831145854218
Ni 1.051278002076776 0.527254983432817 11.152055540438257 0.4490688781501943 -0.5671089956157781 -1.090504866614322
Ni 6.243534296343402 0.058613535238023325 0.9770579717444678 -1.713033219540669 3.696824170790033 1.4897593923455505
Ni 1.8444763129459436 3.379172733166106 0.19093496733804624 1.3841551866504742 0.0685990892256367 -1.8548863802654507
Ni 3.6804607601227843 7.131996922759002 0.5760340580271083 -1.3421405327815852 0.3627482032750785 -0.3329897410657233
Ni 0.3216235643883102 4.8502410169289165 7.362643299865126 0.37009615899971743 1.1391197994085478 0.1627667709489971
Ni 7.395038784702691 4.324644147528854 10.923446462109816 0.07763883083040177 0.3595412663020066 -0.5978228797598671
Ni 6.21402342434317 4.380164284255178 4.261332466488256 1.050461477539191 1.4344783603850586 1.339670473974538
Ni 5.848498692819997 7.549746160632838 0.19865629225511192 2.3881920541785386 -3.7123114677923548 -2.079087604370845
Ni 3.3789854814402163 0.28842851468119696 1.0333074539431324 -1.0031626924532273 -0.308397653548656 1.858729922381257
Ni 8.945773315245313 8.885150568988493 4.710341507482133 3.483030772281524 -0.9251441096859035 -1.5958950450640643
Ni 0.5580906613937188 2.7186609952624465 11.883732296766333 -0.7929277007199376 0.6607889390694426 -1.842160190948034
Ni 8.357840346296538 1.986122880995278 9.920092730498643 0.5876816775608074 0.9542083740417114 0.6063144621706461
P 5.266707580480408 8.039615400733128 2.1415193432767006 -1.3807803566409704 -0.5547548449257995 0.8097211181281927
P 8.497736110708804 5.713434022935689 2.969158864088777 0.4991436833193984 -1.5409094328568043 -0.38277992511497305
P 3.024077922774995 2.040744209437331 2.4224596614395644 -0.33596913540902135 1.377362589208673 -0.7237133465078053
P 6.550589676457485 5.686254434922786 12.63020755699148 -0.3537172034210618 -1.7603255768687294 1.0357521963534742
P 8.8197248159626 1.3437464727440454 5.822649528319541 -1.278529126578527 0.532797881038734 0.35507705988306587
P 7.570615365483255 4.272953308596977 5.723150514992111 1.9726627025466865 -0.13297642706044194 3.0179979146029057
P 5.8837769179776345 7.85638022436367 4.237461616471824 -0.4691293963454953 -1.2248745744778649 0.46966058625861695
P 3.7197087218692855 0.44834523362559886 5.072349651593096 -1.1073178244066026 -1.9492872610455396 -1.36292070275173
