# total energy = -340892.0049554568 ev
CRYSTAL
PRIMVEC
9.06327273722241 0.00000000000000 0.00000000000000

0.00000000000000 9.06327273722241 0.00000000000000

0.00000000000000 0.00000000000000 13.26501578057623

PRIMCOORD
 96 1
Ni 6.438113784372289 2.011919620888893 11.371421611689208 0.691581756080583 -0.45845597579204916 0.8984941111985429
Ni 4.497168650843775 0.3177483660986801 5.958844306475247 0.7942291931401806 0.11464677551331869 -0.6811451341282915
Ni 2.5995278335721728 1.6725091270619485 4.729760320691575 0.11481621121164742 -0.570675629921114 1.0944710503509214
Ni 3.446735361983113 4.376754011708289 4.8189682997735215 -0.6315760649509122 0.6570852649656103 0.08728303878838516
Ni 5.079547355264133 4.686473224652511 2.600340809120152 -0.3620411499057249 -0.039951343581957004 0.42446393511732056
Ni 7.139901104674781 6.077685561495578 2.478143424273546 0.4260297369425437 -0.20366633737683634 0.31628734070937786
Ni 4.9818905935085365 4.3155950485225105 11.681676464041294 0.3744433802248196 0.4111201668205629 -0.6676131610801276
Ni 5.647506393053107 7.869141077539472 12.465758299122516 -0.028265422603596484 -0.11242508527165153 0.13019012256455642
Ni 2.0596830672417465 6.511145634602136 0.2757410041440617 -1.7033771845081438 0.8264651703557508 0.682509875686302
Ni 2.8929603457391506 1.70865345800221 0.3473526395648964 0.19096765886324532 -1.4274332806128192 1.5130736415914587
Ni 0.35990889735943965 0.02400860899216472 4.779013769052096 0.905386467443002 0.2617719832703169 -0.679334563282114
Ni 8.749384234405088 2.3177597531805496 1.3461869051283917 -0.26799122470715137 0.5109792425017458 0.9381466925931585
Ni 7.020827829877097 0.5277634240176459 4.793777840040482 -1.0615997535441974 0.8592297663812815 -0.18417891807618603
Ni 0.9735948641586708 7.417744788051073 2.400291725700161 -0.6926994146247941 0.5779986459450884 -0.619928710519971
Ni 7.644435361139796 3.9810696586014838 4.000954478582159 0.447188630408346 0.24890978259566812 -0.6224257659102119
Ni 7.646501787281816 3.8810111296194156 12.765787061053366 -0.6374129833476636 -1.1841341593357089 -1.304941812244101
Ni 7.927245717874982 8.704203820729761 6.826720627942673 0.04413607108726592 -0.423057027467465 0.5773507279484443
Ni 6.819949457018533 0.9213269713471138 0.7306665319644895 0.16403766724162072 -0.9631200747090444 -1.761088937397315
Ni 1.7445258907658896 6.675290563804512 9.32265253725545 1.2037041110478366 -0.35561622021598754 -0.7929084174462279
Ni 8.958292666745367 4.909130641455271 1.0312472471938006 1.4971117189455636 0.30367376571042537 1.826078969115455
Ni 6.434733183710124 1.7648638743742016 7.035432387268557 -0.11482083919733774 0.4471372083451202 0.048435212683252064
Ni 3.36875496493948 4.2662908458356945 0.36310551358878523 -0.3333666647891678 -0.909343395208221 0.4086416233730833
Ni 5.786473551104018 5.300908724091853 5.090621767996305 -0.5276667304597559 1.9381160749200685 -0.3722934237613524
Ni 5.131624919352082 2.7543738451354547 9.46384563504531 -0.556585470376635 -0.24467723257155927 -0.6199181689970098
P 9.143663780266222 5.74977636053804 12.21217155840633 0.8369722405346618 -1.0589265775874084 -0.3613207267999326
P 3.8975606653006887 6.095821169873578 12.756328629817343 1.9138386904299427 0.7598373459238721 -2.031914289119152
P 2.5209039441772956 8.559943711508062 1.2803938906864056 0.07002296615635682 0.5721663555340275 -0.8875232140093361
P 6.190577684412303 7.5804033405548035 5.951256534694106 -0.34977621649544277 0.7943117255516579 -0.7703001931284088
P 4.99561238815336 0.9590120586213385 12.449574919652372 -1.5750161447325262 0.21863992796753312 1.3404356342753367
P 4.208847824396532 5.967693685795726 8.297028144353359 -0.2729295425490332 1.0299458740843423 -0.2006486335964351
P 4.671138167493303 1.377834946555247 3.872920346211599 -0.0705829524248849 -1.5520407668832754 -0.08117564033906664
P 0.08833881124414131 5.703381468340648 3.3431820351047152 0.7170256500749844 -0.997054008452328 0.4850213849854033
Ni 1.7244054256988435 1.0963206377951005 2.6075307032362276 -2.189215408967888 1.5585986226064512 -1.3339865362158831
Ni 1.8144762283278102 6.56919589530233 4.480391627021428 0.7854406483142732 -0.30086123596229475 0.500160554619687
Ni 6.3048746145747 5.798980867226776 9.13204829016265 -0.2715779136171452 -1.255691045638089 0.9036825973780178
Ni 8.583626042688328 2.2259669287665655 10.291132090385362 0.678932956968321 0.7788190292326974 -0.39611777987445973
Ni 2.4832097936305186 5.2882745221533565 7.095522790620369 -0.9680329386296298 -0.809245978263987 0.16495400840830302
Ni 0.49859871927023675 9.161971590822725 9.38273025202569 1.090158796128813 0.3734668752441633 0.09436719932867618
Ni 1.446752071046157 0.9712202867498572 11.695114578255216 -0.010192881372601801 0.0890172478706725 -2.0015451899089913
Ni 4.162099464569584 7.034023954713863 1.776676037492166 0.1320901678007467 0.06651418167214997 -1.1108042402933063
Ni 5.611362062112846 7.89825230897882 8.293857811614416 0.45341172849992234 -0.3058589462872023 -1.5047610079607052
Ni 5.320204431356601 2.8977276271018835 5.132433363263785 0.6990580098529702 0.2414587256342616 0.491166835761509
Ni 0.908438997777141 7.309900907946216 6.626193910059154 -0.13933039430292776 0.18626408273998887 0.6088729669264417
Ni 5.245133344802392 4.323090374923613 7.4338873827947305 0.47579523840144505 -0.44039937540065444 -0.5598625984660099
Ni 8.324833358217859 7.230008160393958 9.222767116779139 0.08586250429177471 0.10571116358658568 0.11034814813796479
Ni 4.730112881993875 0.1255580463091559 10.240512806851147 0.09597182481163473 0.4588131020211518 0.6514964580239231
Ni 7.951644047586914 7.189631281171574 4.457416231100273 -0.000291820208805949 0.15021104577117356 1.1613837530130708
Ni 7.506836757244346 6.217640616254736 7.024966120124671 -0.3911799762532102 -0.5024508933157605 0.16956811014154669
Ni 2.410966448112759 5.145872383804964 2.4094836967231337 -0.6371005943135672 0.7373440499173624 0.6909214967887649
Ni 2.2416282637376717 5.1199514243041735 11.42237261099885 -0.022822397211154245 0.4889322900040353 1.0979626084439478
Ni 1.0635750340621102 3.377727604766676 3.683774379672535 -0.1487779128690728 0.8899050839779512 0.7545059064086297
Ni 3.5227127757925953 2.9567023416024556 2.83615356603319 -0.021390292750318 -0.6257484025255416 -1.0245252172894033
Ni 1.0039477639377419 3.4369289010810666 8.16903389038203 0.25467471010390336 -0.644861983426541 -0.8319673311209026
Ni 3.6211942953504894 2.6853117082837015 6.900447631177314 0.15278112049119494 -0.2408663434659013 0.467585191786827
Ni 3.8247100805218968 6.880954344570916 6.006345824251326 1.2720707725476932 0.3016608490454547 -0.44663224368424376
Ni 1.0110714961641827 7.554473317781461 11.347172825974395 -0.41964671623433536 -0.17563771337439427 1.112849038637477
P 0.3330970181667175 5.714692432486447 8.08708287363305 -0.032763824694582284 -1.4359765421971398 -1.092938672866795
P 8.558094803907306 1.3996774334073108 7.934495429589905 -0.4714192208209365 1.0499009770500305 1.0518529585700787
P 1.7335774575221998 2.8818215837718535 10.342082183367753 -0.989941822887579 0.6988785468523125 0.02147436782369205
P 4.317036108858394 6.346166884324909 3.8381128479728646 -1.8152332846502026 -0.479959911302096 -0.03937181692940316
P 6.835094185454134 3.846878845185859 10.337705529052043 0.051324104195272904 1.5376474742760808 0.5266076930676222
P 6.562561579793737 7.709029304623057 10.31537996977292 -0.9171906591667818 0.11955244034505215 0.5159471280299824
P 2.412842545531173 8.622643431027802 5.633824476807516 -0.33775168123074084 -0.7085813759623732 0.0684039424956951
P 6.969185302871679 3.9810424687838255 1.6727583670571482 0.17008155944285547 0.9340704656412557 -1.288368481266452
Ni 5.321437036423771 2.8988061565356573 0.604987037803127 -0.2601259630264617 -0.2215607011587539 -0.6347925150056809
Ni 1.374164321171394 0.9141669860304623 6.95982203599746 0.4307325417348517 0.6491644674566368 0.17162550689120765
Ni 6.961572153927392 0.6272237770112343 9.205602184891534 -0.03228045730026054 -0.07454913616148452 0.5255833655681658
Ni 2.7208125468727196 1.5432849870052159 8.9457409405871 0.1955568208958245 -0.41975290279489647 0.8355938721298964
Ni 6.3711815165704255 2.380849193420058 2.848529464703934 0.2363805397804058 -1.8378409947473897 0.1127557291381929
Ni 4.061243367602876 6.748866210387523 10.385406438824283 0.3532040112300691 -0.4457156454072453 0.2772626227067483
Ni 8.312371358457865 7.147160785989512 0.33005085226174713 -0.7146949450592788 0.7304707198362967 0.2985228176371052
Ni 7.578708508587445 3.6779938244384076 8.301909622950255 0.3762313253631779 -0.2003979510382097 -0.5270031287338278
Ni 3.2395036350650894 8.440362893447427 12.154123110360647 0.29780445141384193 -0.11368492582068163 1.379206070175315
Ni 9.35420360166599 4.6946392332225155 10.107424087377932 -1.0696365078057448 0.22536027741050219 0.5709108858603716
Ni 8.565735142669253 2.2276436341888193 5.909684209822018 0.730177356965594 1.5651469652479304 -0.4568024993490262
Ni 3.3923647899393248 2.591280255549194 11.617062581358416 1.0941378353812188 0.023277996691334103 -1.2715197851402293
Ni 1.0993930871904738 3.1536291276280335 12.62906396928651 -0.2371474998534174 1.212162269117519 -0.15093943929676584
Ni 3.3497039660336547 8.36769357411969 7.931418448558256 -1.7491425636687168 -0.535899145671877 0.08276201098958005
Ni 5.705475084300327 8.0783848509642 3.5042853300383974 -0.22843043169539368 -0.20820690555966723 0.30500765403050056
Ni 3.0099400045771536 8.595961156632585 3.4476172184024936 1.9222788507774962 -1.6282991724263827 1.5138318599137217
Ni 3.1558315028583452 4.341851349107751 9.439252444973494 0.7347729467560765 -0.24139033429017137 -0.7470646196392359
Ni 6.979807458303472 5.864463011420204 11.56738497184243 0.6979251818001077 0.34814716553245206 -0.9553484011834256
Ni 0.52717793661074 0.10843571180255054 0.412009119628771 0.19594608591444318 -0.3661515725296726 0.8068651367366363
Ni 4.740599088337376 0.7085276760999516 1.835400605670283 -0.8796823778086785 -0.6881452195952085 -0.37519079991380544
Ni 5.890139262562069 5.5881963374680845 0.4082696133735173 -0.41098698367680825 0.25674239126620946 0.18192277505215768
Ni 7.984462157500325 8.746928087543301 11.661739077079813 -0.0890936096345627 0.6189835729978824 -0.24776898412300552
Ni 0.013761673044055461 5.105413935129606 5.614046603442962 1.7197535689836383 -0.44852791804505976 0.09294255106700768
Ni 8.050841565676473 -0.13353010084653155 2.581292529196093 0.0717196371324894 0.21317144865379414 -0.15820486260992755
P 8.542379089300884 1.9043113858704062 3.631497423588425 -0.7835822549492957 -1.9246936308665756 0.12280205763060141
P 1.648092670804911 3.232969015554575 1.5569279311788307 1.4363372679706683 0.12780002506582505 -0.6490580237857596
P 4.749635171072442 0.9731326372584818 8.139705140401416 0.5670997396443975 0.8382912164564016 -0.08785922300682933
P 8.523047128945922 1.7095507219849297 12.473531867990985 -1.143446708918676 -0.8967737860733265 0.22190188654825654
P 6.361900725476437 7.750792864546007 1.3525411655151063 0.2301911231402423 1.0016436847055394 -0.12283908151612394
P 1.7811143220612349 3.2832429884045333 5.9901361612907795 -0.5560589084492037 0.6138691345894525 -0.018492659487548798
P 7.17434154037513 4.157975675558095 6.134140686226494 -0.2977041783905518 -1.615922653138901 1.1329074999502489
P 2.5680692145416693 8.567865011719142 10.075574841300407 -0.6578136584912025 0.5711960212009582 0.10502673592505136
