# total energy = -340867.8891111363 ev
CRYSTAL
PRIMVEC
9.29573521662089 0.00000000000000 0.00000000000000

0.00000000000000 9.29573521662089 0.00000000000000

0.00000000000000 0.00000000000000 13.60524811684146

PRIMCOORD
 96 1
Ni 4.9473111913144106 5.3009209635627395 7.926200227887655 -0.505895143110619 -0.25711957209997005 -0.3247418992346343
Ni 0.0951762454027069 7.577149084248963 12.994712934829895 2.168011778307079 0.29320731896146274 2.6181872592578905
Ni 2.1528644170188316 2.9082172790944036 6.9120373616852815 -0.7228144888426197 0.25377122445302747 -1.4610129163404773
Ni 2.6953728270657495 8.459649014274394 0.18673644975902579 -0.6572662706281649 -0.6895588121132834 0.9767055267029631
Ni 6.181617520932646 1.7461481087858886 11.100698493599817 -1.6055711347012478 1.2946185759412219 1.349715774025682
Ni 0.26414854493127643 8.805636283545763 8.101340247812828 -0.4398692139287973 -0.7513303368941254 0.3276133072451584
Ni 6.344460212579498 1.4740805269203756 2.544058706384786 1.9124286974562934 2.1199082379316327 1.057408084060353
Ni 7.338508966658029 0.1356219898572937 7.168959401964985 0.13763655154027263 -1.2923341507824195 -1.690964669776404
Ni 4.469305888776198 0.6744474295633917 9.67912771645537 0.5141758950621726 0.5876006878112268 -0.8279697799257354
Ni 0.4170494476343954 3.0780224765092363 12.245566835239345 -0.9740750310586516 -0.45458492287241714 -2.1359992299562247
Ni 7.887236223645908 4.917564838233583 10.769043389072205 0.18878967737532001 -0.3397445432910536 1.2581827017116913
Ni 1.4054687043923808 8.401057994440503 4.9219979744161595 1.3355806201758802 1.4046581916998324 2.7998051014751204
Ni 4.618567511094585 8.526550421500241 7.818827048148275 0.05691496801948907 -0.5727687650047167 -1.0471141583335126
Ni 7.4134418892157 0.9781344551802896 9.344805665459356 -0.19157701031247004 -0.027787711636229562 -1.0351829541135655
Ni 4.28961002896199 3.473556015130856 3.348796092015733 0.49075957302076123 -1.432103946615611 0.3113467088746509
Ni 1.6397212349038925 6.647649916355825 7.471621107974128 -0.7261075577715946 0.34741337269022105 0.2810413730228902
Ni 5.296031406775079 9.12570704269546 1.7066561067769557 -2.517377389627664 -1.7021399696669328 -1.2781223780584117
Ni 3.0582411517104866 4.9549429900267095 6.6107216781530465 0.10688821461382238 0.8084880170520399 -0.9616072376089438
Ni 8.594167600347095 6.576230781755828 1.5762360104146718 -1.934231909374314 -0.18358087948087093 -1.1735674395634563
Ni 0.5173364883258018 2.00179942204492 0.7326629016896374 1.158790795474914 -1.6379693485262952 1.0731468349518487
Ni 4.701848003985562 3.0452364179729625 6.441404506843446 0.13325256353996406 0.08051075306155811 0.16698775100888016
Ni 1.7123581108331367 0.9388413819075849 12.564813992238117 0.12097194640039811 0.3282830796186733 -0.10184962374865039
Ni 0.9612348083362449 1.5743722154794508 5.215191044410263 -0.23052999453689976 0.4364740722043193 -1.2789042505297588
Ni 2.457151017565015 3.206470947406382 10.803315835688988 1.0601360245144775 -0.30728256610760624 0.7959582600161452
P 1.2328190119641942 4.539823337048433 2.5329298520384214 -1.3345629775446435 1.9572571666248935 0.2659438552598194
P 3.651290474788796 6.533182231406668 13.661846479829538 -3.022146132443324 -0.5210278849869995 -0.1984328568920389
P 0.789034099924872 6.234779831329286 5.451160497238659 -0.582966274363009 0.4066485042024545 0.6296778194869349
P 6.850203989365581 4.913149363948148 6.651809757919471 -0.22717470491142167 -0.11716054307410789 -0.1845363014156048
P 7.134681377907001 5.805790941227074 12.91240105756111 0.4192672214077295 0.639539285662047 -0.7578928206029915
P 3.3592649491531166 0.9579069350853274 1.0885761571546633 0.5702912499985018 1.146816139611541 0.45151811102163525
P 6.191721985244788 0.11087209452051197 12.553344913978389 1.5044095381585574 0.4625324598542679 0.8785762892286935
P 4.316539774235476 7.2580636730450685 9.57563178792537 0.6949108204538161 -0.011697748052902435 -0.5396329016826965
Ni 3.3918465015119597 0.5276212899034978 5.810924046280585 0.41771401798799673 -0.9318680586732985 0.47499511109765286
Ni 8.244815274883459 4.632139284687711 2.840408608099591 1.834674681204266 -0.5299123319608229 1.7904365373214972
Ni 1.2605946691534164 0.6340983607563175 2.8946659561190193 0.028068218991125854 -1.9790884035673724 -0.6938780083139275
Ni 1.5939676255714457 6.474321635247982 1.2187852403247803 1.0739945276641245 -0.5831830183595053 -0.3273911639320233
Ni 4.911160076585868 4.933599981691217 12.940767923517816 0.24465075020899804 -0.49363020970033694 0.43693249989797656
Ni 0.6116631035186376 4.158512273493583 9.924906029212169 -0.3953994136511964 -0.11991265189794831 -1.0895805550278397
Ni 4.989829884749317 6.55113229634388 1.6608606666354888 1.3393819961998417 -0.3663618887682658 1.5245021951433744
Ni 6.790088468936297 4.831923228566816 1.278473156928527 -1.653651278037926 -0.5560969607759906 -1.6193980132820107
Ni 5.935354900364751 6.117142300629953 10.787615338703514 -1.4636009887826278 -0.34363642214629203 0.6745466549751673
Ni 3.9977332350917147 0.8961702384131387 3.3039804223788662 -0.957562635225925 1.2098968701221098 -0.07971165419903047
Ni 2.4338187218672416 8.532248707262287 9.298696959037008 -0.6715945143253789 -1.0275665752188883 -1.4343942853116844
Ni 3.3265346650288694 4.713476968893097 1.542577082330182 -0.4180865708360671 -0.18474867453672697 -0.37069085516092287
Ni 3.2272190286802585 7.60772275777485 11.421891248004782 -1.0909661225214566 -2.0633758500625436 0.5305612783987314
Ni 7.163237876864595 8.613130900436122 0.6932703640488187 2.6820694026238328 -0.40255273686652604 0.0004604845761863037
Ni 7.171641221609929 3.3182707563136016 8.968593312737267 -0.11625011544469656 1.5411932826458103 0.6186765832804249
Ni 8.111430768521965 7.6260446521255725 11.32125375809114 -1.9677704074513918 -0.39516312927067426 -2.039082781843133
Ni 8.46692757504386 0.5197087599839978 12.4419587652937 -0.7731695442564038 1.1909972050041295 0.8328443344092173
Ni 8.07429430584762 8.371116430917583 4.872801224714608 -0.24075115804427571 0.0260838415712454 -0.8665466117576689
Ni 4.113902039607681 0.216800716988404 12.183309577388242 0.5522619033006166 1.192045957983618 0.6229523278376432
Ni 0.21732220774085223 0.424104910755754 10.373416893097207 1.3906875884523533 0.38591487119952894 0.004168529555392821
Ni 0.4096435352908033 4.110323181502644 5.151858269980581 -0.07347312948848637 0.03592371047980265 -0.923981713946686
Ni 5.432780969328842 7.399712088121831 13.045596860495252 1.1192598272598273 0.260428581868545 -1.1731285522538246
Ni 9.037732203458914 2.4379367326218686 3.1199006937793716 -0.738069101008845 0.3024586623564017 -0.502447807991967
Ni 9.07858696026836 6.414977660851733 9.272833434606763 1.6028475651224976 0.9235194295982868 -0.0927224646364016
P 4.978405426019211 3.8381254593424026 11.041611081498889 0.23187596704183291 -0.1825570662020469 -0.04691389094271921
P 2.0202793438963838 3.6283300085045336 0.054108616254024085 1.0826102943575935 -1.256556478962178 -0.25848971297461937
P 7.2360792589712695 7.723938040967505 2.8069123553835125 -0.5604588372891122 0.25512053939207036 0.8197995854101171
P 0.918458623032482 6.831333646629932 11.118290672726525 0.2077981001570228 0.6296076283706318 -0.8840730506772064
P 5.789765093504778 4.7951214123646295 3.280973477417914 2.760421714581491 0.8111071998424418 -2.5259970129758753
P 2.6398865828346696 0.7590702266371415 10.673984269934754 -1.6228875144925083 1.2907246402034545 1.163297425096016
P 2.1957270526612356 4.648341751381425 8.445907128724585 -0.9062806971224973 -0.6754431986475077 1.1996415109426888
P 8.127549573597637 1.1814135955463905 4.594369782436865 -0.8814752080430431 0.5635446753032876 0.44167078591391035
Ni 8.325669580851283 6.995236052105287 6.840133919274187 2.367184598688936 -0.6449902814742893 0.4798987190468574
Ni 0.7176828241928398 7.205040798678494 3.3545640957928122 -0.5525560375022678 -1.4932946591923184 -0.906885677696348
Ni 7.361348588382902 2.5443543107685267 6.845575642740911 -0.1835885927903548 -0.325939004866529 -0.2095811601993745
Ni 8.90819613152725 4.4735540398255536 7.427268365957081 0.14097744298804754 0.5319838697778709 0.3164387786855776
Ni 4.752677084812425 5.106463476032172 5.012472436885029 1.8518748471326363 0.5741425054237919 2.362596207987305
Ni 4.9584939609257335 2.996610426421148 1.0945440192415044 0.4415211477099235 -0.6364909857540264 -0.10790071503873674
Ni 5.763476753969598 1.3173451333904314 5.013778487699984 -0.05001489846554612 -1.5688118156940272 0.764104091620026
Ni -0.0533807601770776 4.3179806132128284 0.5425623253118769 -0.621750337109742 1.2744932659462567 0.7962547082106416
Ni 7.201117998365961 5.987559750021601 4.427201785137355 0.5196230342196728 -0.04271322259781031 -0.04798269852686575
Ni 6.25317609156271 7.124707053889587 6.157844607379862 -3.081299502875029 0.24768927992500567 0.5580461140825616
Ni 6.9471863961444145 6.0051751684866534 8.695250355983415 0.21279246804782062 0.4236085290955608 -0.6452476489007339
Ni 3.519160892697899 7.875421344031616 3.0327048371641303 -3.1592111277508432 -0.7415593735502907 -0.45983203020396934
Ni 4.0020743434944475 2.5724553186945704 12.535903325764155 -0.219223568385145 0.37069522603629707 0.7104420833201959
Ni 1.7871701888314164 5.236603770760789 12.250669264366241 0.5532389225019053 0.5531785015776151 0.00034967002993488167
Ni 2.1834194990740436 2.7362275838751975 2.928842656661822 -0.24178242752226747 -0.44903056871309116 -0.3177101891988335
Ni 4.691315935847881 3.036805186021615 9.066972868537366 0.21992779354102124 0.16604081371457854 -0.44026105005057725
Ni 3.537854616462131 5.294692820886441 10.055802067223746 0.10306369866140959 -0.37240218142507475 0.12601490814094424
Ni 2.6262311476235025 5.500230824939618 4.3891757205911865 -1.5362171695874574 0.6245212149866599 -1.8333011978955072
Ni 9.284264400351605 2.128184239697083 8.141598218413591 0.8804156564302772 -0.36661539953996863 0.13300265231268704
Ni 6.981766531600875 3.1608846613100146 4.706463336580759 0.3156615341999209 2.5114000889983075 -1.611578517237592
Ni 2.5479052816675503 1.9307892997997835 8.867614669336731 -0.8376877785444476 -1.1559042179557382 0.013612191466795912
Ni 7.1199290459259785 3.5369622258697064 12.711941313722955 0.034612447867546844 -0.5709101145294232 0.24712749388426472
Ni 5.382230760562112 8.344130911232071 4.0080515013166265 3.1480265718889333 0.2292724679807148 0.8023577357845858
Ni 6.025495645934994 8.590077476798482 10.594842238416147 -0.28326846258119603 -1.1299569019623572 -0.6971736483460638
P 8.1715834718926 2.4533862447532226 10.710404960988091 1.8032871680319202 0.9297080749075021 0.8027976515354819
P 5.527606765509316 1.2329212650529096 7.417241056248241 -0.9438203459391681 0.731376776590334 0.42334396258026447
P 0.3178425713892365 8.50728036214507 1.4616660723767994 0.8279453544457032 0.22442413874947803 -0.7484707559581433
P 7.50994091775697 8.203932630867998 8.96958609727134 1.0904022795981867 -2.0263720191446843 0.2039887537132616
P 3.255087643222858 2.4240767912332704 4.863495264067978 -0.6694761824307953 0.23923703539259442 0.7623763102956418
P 7.772675581343373 2.355028069144401 0.9917276089646937 -1.3554879006227687 0.6627103244618716 0.5267241640408283
P 4.01081233471194 7.191961699058268 5.184810722179401 -0.3480587195837038 0.5742638614930046 0.4919962736413398
P 1.5510678069876909 0.7245793302399227 7.031627926379078 0.6349681213515967 -0.14020431226744887 1.053113313339741
