# total energy = -381168.2834195985 ev
CRYSTAL
PRIMVEC
9.25633323150164 0.00000000000000 0.00000000000000
0.00000000000000 9.25633323150164 0.00000000000000
0.00000000000000 0.00000000000000 13.54757932880871
PRIMCOORD
 96 1
Ni 5.063325408604861 3.6758102984711525 11.721528157913596 -0.9299039929683921 -1.4297310755080603 -1.1154556230223884
Ni 7.00236062765922 1.6109629967682269 7.355712821908383 0.43071145868892924 0.05030543312277143 -0.3792071201620501
Ni 8.580028593432237 7.727640625888205 4.091287299511377 0.7203256609824948 -0.6293536033782967 0.5516026724500629
Ni 2.466553655645131 1.8227849287377516 4.203732311195199 1.3781724867044782 0.08292759003316685 1.959319705580877
Ni 7.049577183985761 9.159502829015533 10.819774313443334 0.41768650718417094 -1.849552112536731 0.9549226264999167
Ni 5.369358301227497 7.671093685563009 12.968027657900926 0.6150086475105343 -0.0932801369120845 0.11794730064146139
Ni 8.883284586055275 6.2839673414292445 2.0230734693756025 0.21193834757764143 3.077248986954739 -1.4283401086978045
Ni 3.678781581470725 0.9671017065275275 10.926244361961349 -0.7154279665705614 0.5666968477790241 -1.0499829952408755
Ni 7.746819748552114 4.379939575036515 0.7655070972565313 1.5012306262099437 0.23768794573791968 -0.31466728860745163
Ni 3.332122641853933 4.523968121682459 4.001588801357615 -0.6845058230704082 0.6743157699112838 0.5512005519156378
Ni 2.2376445323447314 6.894903854008014 2.4802770954431566 0.021208772867131215 -1.7295888099065053 -1.0397780296834156
Ni 1.2051745998266088 5.220858945582195 0.9512122847298136 0.8409749339361516 -1.2515849938895156 -0.6442166365330584
Ni 3.1326856838826265 8.992555601039554 8.521007435207396 0.19829093199753592 -0.2577173535849691 -0.15856635971440433
Ni 6.1004605331223125 0.7121221203975453 0.5624805332190745 1.032602594980899 -1.2458195521606479 -0.576088059185937
Ni 1.4242997787950826 6.257707123766356 4.743468182150879 0.3383520338189011 1.657013766752256 0.14143149980633063
Ni 8.696334421748839 4.416955652031189 5.616393176458623 0.37388905038324644 3.2865113303621136 1.1162948310942322
Ni 5.578616228864059 0.63553984657523 5.451112088482403 1.6647090785139846 0.6828230360513465 -0.5122185142254856
Ni 4.679937338326686 4.313127361046127 0.6574653233387422 -0.4793490171909745 0.9394142464516724 -1.0636154984226456
Ni 0.8081186277504008 2.767532590268495 0.5036352453275408 -0.37324036105565395 0.1604427508015108 -0.6949910388724482
Ni 0.5447685393882895 0.07296212185616943 5.395608336923721 0.6982666242999264 -0.2619627591248843 -0.21562685217282218
Ni 1.2104136844925215 4.879800087631265 7.379163742405009 0.4767740573749466 1.6178995743596136 1.045893398552534
Ni 8.229778196482629 1.2027679531602882 9.396899084348046 0.8360260745713086 0.2314692185217175 -0.5984350594225694
Ni 4.806304800975171 7.649665273899425 1.9218869359234936 -0.16835480655973586 1.1154602510080789 0.2711266850123395
Ni 6.408853790744609 2.0019227477119785 10.392117829004862 -2.467293842707712 0.41921785622703284 0.6501497141880417
P 0.027940242162646838 0.6386407182414506 7.471516956958389 0.19000889449440178 0.43846539160273523 0.015534605300489375
Ni 0.08200926205486779 2.245882669010213 5.096057654533485 -0.35448184950122824 0.47321770748225594 -0.034258406962237774
P -0.03201395446206074 4.532770894681193 9.278141253331798 0.5068965877919399 -0.9315626116177375 0.9160907412343835
Ni 3.79025560378802 6.155100668781118 9.014559756636388 0.5189267794835966 0.1595986576336606 0.30314540401078116
P 7.234500211292488 6.928309961003207 0.4276796252718021 0.4121223828328322 0.08193308733038147 -0.31573172531622395
P 4.407347578032572 5.401301907556235 2.539290848601333 -0.8933920140852872 1.6210399197608079 -1.7645743248427546
P 2.194186047350984 7.042755266320076 8.04590761427575 -0.9659333757881235 0.28463680368363237 -0.7468643307029718
Ni 1.9459126747200368 7.030731289321805 12.628660857683085 -2.781501675180242 -1.5993300388875424 -0.8747062647503259
Ni 1.6438322364301645 4.06462258008188 5.332110815899523 0.47608500172772206 -2.838082399788764 0.9327664021178517
Ni 6.538960812059225 7.208212224629604 8.473699241180869 -0.6875494949927384 -0.1792413715652526 -0.08783042665142292
Ni 7.818000951875206 3.8727943281094785 11.18041124202478 -1.8158251525979308 -0.8700425407260692 -0.5928948463306306
Ni 7.772672687548393 8.616961363426924 2.117798156528641 -0.44071279287601517 -1.1912116350077808 -0.47229185323387696
Ni 7.000999946659416 3.1916948088741366 5.507335057140979 -1.7873306447026636 -1.7985977329760507 -0.2121170392473508
Ni 2.3640582766598772 1.6858837587574478 6.621176490347396 -1.5148754706868877 0.3798241849207588 0.17635119450165113
Ni 6.153378990781365 0.8080603128504091 2.8634300548546983 -0.30674597687784594 0.553756228457956 1.0129807069849135
Ni 2.802225327596837 4.2089195603944525 10.199783255599199 0.264795343477673 -0.15257311824544692 0.9281715836583176
Ni 3.209855734871524 8.409175192790153 0.1496165950784743 0.7586551526903128 3.505248960249776 0.5172391073685286
Ni 0.5421295587553359 7.315863381280783 6.607953818182631 0.2288484930694188 -0.2452678149677066 0.2637746155226425
Ni 1.114888324506265 0.24965349193074843 9.805426430322605 0.8413572569762349 -0.23170961666729772 0.2519490836426242
Ni 0.41311848730723033 4.276611126051381 12.170318702615694 2.360236449505877 -1.260705725243861 0.7430053619681978
Ni 1.3712332198027173 6.209907418439899 10.008382646226737 -0.25861209748509656 -0.3657761914681249 -0.7202611262931465
Ni 8.838974518394982 8.14367578382835 8.687913935316717 -0.2820595298747594 -0.5159134465785696 0.8342173034973439
Ni 4.430090389029299 2.08105514136726 0.19540119663855385 -1.5822887671345394 0.05841469249346714 -0.7965768674367507
Ni 0.9350007425321459 8.579130729099033 1.2989347770464523 0.15781379781909596 0.0012390146134236724 -0.07357571650462166
Ni 3.4863053861650832 5.678880831516299 6.533942953759946 -0.5439135313359212 0.8176951374726048 -0.8712571298594608
Ni 0.1207090660826333 7.8040331448772156 11.212126216920218 -0.025326908800562833 2.0798558499954374 -0.9903560276068621
Ni 8.032794166844303 4.8739130596321125 3.2979547386255152 -0.1165121108568316 -1.3358657555164672 2.562870231853141
Ni 8.802254644066933 6.2083801234401195 12.532811526030208 -1.065111623352198 0.7001419869457683 1.9462019372519963
Ni 8.329172703801662 1.3431217354734286 1.0378784080840113 -0.10758678334274374 0.4837399471698185 0.2418544184107835
Ni 5.21260229625005 7.285937655618421 6.230937807770207 1.1593834347535903 0.142328043478671 0.45165463659949956
Ni 0.9161511453348579 1.2173559344915228 2.8673315993541366 -1.6437592157351948 -0.7396017356032875 -1.410294049829371
Ni 6.0056571671359515 4.927201770624444 6.964119937764723 -0.26219235863718715 0.47166938915852963 -0.21302592421486538
P 2.458667259646266 4.806369595308497 12.59552318435452 0.99620245908531 0.5459218200152017 0.2344560690641833
Ni 8.715744952746046 1.5921726401042637 12.241362912205473 -1.333765935564645 0.6543979479414342 -0.4427894728993858
P 1.039190030517156 4.736798993985172 3.351346194917834 -0.2688648855613563 -0.6438011462621944 -1.8903946004743895
Ni 5.115790305930646 7.858071618869441 10.356880819276599 0.4298010310595179 -0.491640690074134 0.3615017324624871
P 5.219229830915764 0.3990682989425851 12.095238731693163 1.3714865900438702 -0.6037495296569473 0.28375157286520164
P 7.43562182193022 6.438946130406947 5.508107035340869 -0.44591079213718693 -0.21650719789524647 0.5809554145805672
P 4.6761144726605695 3.194221787873773 9.350511895488053 0.9222716732341149 -0.27920380559351915 0.9940100794196817
Ni 7.548910085580587 8.589423771764219 6.61407688268175 -0.1522998099794022 -0.3510807942394792 -0.7219030327719438
Ni 0.6912527912672145 2.554081543632538 10.47219807119334 -0.5086490517066724 0.7772452569876744 -0.6235243982910293
Ni 6.0919909881235315 3.251592541865519 2.0031853115784637 0.7772180032941648 -1.4948357784271933 -0.7166060460390626
Ni 2.9010737112492824 7.927632963859432 10.833701392574662 -0.6861690697054441 0.5597798089442166 -0.7887342314638803
Ni 3.252083127532115 3.805843269119111 7.89211548723121 0.46562344007476586 0.02565626711552356 -0.9881325375929821
Ni 6.367070702083954 5.951109594810466 2.147386026024384 1.2088321763030214 0.49392074435756217 -0.41992490959638645
Ni 5.761974935837678 4.410790934032076 3.9192879648027894 1.2373061153729983 2.295682219773575 2.0518935604545563
Ni 7.964084404520855 6.111540364120718 10.176115736902606 0.11295370408161191 0.5455366687616411 0.7077802202173166
Ni 4.321226652711628 5.831471486494345 11.85864314919387 -2.103264458727365 1.0698853905917574 -1.2510733443604196
Ni 3.405654953843354 6.285013307095761 0.5604645038193646 1.0050874202797657 -1.8885601183688119 0.8034818220867002
Ni 5.508416196874157 9.29632069199585 8.457048948783264 1.000345020498774 -0.7318886832297459 0.46678943535840894
Ni 6.481580801734146 5.457598926881469 12.355554593989044 1.10800405184035 0.7277502355813402 0.5274168192324787
Ni 4.588086742673235 1.722076022085574 7.37881107610506 -0.6353283329044929 1.6852347092711621 -0.18930904021389977
Ni 4.624889924001272 2.6320383829546556 3.6145352230799683 -1.068886774123914 -2.8998117584777607 0.7304483512387937
Ni 8.380341714460968 8.70263798474793 13.360487860477795 -0.4493385868718133 -1.1584274985982241 -1.6887578919330721
Ni 6.172187860111993 7.863542111868654 4.065181662615133 -0.02107610394400886 -0.4183645070878021 -0.08836907276371232
Ni 3.7385312131287955 0.7117814873309276 2.110048754263089 1.150262960509561 -0.5585791037678961 1.4513820781189326
Ni 8.214190531151539 2.6890018582797937 2.845709730323914 0.12025126618428968 -0.6719953493082234 1.0975198644795743
Ni 5.858583286823778 5.167560978256531 9.624674306815276 -1.0611775784051143 0.4353810962504567 1.155351430776062
Ni 1.3938742111327933 0.31095633632192865 12.25648128143663 0.738480991735283 0.15681929511631057 0.4883170250175397
Ni 3.7171213141318757 9.084489503692993 5.9715697940075225 -2.441304617732802 -0.6975906812788244 0.8397305200060893
Ni 0.06395756079079827 2.8795527362523785 7.792309998712235 0.025629270532330054 -0.7740082381076153 -0.6465820514414413
Ni 3.63815553447657 7.504683324920284 4.204436718161764 0.54395878275156 0.0983305548517984 0.5411791631238938
Ni 2.493526610974584 2.727758125940884 12.103678656425283 -0.02156358510338867 -0.6058624622348922 0.8054088639060839
Ni 2.442626033981907 2.0186026603762457 9.080766606426863 0.7209450397340488 -0.20752350633939742 -0.21513602857933273
P 1.623588635433077 8.517631650441215 3.568188762086636 -0.27088422998423023 0.5757689852836213 1.2563682742107718
Ni 8.372557138128753 5.917166620482017 7.863556922001985 -1.3102909923711563 -0.7142329178211957 -1.330895298885069
P 4.294485105715475 3.6652858474726666 5.892763223285527 0.6195003647333008 -0.32029851875130005 -0.21771561638105083
Ni 7.141103807972593 3.5031241438293304 8.843913697860938 0.8703557010911139 0.08519401746984037 -1.268419806058667
P 2.2203259326805567 1.1439902365020782 0.816721463949163 -1.0249813309902154 0.22356410474202787 -1.8070564052663654
P 7.4268190489314865 1.230536953156293 4.594336618939002 0.9270369558332421 -0.053134932151766553 -0.3510640820689309
P 6.618000642381186 3.0981965858875884 13.0615740138208 0.21531086359430016 -0.6822455662813218 0.1728184987580443
Ni 2.489037289308563 2.9354517332443364 2.0962845865984026 0.8593824899090619 1.4591074717876484 0.6059367671162532
