# total energy = -340861.32097043074 ev
CRYSTAL
PRIMVEC
9.33341631078561 0.00000000000000 0.00000000000000
0.00000000000000 9.33341631078561 0.00000000000000
0.00000000000000 0.00000000000000 13.66039820701383
PRIMCOORD
 96 1
Ni 2.891016414831157 4.042694671985372 6.4639910366976165 0.7392600359931526 -1.0602118720577354 0.7526236017842522
Ni 5.515657123915786 3.900266736817467 10.837695323409708 0.6076241821210051 -0.33107786875499107 -0.30683853659165217
Ni 1.7237886858558589 7.8475458923400945 10.68207647075997 1.8378746761988025 0.9880152952888275 2.4845217765502245
Ni 7.037060007269623 0.5497307627156933 10.17653196824558 0.9514994597509807 -1.212614783273905 -1.7289951421865644
Ni 7.824987024758126 9.344149888161747 12.403122998860105 1.1916374096912896 0.08417303240449375 0.44495639864371755
Ni 7.678471053181077 7.562307351929455 7.041020175873276 -1.676856769620112 -1.0424506914195724 2.4954474223237924
Ni 3.867982449284978 5.943584935155189 2.584437951028127 0.4631335837733766 -0.6537099207354741 -0.7322470950104292
Ni 7.165030480342176 0.230737921680236 3.259397962402295 -0.1970604020245445 -1.4651400511349735 -0.5264153745511579
Ni 3.9296949989134307 0.9528484863231611 3.4389374280954055 -0.8074636895525834 -0.3930149725794199 -1.1832939228226007
Ni 5.623252748857832 1.405397850182022 5.001795613994575 -1.0106255764891756 1.4825736732303887 0.9986403791028414
Ni 4.861468630871642 6.202027236911369 10.010052752203876 -1.3932111262051554 -0.2619643017867811 1.0724125278889853
Ni 4.935874626884653 7.552115261155972 8.115478411952022 0.9529472479411008 1.294722448508938 0.35567689825059384
Ni 3.8527409802070496 7.227349702040479 12.418531536092654 0.28593315389755275 -1.5116271389529192 -0.7040626621564133
Ni 3.5876159522660593 0.40306452313365015 7.766906107473962 -0.39079456788933337 0.2653998098308913 -1.0223456931395811
Ni 1.9939537586848355 1.7586023292488004 12.95121854701214 0.968045794145436 0.2995245194287422 0.22546235020600525
Ni 1.3700055349686082 3.5750811739613084 0.941816388068347 -0.6721012787584683 0.5823209274695261 -0.9008726387330485
Ni 7.252027255158692 3.9377497373177492 0.8140185832002905 1.5806625443850262 1.052052990396027 1.0301646749633675
Ni 8.66176514399426 4.618389132607362 10.309734754585179 0.07740048956735057 -0.08228070047778734 -0.0026451509323309284
Ni 6.1402960204499974 8.032767541973586 11.389534504903544 -1.30323639951722 -0.5627003250251212 -0.12761567696916087
Ni 9.513738065226022 1.7378448110434648 11.510101712040631 -1.8632267818103458 -1.1115817418892793 -0.037635550964586796
Ni 2.237891931263366 1.1313500761060042 10.413416878005867 1.9061940294004915 -2.204765183777029 0.13727891109053778
Ni 7.105492616748724 6.233378182797934 9.671821873162646 0.9388925696202475 1.2435446400835422 -0.85952672879641
Ni 0.6665618032441503 6.734461312244811 9.1313069258588 -2.431525683969167 -0.6844142917978664 0.33829187000492705
Ni 8.162978034996353 1.3954764284858567 5.086954639110267 -2.7144863855019574 -0.23202997612119391 2.2807387110898656
P 8.872271018815814 8.185844905321476 3.430864022858168 -1.6611113338603973 0.5578905623413037 -0.549611353051647
P 8.323755466923112 5.346731619420117 7.7023337990424 -0.4706502038653959 0.8660298200222505 -0.0587849313486923
P 4.867871354562677 5.679505249857633 4.459723852825328 1.192749926029178 -0.7455715800334772 -1.403295764134667
P 4.19179599992163 8.39636011355949 2.10168005145731 -1.2059119173324329 0.8489201569251572 -0.8618643757906511
P 0.7490458712026274 1.6869870247571006 1.7315783552327353 0.07223257221316592 -0.5953085979784457 -0.3683465232984624
P 3.0112681524919234 2.787004821809458 2.1658426229063115 1.174529032145777 -0.3383993421170688 0.7180949718797633
P 8.868098981658536 5.2436627014608 1.8453695020204197 1.1488485966605375 -0.6364534476478717 0.20338480158067554
P 1.2006040262335178 4.626714540088998 5.21455644223268 -0.141628189198169 0.7449483446271815 -1.3061648860179247
Ni 3.631025672217955 3.6690406774564135 9.49621737584875 -1.5929405904214309 0.7822781914258914 -0.13067194729698142
Ni 0.9173544368703416 7.497748110280936 1.9428775704533254 0.5967975238191463 -2.6797024450535525 0.042393634474862475
Ni 3.5197713480238897 4.985015064542519 12.065506258621893 -0.8250196961584758 -1.1707345981003514 -0.39528757066368053
Ni 5.623831420678304 7.699032569640768 3.4126545273462034 -0.4764171882561602 -0.14528352656256913 0.8329070693263527
Ni 0.6034716413463146 2.952962299871091 6.391631858914115 -0.34003173551416926 -0.8206344226065866 -0.6152649864957146
Ni 8.782940889884488 3.3641179617332506 8.476741362789703 -0.7240136513570435 -1.225532776887154 0.24256121466982097
Ni 2.840765300614643 7.638692032231823 3.706721546385631 -0.38698573566620453 1.527158658929615 0.7577539810322821
Ni 3.7641761914253817 -0.04211330840570805 12.492065791008374 -0.5731480027210065 2.656465843123115 -0.8610727331272912
Ni 1.3268758175104898 4.72535008523018 8.107869810854455 -0.1978080788238464 -0.5662253074592442 0.055936663266619786
Ni 3.3912782036296205 5.813057105972807 8.103744440779474 0.22839726446461311 -0.5335969799012616 -0.03361640250286469
Ni 0.5723512308462919 6.722579873092205 4.357462275389735 0.957486787682667 -2.283174574224868 1.0215676773229763
Ni 4.527229654050027 8.542904085385917 5.675212811628032 -0.12516155900171347 0.11231684182856141 -0.12826770873086296
Ni 6.057125946381766 5.677993236391237 12.155801462815102 1.5926390000206119 -0.021376408793247054 -1.1106648865019646
Ni 1.3361065663886718 3.1416746472603356 10.176463834305427 0.25857893025431594 2.764576360179813 -0.9112277567151275
Ni 5.727189674547858 4.5082361515554865 8.434586054009928 0.13992303358160418 -0.3232866548453464 -0.6784837852460445
Ni 2.125685598590459 2.1769913888668664 8.089619248310068 1.5085893805678599 0.9684042059261192 -0.7201716519031339
Ni 5.170675384749594 3.2268234056179237 2.3475259743601073 0.8513706753481789 0.11709215173001769 -0.8609053543114915
Ni 7.280083505035148 6.599014772588411 4.824360833713022 0.11575337831393614 1.324750619439912 -0.8597954090767644
Ni 2.628458076416456 7.926254593340812 8.643057244043371 1.7758195587392704 -1.3649950687822556 0.5395894500392707
Ni 1.239123035960775 0.24328390008473783 3.1495548507768665 0.8372936284298225 -0.21406259300949584 1.0794606929850183
Ni 5.070957163299141 1.8250842546879213 9.19258733830519 0.34130983089564443 1.5216027621083923 1.1527949829027955
Ni 3.108569019079434 1.7924452973299814 5.860652863206669 -0.2978167927090161 -1.24847061663025 -0.33945735106793795
Ni 7.056025509514786 4.447774279732571 3.449483255352693 -0.30115537016394583 -0.26291612417708915 -1.038189087929741
Ni 1.4920306217566286 7.101311246174988 13.28343963919527 -0.12737450749263224 -0.20728876462077203 -0.9787796356231724
P 4.268918020124278 9.259178464716884 9.772621837580724 -0.06100147938403687 -1.6222599082108384 1.0692500710006037
P 1.2224442207481245 8.986026698620952 12.518689361458337 -0.5013921130339429 2.297975386683126 -1.1791968699350919
P 4.930647913667483 2.7215495721808525 7.073381930762377 -0.15917391139141618 -0.2968102058213727 -0.24251956279860815
P 6.499184550140449 1.80013603249239 0.17106379020647985 -0.4821443205479245 2.2006133663921843 -0.19010839618674355
P 2.451393832768335 5.571302952845738 0.5569492270052646 1.6320894927067504 -1.5840080638184912 1.0646930477575405
P 8.354070403582703 8.340910286375184 9.399965585271255 -0.17291697200912157 -1.2449908856117655 -0.2584619450604775
P 0.8455375305831225 1.0527253758534203 5.240880410014303 2.867269819985997 0.11372297814746865 0.6438132304470525
P 2.248298690615411 5.417460249348189 10.09648205529967 0.365190494167984 -0.04690026409596439 0.023805587060029967
Ni 8.148697907813727 4.641237336099566 5.404176931043408 1.905421155790209 -0.5414578707065772 1.569712987352058
Ni 3.8316567924256404 3.3141281831775955 4.276661022418857 -0.060463604602695876 1.3394858687675577 -0.292813940177786
Ni 1.0529493778484418 9.15778956172023 7.8518056636120885 -1.3320132145395962 1.0090713446281783 -0.055713234401904045
Ni 5.495804947106997 6.191191140402198 6.3630678711822775 0.5534960328180338 -0.5070595957323655 1.0100244525700668
Ni 9.22389815050098 8.544490766183987 5.909870768221145 0.32908834912878804 2.028993001707299 -2.8163167259768978
Ni 8.485858243987082 7.060393548417708 -0.16295771801163544 -1.25347346916148 -0.7869298312652899 2.5928199841376958
Ni 4.804422789472806 5.8992792072232065 0.3861757060506669 -0.7303557915249873 -1.11377129334143 1.585920707460172
Ni 0.9261987823071113 6.862105115741289 6.897545031378645 0.6923098924958593 -2.0091903651590752 -0.5993418875075548
Ni 3.154312093146138 6.137561329427442 5.661361088260883 -0.8773719845079472 0.6695504873121566 -0.43001417551158844
Ni 9.005486871938455 7.075289681086644 11.416609812710135 -0.49635197950687415 0.42594180521442776 -2.347703607146189
Ni 0.22515840532090614 2.462145928529372 3.764259258831869 0.8183417699176679 2.4940834520967305 -1.5286149317601674
Ni 5.522143848354954 3.5707224684748464 13.193936842059449 -2.4224823428199764 -0.028344098360331832 -0.601661536779667
Ni 1.0741362332109021 4.0580854757266485 12.241834095711381 -0.5344063631764345 0.7464807221113079 0.707241316994711
Ni 4.342773344566193 1.5888741509376367 0.6922772322726307 -0.5618708871452903 -0.5006390369180024 0.1438398521375071
Ni 8.060749124518368 1.0181264010390412 7.636381078316517 1.5114762151973518 -0.960875501649242 0.49643271214613854
Ni 5.859602853855005 0.4993116470029133 7.5684618067426745 0.49742130131165296 -0.7748088796320397 -1.450792781274366
Ni 5.715354902477549 1.3213597683830824 11.84019105190447 -0.9244401416403434 0.786004234127227 0.22089915631535503
Ni 1.845879106559094 4.581354136097123 2.987679809074502 -0.9066239393945289 0.6100898700526783 1.1282854277972052
Ni 6.563659791040834 9.238915617583888 0.7829103061416648 -2.147492832418121 -2.110107449791127 1.3264213222741157
Ni 8.700013484644197 -0.2671335791630175 1.2771651081069655 1.350060301849294 0.3193479819125726 0.549553246120202
Ni 8.560964246234535 1.8968022267606726 0.2949294267202612 0.9806503702833239 0.727717839681508 -1.0454002609661996
Ni 7.199414786577993 3.0651219654617012 6.9294279820033875 -1.6481231491308457 0.23517237840491756 -1.2404282059417477
Ni 7.154371718745732 6.383916856868913 2.125285195024358 -0.627148625307178 1.41215501429751 -0.9750214541323209
Ni 2.320763336004901 9.136994709849057 0.8681281317810515 0.7099967682526611 0.48042039587828234 0.48742588066183795
P 6.297564087788084 7.2626486830893 13.535514684242962 0.5242067969356133 1.1456390885843044 0.07285323651630032
P 0.42953129218709896 1.5339283282421283 8.998391608746145 -0.8548164678049341 -0.9411098889865405 1.4938649298734916
P 7.027138585573459 2.6035471878867615 10.140769116398733 1.0198702350158952 1.405323078977341 -0.3474995046461241
P 6.881546622225873 2.2861456943576033 3.538453114408692 0.10956858965946292 2.134958704506852 -0.6881017679517826
P 6.6963436394253 9.055560651242244 5.6237268864139605 1.090973064499992 -2.0068100378523566 0.49706031842780846
P 2.4397830626930483 8.173599462926962 6.039139519523178 -0.5387674683586076 0.5811626454953669 0.3093150231566028
P 3.8357074951689483 2.6661930791611375 11.676471727109764 -0.7346096817053348 -0.22023735436164005 0.16375921676925348
P 8.374305250466321 5.098546742352636 12.250317237931178 -0.31565073556664347 0.24023642319138624 2.212476436378357
