# total energy = -381174.08122180944 ev
CRYSTAL
PRIMVEC
9.17468505895968 0.00000000000000 0.00000000000000
0.00000000000000 9.17468505895968 0.00000000000000
0.00000000000000 0.00000000000000 13.42807897516923
PRIMCOORD
 96 1
Ni 6.959099488720195 9.181107272488202 11.680897911257562 -0.8799011786877041 -2.192440857883721 -1.1908136282384136
Ni 8.760310345284573 6.291338390875177 7.293944297035467 -0.06501857096322997 -0.5182156123491849 1.7694352524794816
Ni 1.0973657226419196 5.745059297022382 11.694849854726407 -0.8500131328790199 -0.18873259888513946 -0.29520995121378835
Ni 8.727116334979925 8.547668671201972 8.977100811921007 0.8672454375969064 -0.3678734403167858 0.907144073564057
Ni 2.3046900449248615 6.661931441797148 5.155670193324511 -1.6750801373356639 0.893357561302926 0.7793394205125416
Ni 2.9185957418610093 7.72463520453554 1.1415840344341492 2.209126288959202 -0.4767072086927531 -1.0917297401603583
Ni 3.362237634697191 8.57144945470381 6.1533905797260315 0.05555254045432368 -0.214296820507489 -0.5954289256063939
Ni 2.031422052408562 3.163569005858918 1.6605565133422993 -1.9485264716201152 -0.14008835551487486 -2.9674744519320573
Ni 7.171520970362964 5.538922474599812 1.1731559604320372 -0.21509437670811987 -0.7933964128262401 -0.2748948938055201
Ni 8.700940958694915 0.3002690904506784 13.319177371968376 0.8037409892853576 0.09287338839196908 0.11456347177089303
Ni 4.229942642594507 7.82698799031737 3.8258610739796124 0.00922486103237766 -0.4054092324787147 0.5549044831297864
Ni 7.375547615237145 6.886757097550444 9.83851198591313 0.294917359674034 -0.6704799411049613 -0.1419413495632136
Ni 7.02213874930705 0.6504870009402098 4.785713865541053 -0.5547931543629026 0.757825714810482 0.42959817102009246
Ni 3.3336951896839895 0.5904341003185736 2.4110246439936516 0.11530780613608528 1.0703618160075439 1.1743896783544356
Ni 7.839272893522989 3.7522810178043073 4.0647469344846705 0.3145983830427292 0.19595097101044961 0.7674961480207105
Ni 6.513329068965639 4.96598174615738 8.49509956112912 -1.3868281054969471 -0.1102987829572681 0.20916155616345267
Ni 4.89125393688945 7.864833565913467 12.704815693188074 0.4497103683889352 0.44946688491956144 0.8710007908742805
Ni 6.301806706452182 6.355047403466521 4.147839304060711 0.7907695167263542 -1.5970746671944624 -1.599640885259742
Ni 3.579044615766611 3.74195949718719 12.635271580941188 2.577238327649355 0.6171179805440533 -0.5177834099077728
Ni 8.511667207289467 1.6555260335606412 9.283273812164676 0.07772316301409195 -0.4711759944618789 0.9974347888305145
Ni 5.017433379598084 7.635943524708275 10.147814471207909 1.1230815149987625 -0.40245066407102303 1.4706386123556996
Ni 7.646806351739979 2.962010351247853 1.950965569831008 -0.5052485106655558 1.765541316741714 -1.1281884972080247
Ni 4.962816479834797 1.226123251833585 12.11179157929598 -1.268395637688951 -0.6707396225242512 1.8833852590360918
Ni 6.667326156573028 1.4160484058735352 0.381954063348794 -0.9561133043739083 0.3327894521294591 -0.07146638347110272
P 2.8557674990289925 1.9277205879327608 11.540332562479914 1.053392792253373 -0.5735434383872123 -0.9255963667319737
Ni 8.185598902638493 7.315893813412703 2.559700414305105 1.3272430468444625 -0.6619135395921891 -0.9162146684067576
P 5.637385193944615 4.228713234805446 2.320143884327059 -0.3622895184711051 -0.1665779171649712 0.5509035895005092
Ni 3.5854668952617064 5.047608918540038 1.5234023124450469 0.025751140822175007 -0.03371538997457419 0.46406663711060725
P 1.853910247164131 5.539720672194203 0.27313128970990413 -0.410618544593796 0.3040393765799603 0.35037914018676436
P 1.3885427002645419 4.881033337807256 4.003339850358069 2.0925984943730866 -1.9348363757275322 -0.12317126804456208
P 0.23315443478993522 2.273918151458363 0.6800533407986296 -0.20675217539101168 -0.4436968152050036 0.4079391979894201
Ni 4.3828571173727235 3.7879888917970366 8.87745088833811 0.048314113724355505 -0.181445578305423 -0.8678607025834021
Ni 6.416380172644681 8.444233272590967 3.1022756878262294 -1.0395273471251902 1.4824867699435371 -0.21274438841870458
Ni 2.5061569526859975 4.4408961746383975 10.289869788828417 0.16656249054600344 0.6175542967505234 0.749360100541632
Ni 4.0129154690852555 8.128587410092033 8.245431610820297 -1.7612426893663602 0.0567380761219926 -0.03531487325121015
Ni 4.4709524426754435 1.228618766151679 5.166533937824714 -0.011634241804818672 1.565252637587859 -1.372361793559972
Ni 7.159043398772494 5.069857529648047 6.152208880298933 -0.7059819906663132 0.7619093979615523 -0.5478935990295919
Ni 3.4150929949418245 8.769962113897202 11.406106003563925 -2.5263024600314363 1.8740287575218564 -0.7480629789967633
Ni 4.503660194675463 1.0696031258531224 9.767705437011205 -0.5743595065306043 -0.08386450002513944 -0.7772419145535647
Ni 5.020727091510569 5.569877861766171 13.173079688139952 0.9406946558259929 -0.47470946153643406 -0.14276410257482508
Ni 2.040257274056814 1.3418343789652138 5.391682542489763 -0.630085853558631 -0.41098621234585997 -0.891663975650587
Ni 0.8013564384334879 8.551044955279394 6.990953077547368 1.3064106834801437 0.42734228510638017 -0.8992453875422706
Ni 7.574785074544983 4.6457577158469405 10.594243633344961 -1.7073351407146273 0.4969147939888797 0.9964947935147482
Ni 8.307970851075035 3.6931042995995016 8.200944480757773 1.136596775876378 0.2867901025812093 -0.5589943369284437
Ni 2.581738007658274 4.066807568734097 5.817097088650365 0.7238365023492307 -1.3323793396297634 -1.8708279911963714
Ni 8.099953218228901 7.623264110047959 5.620483589250523 -2.102568718211921 0.19997346190628143 -0.14700359457746942
Ni 3.6295696060230243 5.31453720372618 4.0206350490383596 1.325924070922723 -0.2298579081705396 -1.3462280725873976
Ni 1.442966931642977 8.123486285235929 12.80923278309333 2.5500342564307372 0.6837758868829191 -0.33149387324648716
Ni 1.8125507672157184 7.538691863782548 9.862614800858221 0.7044323867910062 -0.184382806556876 0.009991049774440859
Ni 3.10751168055173 3.011893113554756 3.4311028202545972 2.1346033780499623 -0.4902090998339299 2.572925559206614
Ni 6.358937469903551 2.1361510816035785 8.651509590889667 -0.20756952908598442 -0.0015382910213973507 -0.65069041718286
Ni 1.5071071544289918 3.3293463889973105 12.508564593845456 -2.015462571321032 -0.7539999133064885 0.38087602322404085
Ni 5.58032782797319 3.885084583077882 4.626174350729396 -1.001956587960268 -0.3714038220675474 -0.6366048856240714
Ni 6.729961731020191 8.114394172407874 0.5944975683019701 1.9850639044245169 0.6542871333951829 0.6440073487357296
Ni 3.176000704024424 2.003503485974884 7.372015361514843 0.6140380560671489 -0.4868887772114453 0.798193062883935
Ni 5.018837106402013 5.2976557833390725 10.758133783780297 2.168836073980587 -1.555123005353025 -0.9239619164523443
P 2.247742775173353 8.69344524105564 4.0258187460594 -0.6343842238236688 0.10006553526503412 0.21976504271091182
Ni 1.8966367551765 4.330781605352494 7.877461602337823 -0.8275347492708458 -0.943192225436866 1.696973852084961
P 5.497819885831204 7.067388295692493 5.82100550445738 -1.2940673314234423 1.071618057012148 1.0253076039813827
Ni 0.7920624825355859 2.3235164985304833 3.6039080120976226 -1.2107216800162504 0.3863974672629023 -0.09781813399175411
P 6.492621804936454 -0.18298817471674825 9.30670595763678 0.41273456249553436 1.0922025660317187 -0.6021323057684985
P 3.559979620351171 5.977811880609624 9.159655024037585 0.22236879888234606 0.4922353862353394 -0.35604019512728363
P 4.858683805164325 9.228999128151626 1.0519592891430973 0.6125288185114741 0.33529062128475806 -0.12237731138835699
Ni 1.8903245719013209 2.358958306658416 9.62285642781033 1.155389740213165 -1.762279872381623 -1.5414120835248355
Ni 0.8011334935881581 0.9084864826911705 11.290422400487277 0.6948439717716227 0.006579710100046732 -0.2134876943426323
Ni 4.351287026311834 2.4854955620817765 1.058434781811152 0.48931512726475085 0.4095165697788689 0.2651987495636788
Ni 0.17916691841716662 3.4580672194490045 10.553180495721822 1.1149979666596799 0.17730661643638496 0.14806108930770628
Ni 3.4158636684812356 6.496016438383861 11.583154487216209 -2.2596150417373733 -0.1894262825180544 0.8537468888898394
Ni 0.22397974979694213 4.138938942149009 5.919943472484819 -0.053516226750585254 -0.7710345001912722 0.23217858588391627
Ni 6.193884886879604 7.174044008736038 7.8433271868213925 0.22760176514651126 0.6626709865835039 -1.1580202358574765
Ni 0.051969085674310155 4.849912806311023 2.26331588548046 0.7306206151505997 -0.004020948233935011 -0.504843304807337
Ni 7.767224092273014 0.031113191748238227 7.0913956939136575 -0.2714884392271324 2.275722231711881 -0.003534238405503591
Ni 5.573052302773747 0.4451061725610634 6.925061407396191 -0.7440590000436927 -0.6466381014903574 1.220900163211149
Ni 5.362282264429717 6.774926862170851 1.8213309407540126 -1.751832966016686 -0.3775526152777627 0.8282999095716445
Ni 8.02880353610824 0.837183583331126 2.2299741627474234 0.35809913453884135 -1.6172513992526534 0.6515728197878133
Ni 1.6260844694181265 6.852590570636537 2.7159636491057637 -0.6835084921541454 -0.3866550917996631 0.7695224344221199
Ni 1.1877455445078946 0.020951310649999062 1.7458113561711885 -1.7234438733510318 -0.025616672126839754 0.6998154568442851
Ni 3.9410868602751123 5.710241367473973 6.8454462434324945 1.3336252962217228 0.31357019888853094 0.5464319268824008
Ni 9.038982227261746 6.874903404539497 0.10043160674429835 -1.4598680041027567 -1.3050695960712169 1.427194682239452
Ni 6.936226999032662 6.719695258513033 12.099638791554261 0.32000978386628753 -1.0314833937747911 0.2064079046777155
Ni 2.5135333994203637 1.1164215433723663 13.521001174975737 0.04753352680458911 -0.3041687030689729 -0.2760125523497311
Ni 8.71705170554261 4.282109901464666 13.136569029210337 -1.6068823973135036 0.17776375857846158 0.09170405067421625
Ni 5.499361232910027 1.6299194877451975 2.9319274766243275 1.0409507098352784 0.22016356370091114 0.2171312046324906
Ni 7.892100729712642 1.9589420409639164 11.694044317384021 -0.08201844795533617 2.162034220567406 0.5551952748973277
Ni 8.975686075495087 6.054759963645857 4.435509717079012 -1.1511577044096883 -0.1684944174613937 -0.6461531914341387
Ni 1.8293129166979167 6.596846226456854 7.628639557985353 0.9642732144768811 0.5053148451271168 0.23238093170270946
Ni 0.736314344112662 1.8584884149756347 7.399367849884453 -0.18698502006641343 0.37736235364382753 -0.08500786960096328
Ni 6.967512674858769 2.7295513575803865 6.259861881601217 -0.8157413561803435 -0.3024157249336082 0.5072714546328554
P 0.2194768144023811 5.350621239803623 9.289491496184427 0.2301859809339197 0.4691185977122179 0.18545881322987418
Ni 0.012595925026880237 8.94213425247571 4.078618140725577 1.32003547335243 0.45284042937748464 0.0050822996189138275
P 4.669988058913436 3.3847064382450314 6.631725626394717 0.43080247574083874 -0.009071366173648893 -0.062351308543711965
Ni 5.722535445364584 2.843730312318186 10.90470121148036 0.3806605647791251 1.5647299323151698 -0.9974808115771016
P 1.934243788962779 0.28174540144982535 8.755657862524627 0.047574407344853555 -0.07394364136700168 -0.696576123971381
P 6.4505833982985585 3.989648467943025 12.534292245502806 0.6986463762368483 0.7815680527327443 0.09613380431079574
P 8.725116253651452 1.748961025529283 5.560433441034385 1.4178104128110744 -0.05507328682505999 -0.8203230620137549
Ni 9.137013736411877 7.841190402686524 11.187241140650578 -1.9176531790800264 -0.05660900674329606 0.44872126500278847
