# total energy = -340861.5118178797 ev
CRYSTAL
PRIMVEC
9.34809780905082 0.00000000000000 0.00000000000000
0.00000000000000 9.34809780905082 0.00000000000000
0.00000000000000 0.00000000000000 13.68188606375457
PRIMCOORD
 96 1
Ni 4.917679104668357 6.987254510195704 8.104547590671306 -0.43123596373383155 -0.35739105272822325 1.6801328692682225
Ni 4.957071989436829 8.236496928069377 0.6382011908312746 0.6290746386852972 0.5773975220259797 -0.5109440183884362
Ni 1.0209525177951546 1.957314097225356 6.73496336862619 -1.9798548494197514 -0.07592467635277246 0.3525530079096315
Ni 8.130844725019239 6.1017652798186655 0.5665639117979951 1.7263731311826849 -1.8971108361523006 -1.815391921715254
Ni 6.5559613149980205 6.249857847569532 6.807094227231319 0.28714774303094415 -2.172778603568103 -0.32849648118106006
Ni 1.2371833715159777 6.6172100527775735 11.837937666463802 3.538423390119216 -1.2217337148560379 0.7573922268174892
Ni 6.5746575109014245 1.9276712786205084 11.234429136750883 0.42496144357902943 -1.7814060516881125 1.5722290689056921
Ni 3.1434194615332327 5.91951476215228 4.375015474903479 1.8312962516503366 0.7648396842344699 0.06966198327251229
Ni 6.0271861543599865 7.388605747654086 10.462716541353808 -0.525066059612115 0.29175413145470397 -0.4047798264248319
Ni 1.3778068090034337 6.108841789968104 8.300471571211647 -2.724880070031455 -2.234325671042965 1.1798301326437166
Ni 2.321300987170784 4.2401944018146445 3.012080554931407 -0.37424411972982 0.5260217386571651 0.1829537874198333
Ni 3.204705591704592 8.698395795960934 12.257492455063533 -0.7750449069022458 -0.08522101405303388 -0.5529442740796219
Ni 0.7570697347655293 5.8431034094950665 2.2405726828794745 0.7844289192203071 1.1400430825537655 -0.48718728228847064
Ni 0.7839399075179021 8.025772104042106 9.731994420665153 1.1038535200070858 0.41977064340670933 -0.9498228433795061
Ni 5.339745727187711 2.6730699130933373 6.752092823312888 0.07243183270816557 0.8371280493862358 -0.08071258465971905
Ni 6.938298521222639 8.3947789225876 12.275990471290362 0.6964097735968459 1.7880222714530494 1.0513287106354925
Ni 5.7224381611344945 3.9039152741980607 10.986157677300602 -1.0117195808843025 1.7515897396576288 -1.179947117837555
Ni 4.547681387739984 3.424554159332725 3.545660637916617 -1.1883194010616502 0.888344681469367 0.14758157856812648
Ni 2.7705892709254942 1.423603140868823 0.0272553143879829 0.26051599937602876 -0.37366176486378877 -0.22954397647454658
Ni 3.657705070346129 5.056236612508487 6.876872169582004 1.5462722398306143 -2.6012547451686103 0.34848243738468365
Ni 3.489542136292958 7.161344138350254 1.9658133878830437 -0.8407021398907393 -0.24673874308627827 0.32521498221631084
Ni 3.2318805124501906 3.6130118140390404 1.0412575213560469 -0.49599485327777154 1.4402839113232422 -0.15296186904343334
Ni 5.194223886373562 0.4140796076294194 5.916047552621993 -0.09609189532926678 0.7203662844124432 -0.20662182046073446
Ni 7.450994953383746 4.902497793594792 4.82469824839175 0.1573268308803484 1.5584749525443935 -0.04915512156841212
P 5.312131445838382 0.7204429521809649 13.267187993305248 -1.1884523270950886 1.4744924388841507 -1.1510168079564498
P 2.088477259585689 5.787809410110748 0.5430151182478622 0.8929726671596815 1.286422927504307 -0.8269829905324338
P 8.067324399437423 3.1178150212435205 0.8143389872470425 0.20225994394761293 0.1923123458165978 -1.3309063546286626
P 2.991241774977473 7.70495473043764 10.279118962772582 -0.10882065574984483 -0.3849579066028983 0.633660972504399
P 5.171208869216471 3.8106399528359765 8.573466880124592 -1.043483503559461 -0.5940009349106157 0.7578120879637271
P 8.742612299272485 6.5595322884155705 6.671931013757452 0.720113802082005 -0.8323794789576567 -0.6937417398463794
P 8.264690791491711 1.6597547913247237 8.474546242409474 -0.48297478686901973 -0.11610510522640002 0.15226124343198294
P 8.117860216964324 2.906333001282162 4.784966027667631 1.0973954230865681 -1.2847139152330003 0.07216160976591443
Ni 7.75488292159768 9.254869370829862 9.989556019859837 0.6954448385804152 0.5690229248090394 0.822788749945428
Ni 8.81930409486825 8.020929789303125 3.565389798643684 -3.4288252327733977 -0.4169622274236367 0.8897125083511709
Ni 6.55244643016818 8.90485788732223 8.113399304621773 0.5507164131903677 -0.7612612228545921 -1.0070157476507304
Ni 4.308659871212911 3.103016982185976 12.79149694169575 0.5429398545687423 -0.09393731088010918 -0.9687996415923252
Ni 7.203578844896044 2.2404212436926567 2.5181784737021986 1.2721869864105833 -1.2652100408721179 0.4900088108976658
Ni 7.434355339029716 8.085394272778064 5.874797200790518 -0.5984281174440339 1.3490637422639797 -1.6182749554211615
Ni 0.12408571740109968 0.751735710074288 2.2595222122373695 -0.7526727098546327 -0.3298164855440643 0.01668388841358417
Ni 7.193922259711936 4.182759687999385 12.729763972442298 0.40992074719582305 0.4546232323095203 0.5805157559399873
Ni 3.6814585872414036 2.7990635772863794 10.415677847270638 0.4078643788874266 0.6128334942360866 -0.2206435886611232
Ni 8.047786874718366 3.2246731289294286 10.205538214175144 0.4328966392657061 1.5937718280734745 -0.6426526344800481
Ni 2.8877489825541782 7.012830906191561 7.190132540802316 -0.1976144747558016 4.105574294716523 -2.4343351283935046
Ni 7.44749876474981 1.155817526944362 6.511059596106609 0.8686184066850331 1.2727096916832725 -0.35101291711602123
Ni 7.36193562419788 3.8836579459367226 7.9165582756723705 -0.1913435541454253 -1.307767197508038 -0.05410552359515198
Ni 8.663854574029395 2.20968469762746 12.426313495212503 0.39183817866249937 -0.8027827391371464 0.6611090414130227
Ni 3.791794187365345 8.634866122281167 4.295509901824251 -1.2222440788335531 -0.42905849646653843 -0.588988826408005
Ni 1.8900825767567138 8.40258458437727 0.3848808236772777 -1.300951203027469 -0.6378624121802562 0.9471301270386914
Ni 0.08632314091540352 3.721674104629627 2.6050447391085956 -2.040296085424944 -1.903999592852334 1.078386228973917
Ni 2.463934265717856 0.39569844262698745 6.055944642898603 1.9305117802102498 -0.7368028327019117 0.08951655610459422
Ni 3.3028606201974653 2.2488158356532852 7.87382998955473 -0.4490789054525233 0.16918732976336023 0.6309158056590941
Ni 4.0420708138262675 5.772338308000681 10.197903622577988 -0.4494393741157356 -0.06642624994403398 0.08610547354051623
Ni 6.103064665433952 2.1435001641294082 4.6022032342334915 0.9964379721348839 0.40678143023589297 0.8023435947171988
Ni 1.811792256411208 2.1731897232240143 3.989829903232975 -0.7365084413899444 -1.3763120364569714 -0.6553621116269165
Ni 0.34319391567145696 8.721233199256943 11.844504705274872 -1.0038365785918002 1.3938526164438962 1.4405891012684868
Ni 2.1309363204823204 3.8968761564404293 5.426318462318425 0.4119866285859163 -0.21961669005850568 0.9644596194560744
P 8.106044221153374 6.074375352820178 2.869201421408206 -0.6487813730856051 -0.5280328555499229 0.3709356241818773
P 1.8768830624489103 7.7040573130342755 5.036356947404397 -0.21187124178513186 0.6751071554643276 0.21553223557648687
P 6.263552811068776 6.390883253268911 12.51536908515919 -0.14222854178632924 -0.8966282616343978 -0.8883210273202831
P 4.999904974251528 7.706487818501719 6.015158891535326 0.1731350015571986 -0.891745993841432 -0.28265448314628094
P 8.684448433816994 8.365594160782384 0.22202947888026417 1.4952607817797539 -0.3298743353651932 -0.8323427121824505
P 1.6192868752918048 3.750494290614725 7.662718154272259 0.7894986204337305 1.6992212533582414 -0.411776055237007
P 1.971934522421818 9.207857786230752 8.100743849614759 -0.5015777466821878 0.04935695316657306 0.013737147080434406
P 4.43392438376572 5.357993214389433 2.315385510786947 -1.077842440655305 -1.410019713122062 1.0994435638648485
Ni 5.000531296814293 0.9639478164856745 2.8986853223478746 -0.17216441011381317 -0.5105362414270563 -0.5979115828189316
Ni 7.12040881741975 7.661271068709335 1.6464646004667884 -1.0403986939865502 0.29387426312150033 1.2684398606633251
Ni 0.3260495040280351 4.242157502384502 11.883005781498753 0.044562617101723254 1.110437858092823 -0.9878669426364212
Ni 8.45716812831726 6.56946931653823 11.552643065075802 -2.493266869732706 -0.005314727344694073 -0.12543229616459686
Ni 0.45407170547659653 1.6560529445358496 10.10474328282071 -0.07774887404570481 -1.0613223315130949 -0.4126312041484506
Ni 4.276567850944717 9.171689995255617 8.039626920016325 -1.6439487060381819 -0.43639256823410655 -1.4228194359898914
Ni 0.8089488739680909 5.818817051016544 4.751664363524488 -1.2786913631880044 0.5737545259567538 0.10236178749837853
Ni 8.204236642038053 7.086185430818569 8.733969047906342 -1.0928116603706275 -0.4482918907748538 0.1576451334517156
Ni 0.5594051383865817 0.27107894883284556 4.8473010144291715 -1.0655327700500166 -0.29895784829199484 -0.027823449970171436
Ni 1.0138199190580057 3.9650424867042418 0.3674026849369801 -1.2964929101457994 -0.4981898040465614 0.08856293394207329
Ni 5.731963872947278 5.5612956486430525 0.7065068077545672 -0.1764473537598832 0.14829197437158978 -1.3021310822681833
Ni 5.464038037553543 1.2267695903977816 9.252608065935345 1.029607002687685 2.6299032621432383 -1.1857590965336418
Ni 5.914083517242341 7.7910039720830575 3.8799364681421498 0.4053292711703987 -0.5981396396693376 0.08812018997769985
Ni 3.155441115499122 0.5786781119336061 9.888966746660339 -3.3566721076479165 -0.2594021974865597 -0.6556310490175871
Ni 1.4618088171974295 7.977835057745779 2.862948478688312 2.4516425093237 1.4560941388826212 0.15420216920843768
Ni 7.117922223364598 0.4314081768024898 0.5991158584854125 0.6439065614918071 1.9802883374127445 1.0141978672214662
Ni 9.093212712951077 8.736405162232556 7.256188070548634 1.8564290421622225 1.0920914943751514 0.7504417636415851
Ni 5.225970027017543 2.921832147686084 1.4465452428618903 1.663066400704239 -1.067827222511148 -2.092909854965918
Ni 6.475689197886753 4.602059273525035 2.592881928863636 1.0610238264360696 -0.32648073630261193 1.1328946444344423
Ni 1.4818043987161205 3.7554020420393686 9.822828018842252 -1.2265905287277068 0.30034238734434726 -1.6550669274385303
Ni 9.116124901030698 4.260339552900562 6.444537596272501 1.0192765672959543 -0.05518153026815013 -0.43858623345131564
Ni 4.8609081058076695 0.4377134688709129 11.169536510389758 1.854485031061974 -0.9609778315550612 2.004243562676761
Ni 3.970660693573215 6.435314762833352 12.992633421653958 -1.0677824853161415 -0.5666004314104759 -0.6579388712151573
Ni 6.284894518692512 5.489109636260008 9.212273827703136 1.2155023892343453 -0.3870191600073012 0.21084562873409496
P 7.028386141183193 9.345891800585587 2.9106845408786794 0.8631990354416748 1.5240867048725106 0.5435119250221284
P 3.081301350644172 0.15992352051854036 2.1098423374543045 -0.06066672175243746 -1.098853238579017 -0.5635115080725069
P 3.708904602827602 2.0782130480347205 5.0234004836433375 0.6969273366632126 -0.990799542902184 1.2673612828871657
P 5.3357447412643815 4.770381125243385 5.116355165245679 -0.9177915259755741 -0.16541037921943127 1.3590429649638789
P 1.540173922326549 1.1790195060604869 11.811887321901793 1.0506471111874356 -0.2254474378076698 1.41134743079455
P 8.871485177634653 5.3859814196568285 9.82065271644889 0.5950512305520009 -1.4248094698367268 0.1028487544371261
P 2.555611062330199 4.573052125580904 11.37035889425679 1.160960035212091 0.3299501829084511 1.592505045545909
P 1.6069660821914613 2.223706844555013 1.740404571593239 0.23530144778361411 0.6022909428335499 0.30171895597689974
