# total energy = -340869.5487771125 ev
CRYSTAL
PRIMVEC
9.26209297343873 0.00000000000000 0.00000000000000
0.00000000000000 9.26209297343873 0.00000000000000
0.00000000000000 0.00000000000000 13.55600929333557
PRIMCOORD
 96 1
Ni 1.0856099084265813 6.884013497128427 4.5748959363914805 0.21156193807482918 -0.8171132968272057 -1.0426170417941076
Ni 7.33406785307379 8.472397594268601 6.80996954788404 0.5568752337029119 0.42957785930511827 -0.6019960373009504
Ni 3.07964588816516 1.9175588786902178 9.718398239178693 1.964218171323759 -1.008161174109083 -0.5129463935304456
Ni 5.441553673576351 0.7426568374833507 7.940758093042327 -0.427653902809528 -0.18917817106299034 1.4229220230060269
Ni 5.903732109123543 5.925970394168608 13.32436440861953 0.08831199427353177 0.04616287170930759 -1.9098334259252916
Ni 7.641032135857459 4.526153246313111 12.405483286845696 1.1613125334555032 2.0699519606181638 0.761848719926946
Ni 8.489161982411694 5.512529091444049 5.306933784368722 0.5625514581520827 0.4827019928236074 0.2532773155357445
Ni 3.526690063919083 5.421130758739045 11.890504438322074 0.5222077642277135 -0.758323737492823 2.4876137852119866
Ni 3.9470779363161963 1.7449968259311048 12.651145481583018 0.4729336005829339 0.15018739162208974 -0.518739603173455
Ni 7.920589885759681 3.26936133696903 9.951818725734398 0.6783593438530382 0.6099446027240656 -1.568693802058924
Ni 3.9231446882710275 5.379330933496069 3.3485105518180984 0.7208663639773134 0.14548458682978171 -1.1121946928829298
Ni 8.703162638790811 3.3716796771992876 2.309265754223295 0.31678819160519633 -0.5701863489895213 -0.6170336483603631
Ni 7.2503941058446655 4.629870162570775 3.588451551773107 -0.3681405779352434 -0.4528838810209103 -0.44131571656733676
Ni 5.4493801420740935 7.939086285274466 12.361344783146295 0.3620228950732797 -0.17879554227708563 -0.8099766857824244
Ni 0.9367588134831161 5.435301760871053 11.18961778738443 0.18683743874495565 -0.5610244799845951 0.8894530840421973
Ni 8.846261974045403 6.642865646468975 12.885135586851874 0.73216070594421 -0.24137053679582945 0.20821050510409303
Ni 3.18587283159784 7.810861871212035 0.06086584347090931 0.8199481951728396 1.9106098990799996 0.7465645400743658
Ni 8.12677333573395 7.871750869915186 4.478580358567599 1.342219979869269 0.6218074155999227 0.772063969897051
Ni 3.9766888473070656 4.3287409983120515 10.083623864910708 1.1058782637465985 -1.2242204858336334 -2.4821303934999124
Ni 7.657148177497782 6.1680444541177355 10.529670513259653 0.2632022879589403 0.5795569915711438 0.31880033693921866
Ni 7.354185118845503 7.894656025648817 0.9594518672894121 -2.3565404887115284 -0.5162345773634142 -3.2186596608254634
Ni 8.68633341599744 1.1769619306671015 10.849171964988345 -0.8375283701484479 -1.6197751941157716 1.0499274594125918
Ni 3.8234197340518565 5.707097876925809 0.9646432703580333 1.1404801700911842 -1.4825988700413693 0.2525314385086554
Ni 0.28468153969269766 4.2953233671406235 0.3375486397379846 0.9895489583245346 1.337949377518373 0.18515130929178436
P 8.117103710749758 8.14020337043422 11.543605715804834 -0.5285442479687026 1.0681851200711991 -0.7982552835804382
P 5.732661253320805 5.030159293381969 11.240981649752575 0.32450201530968625 0.016169153560694732 0.22428864161287826
P 7.9395401278264055 2.353006914137427 -0.22424916216935567 0.7055528735486946 0.5689779305037168 2.4185413558943574
P 3.5637754838776194 2.939278870315105 3.5191673920683533 -0.3996448191911118 -0.26835143626004754 -0.34163996054155354
P 0.293549067432034 5.245132469515243 3.240373764830111 -0.15769141330861874 -0.31815473293541985 0.5857327813645525
P 4.1416004113334735 1.9503096391730812 6.457269050376283 1.2945411857360674 -0.30082266941487545 0.46458779972139985
P 1.8095813997000543 9.084353334048933 1.1505269913305236 0.4266730269534974 0.8023219974506441 0.4461319070090574
P 2.3071688163914734 3.3919543985502454 11.480231697577485 1.9275154165860868 0.11796092748821621 0.7235197424397604
Ni 2.14068269657262 4.169386690023686 2.3851389668147873 -0.49739096229434987 0.30676757414440076 -0.5094556067683678
Ni 4.573213940321433 6.981867508582457 10.189889709133555 0.4589935934630741 -0.5601760159413707 -0.3504961253806028
Ni 2.6519039140080367 3.507137785814071 0.16150867109614672 0.15668096976623339 1.38885747722215 -1.6392772687044412
Ni 3.7927899928423465 -0.09315813035538398 11.058870379216927 1.6428824695571964 1.0593279267908855 -0.12057188274850202
Ni 3.5540132379644582 8.504842705685872 8.470648911129697 0.18087325074172075 -0.39664665579473624 0.16474883437603238
Ni 2.587374912796468 7.346655037320457 11.432867206922152 -2.3148127699554393 0.6209990607660144 -0.5206267928938387
Ni 9.112574931105291 8.606012546396935 1.8893280195409625 2.238219606780732 -0.5408369492931265 2.8365435945467343
Ni 0.5409608715175503 1.6865437576597957 8.891901863003365 -1.2084303128789124 0.2001254141031134 -0.12221250367571856
Ni 1.846333384314308 1.2025901417123739 11.588029491965454 -1.3381278120777664 -0.493086421381725 0.854134354136245
Ni 7.867305065324752 6.273539692211574 7.890736307934918 0.7548954285375644 0.41044370957882864 -0.28703178627837017
Ni 2.2684903164546983 3.972604264339605 4.988014918283235 -1.459632748163499 -0.42154521880862883 -0.4942107647941553
Ni 0.9709544604578701 1.8907636439399567 0.6487651493705451 -0.3502487852564871 -0.11744439286311387 -0.34034283899668477
Ni 5.933741290108972 6.207621377065494 4.531895743909088 -0.21877054000812646 1.2725896211656407 -0.04041259948909169
Ni 3.548594913619867 1.9322670822102368 1.5394070761115162 -0.4898789701880208 -0.8401560375792819 0.6195268470958621
Ni 9.194016513946302 2.425593936169157 4.431269588051064 -1.2971482843416111 1.2200990074660922 1.7399652680448228
Ni 5.776980367831693 1.7188128893120285 0.8475787520268806 0.3884705477418471 0.890834537770756 -0.2743073967331663
Ni 5.202110048009898 3.68445129222921 4.93406230095045 0.13319754193231254 -1.0696033405749643 -0.7113653664654137
Ni 7.545891917622173 1.1025317521489206 2.223280188607144 0.8390972572974645 0.022352142442955053 0.5882843441418126
Ni 1.5158989581303073 2.1254650779432804 2.8938964675396717 0.5482183293588623 -2.235071033849422 0.38654993368036655
Ni 3.7964577816294542 5.476267997753322 5.594077188353372 0.13224597665232063 1.0979420396186577 3.1198650218530526
Ni 2.0762833646616055 0.8860571907570862 7.4693342363656114 1.8302413280232608 1.199711959169308 -1.167488837469544
Ni 5.952608173339625 5.34103217936806 9.053434615541043 -0.39355027625759964 0.03164462348847453 -1.0035457868242588
Ni 7.28467311165549 0.39423635310317573 12.893201943555642 -2.6101075675735497 0.23664639184728276 -0.615037958086573
Ni 6.51257578569057 8.113621163820584 2.9452603299078186 -1.8474715758586184 0.005778811465306176 0.09872136253231385
P 0.08133506877269879 0.4286283564473407 3.875649602105848 -0.8384154007390915 -0.6215986420232263 0.11665197886880554
P 6.138702143820871 8.672718139439235 4.994616938100029 -1.0966210068143887 0.08899462216285317 0.4372443747114405
P 7.448093478725523 1.7218508557821584 8.06029466396762 1.05563042333464 0.1877470950434186 0.4543411822927272
P 5.733179930523022 6.2910635719722015 1.8063378147676168 0.5060653501398962 0.45275661141442664 2.519223184587152
P 0.17336507621326017 7.391196442060866 6.482523999077817 -1.860935414673008 -0.41388435982926136 -0.4522020244625373
P 6.250903137171948 7.7206861347694 8.58251276429933 -0.9209568110774332 -1.0157603266125796 0.22394411378926596
P 2.0831465754980876 6.033466244328142 13.41571828327863 -3.0549960890938097 -1.379111967799612 -1.2835648892302218
P 1.9003869584596669 8.947172476155357 10.01398681946659 0.3593579466466069 0.46363751999298863 0.1346368454820004
Ni 5.242224172345667 7.202907355563093 6.717408822520495 -0.45322660907230977 -0.3704684547374717 0.34467951869882574
Ni 1.8572719160253548 3.751434748058414 9.452008406747762 -3.244509789119348 1.7203402947250437 -0.7793728448536384
Ni 4.766171121639161 1.0073452234491511 3.5137175766079127 0.6775381335033235 0.282498674294707 0.7574626750441085
Ni 3.1311986972283994 3.535396431242016 7.467287313835433 -3.8402197363012704 0.7369187894544856 0.1375406493923567
Ni 6.580717003131867 2.8066734863125173 11.77114384716182 -1.9720428095745006 -1.4768550255790567 -0.17768945369710046
Ni 5.232832410148374 3.6127534311155665 7.380135650723583 3.504115103755649 0.19572548526320485 0.48768016276448917
Ni 0.12647665713281717 9.149475109205893 13.219426748518076 1.7739953610463381 -0.6410323252678057 -1.2222679900929532
Ni 2.3102901416976738 7.371421873726332 6.601152884899228 1.8070983142478942 -0.16075154029118122 0.13890024874404466
Ni 3.938427141550644 9.154949006107865 5.906637627665249 0.7939399440345358 -0.9724752906716992 -0.4338854855415366
Ni 8.10312721256858 8.716101782567552 9.106628667465586 0.1784276174147056 0.6293785430789611 0.8417501215392794
Ni 8.326991997882722 5.875890257875951 1.5587648502656972 0.8084453367395626 1.122694821083305 0.9389948995260667
Ni 1.8119432333887222 6.389426998535551 2.017282906700099 -1.2802769625075694 2.03924373290103 0.40437539189756166
Ni 1.1026892077281651 5.254626114734398 6.789283589608467 0.19280882583704215 -0.3027653949635431 1.1626713614762427
Ni 1.9216527237505758 6.484539430492147 9.165244748571878 0.5645666888098986 -1.0742770919015499 -0.08075912162693834
Ni 0.92190056405817 8.385741453126727 8.256666778936374 -0.9826751140228366 0.2251427620830574 -0.20618833246774165
Ni 6.041385333754853 9.013035218744056 10.241578670962376 0.2788104268098424 0.37847692686424494 0.9219371727128315
Ni 2.1097473062975176 8.99088029253506 3.7064839588119685 -0.12403130205201218 0.11668437476863777 -0.9451136108292949
Ni 2.466838035838328 1.5865038922821357 5.194500312485937 -0.889948278511061 0.6499067449393001 -0.764186109810871
Ni 8.209354156001261 3.962999474005688 7.154400848853591 0.21336196739804547 -1.8204287128082133 1.4781490618001318
Ni 0.30426253028569 2.998537740668431 12.050153281164556 -0.4998476513649585 0.013514232436350918 -1.3050605972101526
Ni 3.9945739486906655 8.002161137901247 2.6813925653726685 0.686578903549353 -0.4700524223803969 -1.5515154905074247
Ni 6.696845123871159 4.412933422743394 1.266800526928295 -0.6820473342275867 -2.460449566092369 -0.05862372318047969
Ni 6.507564993433435 1.643799198941353 6.087298454453269 -0.35019839163452593 0.2632765928403014 -1.9512222732847235
Ni -0.34950785408625185 1.0082529085530314 6.383578913080552 0.7969620186903112 -0.0017102978228873769 0.5603850466283833
P 0.9305717354280955 2.9400939344900183 6.753048429777851 0.5012669003099883 -0.4837965114393668 -0.6062159889195688
P 6.586292783055703 4.967353041449193 6.206646078683468 -0.9828270662196686 0.6690774043304799 -0.08576865902638776
P 3.7207772205702137 5.781963373810137 7.9598444878746335 0.12317023960329755 -0.43097396832169654 0.13149444319827677
P -0.12147605317786866 5.055778242334345 9.321735217736572 0.4569737348195678 0.014375037774749437 -0.8035928937432676
P 5.3150797950714015 1.7726441732278657 10.567695109437919 -2.608833843067449 -1.2267280827468356 -0.8348883614224395
P 3.1965983351722618 7.2063250678419895 4.516835580858993 0.5993927953501483 0.6084744459364424 0.2687337593001307
P 5.0506007324050675 -0.24345133316287149 0.5119334723791755 0.04886947200719326 0.8428250997710129 0.924107440891273
P 6.51953161745602 2.5885697227801465 3.433072533756021 0.6754624819212173 -0.11847900477521532 -0.2898761977057008
