# total energy = -340859.5378508958 ev
CRYSTAL
PRIMVEC
9.39474743630815 0.00000000000000 0.00000000000000

0.00000000000000 9.39474743630815 0.00000000000000

0.00000000000000 0.00000000000000 13.75016250865974

PRIMCOORD
 96 1
Ni 5.419454082367561 1.1072085799385405 9.306453851906275 -0.4316856496767404 0.09634129233591149 -1.77680583391194
Ni 2.697673580053389 9.098390256456117 3.399796615908878 -0.5420404826829245 0.944064086518858 -1.3968302110149815
Ni 1.6552981530850985 2.241257953680299 9.699474661161855 0.29850044903960204 1.3397329517813572 1.483112319342678
Ni 7.166604682429929 8.683903388481264 8.653170350760414 -0.9735281574162459 0.15663931789502056 2.709321810581882
Ni 4.946888884924211 3.206399160887913 3.154713957139785 -0.4714223061447301 -0.97281261940646 1.9567820267606881
Ni 2.0752151851545486 1.3378402379977599 5.08281679011912 -0.6532154975975589 -0.9846427792721686 1.931238888184261
Ni 5.950276109483207 4.780940063874146 5.949544258647621 0.044637950424348934 -0.18498290203472012 0.21550909564803533
Ni 7.3204248843690545 3.89433894633923 9.958362901482863 -1.5744952392320497 -0.030777904612805055 1.3806044931847383
Ni -0.03372244639714724 4.448563289648022 9.413017534101066 1.1049513810569551 -1.0235132310851214 -1.6107645059767293
Ni 4.906566628360189 0.9598143853362721 12.471287831126853 -0.10962309704648217 3.0057494362528554 1.3306767551163599
Ni 6.951324041897646 6.2792989588273755 9.505693900440093 -0.48419786064284354 -0.2023213933131677 -0.3984050332467397
Ni 7.391157938812325 3.4941978579014825 3.9043866288637457 -2.2961959261852 -2.5546632705623167 -1.2615184509531434
Ni 5.849291967869351 2.2080381262780664 6.767335426566538 1.189826581734796 -0.9291473173080257 1.235816161091033
Ni 9.210225331511596 1.8938495833445672 7.734700370523617 0.3820476749346388 1.9992137135623376 -1.2169265232753816
Ni 2.4209700799182228 6.412788927028257 0.573835878858045 1.356751854936857 -1.1550302999912174 1.1535354606132455
Ni 3.842442360770811 4.423648419096348 11.649866532747465 -0.6136711596460335 -0.39995617978394343 -0.3771772342162149
Ni 2.880993289357619 8.303472480442238 9.354181048503792 -0.5573755703780982 1.2852438195945415 0.5928670784164886
Ni 5.009730351409939 8.541028067459447 7.51080662542053 -1.4421381909231614 0.8559505814093774 2.4442037936574676
Ni 1.3089044154867657 6.447756177478231 12.452958678620702 -2.1078649336138535 0.2606450687547253 -1.1517583141081649
Ni 5.094320658516754 8.063060890164206 12.975986823153516 -0.34246682731822303 0.44389299037620966 1.2602665808239133
Ni 8.489159666133732 8.883917564214727 0.7877073072550521 0.8865855326864152 -1.0040396957415416 0.939045293148028
Ni 4.320832301706633 7.465010049448341 1.6773138045371325 -0.7177298752308606 1.6017597313749574 -0.48944368242281516
Ni 0.397658056655392 3.1789007347549 2.182426165456809 1.3043795119827277 1.0488478531951677 -0.8983259610517949
Ni 6.578390142418288 7.046821650931495 6.100686018054965 1.0560785666156522 0.3420191982578432 -1.67653281062179
P 4.202345745372654 0.3222783600647385 0.7827309094680152 0.01076700870851694 -0.9997606087502138 0.07565779584463099
P 7.717493890351902 1.1078192385304932 2.1816285513882434 0.13650089527393267 0.010246617428672677 0.6385350127672487
P 6.735028768627965 9.061591030230286 6.620551890556222 1.4250380409077652 2.5550268245493224 -2.0174562047122935
P 4.715355331098415 6.0807973374524416 13.626919758457738 -0.581930891119959 -0.7392314967480624 0.24493048623294592
P 6.132158422409456 3.0523253007644375 12.275265483635247 0.510937847740849 0.13778618974425946 0.3793739847572176
P 4.920367512538323 7.161775782179718 9.431126849514117 -0.4808654538355009 0.18160987179742918 0.24479447487571387
P 4.468085575095374 4.589136897515556 7.71234275026009 -0.7868997493583029 0.5394320985258 -1.6269771111808498
P 1.5289481930362803 0.7165815523634175 8.319081853527308 -0.3931586972461358 -2.2634848091054245 -0.6189732885852373
Ni 2.094230154233202 3.249558631217623 7.37478947012372 -0.7335527011957302 0.13337237694727996 -1.3153254694712702
Ni 0.44630124114083825 4.727568502937472 0.23844433013718772 0.9471005593523366 -2.4067909002266483 -0.2704165463191923
Ni 6.183961060502191 8.841528463185634 1.8733220599073848 1.2764809858002466 0.26532421939794953 -1.2880393800618075
Ni 7.082305612497738 0.9010464813962483 4.668757383158632 0.6792355758104045 1.6382539696462497 0.38152985475795587
Ni 0.23878066210014018 8.06260054753335 2.9235871958837056 0.5364066814359149 -0.2140116851669024 -0.6855088104136259
Ni 3.379516174332747 6.877227667824851 11.602346020596455 -0.21513062926269402 0.10932639174166978 -0.7498342119645732
Ni 4.2559145960082665 5.159905391292484 1.9272911267894164 -3.818870324091217 0.27015146558326375 -0.3071452691987936
Ni 1.5524162724624049 8.532864031822415 0.828599824996482 0.31780300602295586 0.48438735094583024 -0.4789484393184461
Ni 2.9401801990391982 -0.1501515530136247 11.934564023588672 -2.862072077835142 -0.8782872972333648 1.014465519060556
Ni 5.194618983558109 3.403444596389728 9.148244423903144 -0.23216521614747754 -0.5952921429182134 1.1881396809506763
Ni 5.770648535973399 1.7019806537529978 1.4894038215709309 -1.237984115276629 1.494939393884593 -0.0852760356606854
Ni 7.31643211665244 7.3268039179680695 13.013566752902292 0.344008203663414 1.0443157696527694 -2.0976414561136325
Ni 8.162617030147649 5.160027523010875 2.193109872391713 1.8785261311715775 -0.4810865687073714 0.5956317856458193
Ni 5.559501584371259 6.0768327539785325 11.523090051159036 1.3671288272958066 -0.235587097344833 -0.10454516830294254
Ni 7.929523948225481 2.7632395233339824 0.7133788829173142 0.10616084952949457 0.21179719401408684 -0.2585305935148838
Ni 6.6905728231338015 6.627120698056121 1.3415211000951 -1.1939951112901888 -0.03613968314535067 0.22444830711919408
Ni 8.441368585252748 8.401121486669275 4.858770850105422 -0.24423705971034712 0.03666598796246588 1.0092127553020491
Ni 9.500250583698902 6.41019597669935 5.739208073760642 -0.6642272753270302 -0.9810684316573491 0.30235838933311154
Ni 9.209793173123446 0.6193581282012339 9.69501967186487 -0.5898349764583842 -1.4425703933645737 1.4390132721409346
Ni 6.019036266937092 5.243781697584094 3.390625463332504 0.26508716368647894 2.7456702673039293 2.0619830834800745
Ni 3.7239088306989885 8.786907400822349 5.63544872371505 0.045872851272714545 1.5613946972943495 -0.6916588891754217
Ni 8.12623117281483 3.92311505814156 6.00399433660516 1.1542309440183736 -0.21480641315405585 1.7701425629591514
Ni 1.601776276187328 2.766865895895425 12.850929580370124 0.12622393882795682 -0.017159799608738188 -0.8882307815993219
Ni 3.3555219890427863 1.0717058288771617 7.529506870455639 1.4320188431009724 0.09380027108161265 -0.7074953419870461
P 4.163272990235243 5.063703176190998 4.6007084080956835 0.9942689895080232 -0.04831308528309099 -1.8559384756790487
P 1.656012153900305 7.55302943941766 4.548801488304939 -0.036178249692769955 -0.237774591914455 -0.4608159913837935
P 4.074436257227464 1.5198258931472624 4.496687884067687 1.6801110148913518 -1.3575206147820815 -0.5083428333201633
P 3.422412591730539 1.6538607567071175 10.943713150185088 0.25698767450779614 0.6363048378851492 -0.6580733399104924
P 2.356306032404206 3.736948740324073 0.9032890076408504 0.48700961906002577 0.6577108143647512 1.385628685872207
P 0.9932502919325799 8.209872610417227 11.037778060214741 0.8778504668062623 0.20292251723227633 -0.26132075466551125
P 6.957054837914434 8.53968461855715 11.175706107166985 0.8350948210062907 0.02025155116018448 0.20632305827339303
P 7.234096548962066 7.134671935444581 3.512822944956043 -0.2969858121672885 0.6054652267964733 -0.1484899493150088
Ni 1.9555354958793685 3.5175813845994903 4.608779435731786 -1.2784383666369337 1.0563310489460904 -0.4847961563484747
Ni 3.7891835368049587 7.13694546435616 3.964667087162299 0.21581171449011866 -1.9583218604439823 -0.13680505677791277
Ni 6.9793767581372 0.7703984243348391 13.393635023685173 0.7475387310621772 -0.39986567695266617 -0.6484684698308767
Ni 9.002751726208741 8.926964297573615 7.3781311818338375 1.1490298594334083 0.9381736891763519 -1.651421103155827
Ni 9.451585791294049 0.7842293717051917 12.701383049099912 0.08882261536136316 -0.28537959538692786 -0.7369216176679632
Ni 8.568019177223759 3.165597772197897 12.001293036618247 0.8853789139728236 0.06931257035289354 -0.020270063102945733
Ni 2.7731603767663233 4.32148053928886 9.266179508554853 0.45216165814290515 -0.41420729038631887 1.5084901359858345
Ni 8.925000795331798 7.071144652386353 8.557757294454682 0.835216948406452 -1.9283132298970338 -0.20443252611889956
Ni 2.8466836712374404 2.262894057330565 2.7527136481582297 -1.2260855640668304 -0.5154894716672735 -1.3312714512775652
Ni 4.905091652991934 8.9543218024931 10.820511370046477 0.3308899211139011 -1.8874321754119558 -2.2082156042194745
Ni 5.3916174453220815 8.966102815944003 3.918893058584274 -0.8716798192191763 -0.2718756473632221 0.8958805848350958
Ni 4.15386884791917 3.3120994657811575 5.766171938757007 -1.839027301746007 -0.7779816209330667 0.5549337937058249
Ni 1.326669883138808 6.168610042975255 9.95645200982743 0.860168733255783 1.6929156228551878 0.8556675029513198
Ni 6.035176443259784 4.192058496785141 1.4410443584620534 2.569798583541858 -2.157836380435974 -2.863609340415275
Ni 8.423030037999029 5.702949984994755 11.283974936045459 0.6271992760394554 0.32277911908130863 0.3049451762236813
Ni 0.11720135486660853 1.6347800243954846 3.756722805006261 -1.5632836867869464 -0.4327290033395902 -0.22720401548746033
Ni 2.9995080299343044 6.345268876253414 8.16652430566139 -0.2875267236369177 -0.38212480802947735 0.5980046567533701
Ni 7.272464698031839 4.870105613046823 13.220355481107402 -0.6007763059612362 -0.32959717044440656 0.04578466243428244
Ni 1.8211154476692046 8.004014901696154 6.674108528019997 -0.3350648784271971 0.24703519128077453 1.2428877232258335
Ni 4.177308743102588 3.0602826519549606 -0.2084403248276546 0.19534984709134098 -0.04457727238974258 0.8503766868660257
Ni 4.343652143550531 6.707962500883103 6.49073714760414 0.6751454649014309 -1.257378460642841 -1.6126684078676612
Ni 1.9597913165279013 5.470580298635363 2.9729368653863033 -0.3931013616456391 0.02127716421122142 0.05124157178379562
Ni 2.472556638816882 5.658841645160626 5.6047034728223615 -2.161915435601354 0.049188545909508836 0.6168089339440668
Ni 7.107220483049411 1.4300684748777694 10.989528515652413 0.20919806582834294 -0.11738757148324945 0.15455775277564351
P 7.423588607418804 2.1026948217924244 8.814046947598245 -1.5066836789047149 -0.3004835409079018 0.35263014100447015
P 0.9711632403990256 0.8815862012828478 1.93939156165765 0.8593300394045716 -0.8227427271988412 -0.3854104207592846
P -0.25459296173269025 4.372005491712278 4.11254980863813 3.606131077878835 1.1131665698778959 0.06544203165389374
P 8.83131637257867 6.410083239728528 0.3668930767928099 -0.2579484957591686 2.753743274120051 0.4266753409463426
P 9.189838729287942 1.1155041420415301 5.70333329069555 -0.30655700079549136 -0.4018351419742112 1.1047040409328395
P 7.468241842611906 5.631916298629292 7.383933377932146 0.6519584852620062 -0.4581682693483013 0.6733647188519242
P 1.069422905218015 5.448399299626124 7.567580963926516 0.06452311938405017 -0.09475183636160456 0.5769329236847355
P 1.303549409372718 4.227476695118403 11.199892884782098 -0.0244362786654934 0.5490724498290415 0.17648900563109604
