# total energy = -381178.9065385497 ev
CRYSTAL
PRIMVEC
9.13232577278349 0.00000000000000 0.00000000000000

0.00000000000000 9.13232577278349 0.00000000000000

0.00000000000000 0.00000000000000 13.36608187811518

PRIMCOORD
 96 1
Ni 6.488362334378615 8.170262803668535 12.888418729799497 -0.397304086873077 -0.5479709892347466 1.026603954195303
Ni 2.682584217038804 9.201092359361851 4.146679625773162 0.9419652950083004 -0.14296824816583117 1.6681996081657464
Ni 8.488597421459206 3.6851126946285784 8.127887898051158 -2.5371435165109983 0.7050617928448889 -1.3918942071659448
Ni 2.7249034154679155 1.2832561771389523 2.260846099038132 0.18319032891067158 0.3956876343155766 -1.5512997749521928
Ni 5.654361799777798 6.011554464464427 11.760695195829772 0.1796298652529229 -0.5358196985841932 1.9799607788699967
Ni 1.996837861829052 7.010229100505414 3.735338660860868 -0.9199625654849641 0.6322651205981369 -0.6782773256621931
Ni 0.8743517167887825 4.477013206622964 3.3109256845909054 -0.5741401914309467 0.690945665158481 1.99827448957752
Ni 7.048730986689517 6.084302572942266 0.8729535576866037 0.13288823822200985 -0.7987052266336631 -1.519568505287183
Ni 4.193500147660563 6.4126096906648735 4.095688370626683 1.0458478900265795 -0.9975821130416561 -0.9852395323159032
Ni 5.699137593886113 3.9911369370453955 4.355645508046561 0.40691307071775085 0.15569855124830603 1.1796025900139429
Ni 0.9679808885398544 2.1569823296005026 8.543800505331518 2.063795968319097 0.9041384539685138 0.1959347730605335
Ni 3.7353587519779468 4.822781331552404 13.152197745627358 2.070533029932615 -0.9332415419820573 0.651260430753717
Ni 1.9528931093817314 8.72155392399011 11.810564088117612 -1.5522449124742816 1.449031318498569 -0.28324275154958317
Ni 2.7418347477699383 4.062716107802275 7.348992731435041 -0.8200687799111038 0.4705419604223057 -0.03604326677680244
Ni 2.0368100524903 4.21098855184523 11.778218302853032 -1.6908165742343138 -0.4147472220501889 -0.5351702379256525
Ni 8.01669361057748 1.9627742860542172 9.659560692313297 0.37240552385918446 -0.49716830476058244 0.3085483201939073
Ni 6.215159671408115 2.874226076994546 2.144173329230051 3.641577848722219 -0.7053343297799853 1.2085321285640993
Ni 3.625442076903975 2.0169198465820983 8.001551300928083 0.22733282775584074 -0.8121081303031304 -0.8236744949844912
Ni 0.2400240095797362 8.731562953225826 9.952558585002173 0.27071222318274024 -0.2629870866243406 -0.11384767665079101
Ni 5.734689738789983 3.085767275184434 7.0488168305534 0.03594890729078325 1.5626180281784894 -0.6911330985789388
Ni 5.166339433603155 4.8939404153158135 2.334720223304988 -0.1679899670211494 2.838571166499724 -1.1309712021594844
Ni 6.922558771433452 2.617963878652012 11.65087988957379 0.6510269745866722 -1.1898332666030154 -0.3577286385733
Ni 7.114858158857233 0.5946395318846881 3.110541449008019 0.6793983266405138 1.0002601740944517 -0.4032281656669958
Ni 8.429639125158312 3.9449821617193854 1.4531603616478201 -0.93892162308597 1.08842561548779 -0.19732162610573115
P 2.006061511033498 5.476391031761715 5.12265769214305 0.34358088631800826 -1.2187921157292108 1.2016001773309566
Ni 3.3227511334570807 6.6518309687940445 8.313516121372121 -0.7149975639013623 1.1216398974562296 -0.36678123569387155
P 7.38892839279251 7.669665224667631 3.7753035456613593 0.3413805362325798 0.35303071887699844 -0.4173430078018232
Ni 7.528561656491498 8.902501830264262 5.663930650902964 0.3588131298867304 -1.3609486666270239 0.1876097981346059
P 6.836559658009424 5.2428774573481665 7.634332255586443 -0.719825838527941 -0.1553059437955777 -0.08800680432828713
P 5.007619608679124 1.7510869706492092 12.708617843664037 0.223160441545706 -0.5835946519756272 0.8461526214823492
P 4.762042231692236 6.980485114902562 0.36113417656449004 -0.3518153584126586 -1.0357005171799325 -0.14484669613546666
Ni 2.7865466155966394 2.0932021652006503 12.964364978823273 -0.11327663463866944 -0.05207769453184579 0.06332215709741353
Ni 8.180390553141535 0.37764816157082637 11.797478378271027 1.1220229918272613 0.6191375820772433 0.16022189303995632
Ni 0.39224344489611906 9.038208193806902 3.7638616544848738 -0.7211669259368676 -0.5782732397627138 0.4541781743523016
Ni 1.7854245162023943 3.5238540830918383 1.5052885913744518 0.8965357019205915 0.2679156342742096 -1.0783229798361493
Ni 1.4661584011653328 7.6470261886499875 6.262571054784155 -0.2749468300893781 0.4127291631788956 0.1986028068109999
Ni 3.3982389397184183 0.9735242103884669 10.192252917615294 -0.6976801556688371 0.3365846575058332 0.9352881400984409
Ni 1.3081508976650116 6.564096713440467 10.786628525280173 -0.6021158507082662 -0.07444037849776212 0.6405175904149163
Ni 2.0415223326779177 9.182371091174609 8.252432732823825 1.3044903265289793 -0.9221662580045021 -0.23302345038271483
Ni 2.7035520374085156 6.743638241519089 12.66100828881499 -0.7015326966457079 0.16561298214854062 0.5862333751500549
Ni 4.499752698226005 5.246201623992145 6.197638390850045 -0.36351670600998687 0.024663049964318815 -0.018462063359929493
Ni 5.168202428095934 0.7882174449407691 1.5217149060517163 0.4994524728090689 0.6221254610609737 -0.5439572400896632
Ni 7.449841006845633 1.3180686036412774 0.5601723073030841 -0.33441413221707567 0.601039586924952 0.06960516189264787
Ni 8.895533865568229 6.514170287499174 4.809971417949359 1.170105706267101 1.42877076847732 -0.397869986678876
Ni 4.68410696207764 1.9783722987682701 3.55305195560318 -1.5114602743577517 -0.9014480516205443 0.2378023598285969
Ni 7.879699589076596 4.6647464310742475 5.41967928764329 -0.3284579146336408 -2.4309482141991423 1.1849525414719464
Ni 7.411585693462044 5.479459493279234 3.073583839141215 -0.37453079773230336 -0.013728405329686034 1.2216812643515476
Ni 0.22751728919806413 1.8496886938773311 2.3395585295906467 -1.0001020512500323 -0.41136724983436246 -0.49662580199355116
Ni 6.026869375074186 0.4335334301912296 11.073291323461005 -1.9226629735897918 0.6457801243654362 -0.9015354691280281
Ni 0.8680860279579208 3.5772781898700656 6.015525199785312 1.4869694883052391 -1.5176543189836056 -1.1757289659911494
Ni 7.192227224263239 8.91792632878536 8.917168345731925 -1.782254515731337 -0.5143188483979401 0.6436787617517172
Ni 1.1203263499542782 4.680061341684007 9.226940494716567 1.8925232167816177 -0.46301788413111866 1.2977108417133003
Ni 9.374880522095125 2.78316765499699 13.189435717900674 0.22455217968691008 -1.3401895797028016 -1.621595278043646
Ni 5.713466213293812 2.1616580804843406 9.21991043020411 -0.4291765101016415 -1.0424195810713208 0.11180570652009775
Ni 4.151144419927671 3.1377028128336266 1.4650296456785312 -1.8375028946816805 -1.154995847208856 -1.2335201659680046
Ni 0.22590634690136682 6.392783411038287 1.995770292926082 0.4349373238448187 -0.28613472838539755 -0.4304975429059102
P 6.99517902734806 1.4007983443769962 7.289018920489063 0.8528269481787313 -0.06119559767271396 0.5548988267028315
Ni 3.4983931583571897 2.6275162915904784 5.604544961747845 0.589302758103998 -0.5382252227018924 0.7149669677737429
P 7.461128561713648 7.586807631368683 10.928456286903746 -0.3602190090953215 -0.3647343804671718 0.3814177546601238
Ni 3.7816779091709667 8.100254392974195 2.2852257563808926 -0.33591539935295056 0.13360223356989892 0.30148524269953886
P 1.4315468858337979 0.8584057624562249 5.92876627684266 -0.04637318794790079 -0.05342006749235316 0.01733874838876369
P 4.704755151039275 8.796484658368803 9.189756403166328 0.8397055803054247 -0.2633082174091852 -1.7835089569637286
P 2.7230038916713566 3.0111927015175963 9.642612008591978 -0.5765675699255166 1.170183867803204 0.4431602259752432
Ni 4.5113324875242595 4.693787227579335 8.578966352847914 1.786109627811369 -0.9004995716643458 0.8625362050466951
Ni 8.440862753744712 8.440990606307942 1.4789573559772446 -1.2306780685335192 0.6002577144536049 0.6743358245159419
Ni 2.7173327172595143 6.078704457137984 1.6525555663308633 -0.036466213246833974 -1.0923511757944413 0.25018684953587883
Ni 6.322126605201853 1.6575536883205597 5.117658656920759 -0.2974007882175201 2.37386278204006 -1.4406801183203963
Ni 5.515961400081383 6.743501256629915 9.68216228579457 1.052612719554239 -0.36536584340358363 -0.9137471807028715
Ni 6.46594247418365 6.5047091978201586 5.3949653871709415 -0.9487715192968562 0.5871869973125758 -0.5060211271655221
Ni 6.012230256584357 7.7041214904581015 2.0330347489446385 0.5136758154973025 0.35308651181559836 1.0854796454855886
Ni 8.157660193864439 6.069215970481133 9.378845778020445 -0.1768340476753406 0.07915398192334755 1.017306588053777
Ni -0.16004035925567747 0.4362932190918074 7.702886799990338 -0.3197912400975783 -0.37569190791994006 -2.466021403753192
Ni 8.251759680401678 7.108730368148141 7.24906773417749 0.42993729952706605 0.5639840768335512 -0.4244739624196496
Ni 3.5108770479239992 5.619321065126848 10.552695777105749 0.3409994987440772 -0.7340208990814004 0.02114089574367327
Ni -0.18946471345045468 7.2890024823023625 12.834566316934449 0.2843645238588522 -0.8301683302389509 -0.7243499516505396
Ni 5.13192882944241 0.5148293957535842 6.46089686409904 -1.5520384528904303 -1.0400294835725894 2.2632297556718246
Ni 1.6579189813583597 2.2521137689695263 4.14359198637116 -0.2743233375727663 -0.23142576687829175 0.19525728737753467
Ni 5.250393361600898 8.817470743390404 4.197831609856275 -0.3581132756062284 -0.8419912910158079 -0.09936413832263531
Ni 7.872275008083314 4.907602374929527 12.285634989637062 0.8022014127123798 0.5234619483497889 0.6044979777871976
Ni 8.513683920830111 2.0172303456642284 5.427591534842034 0.7042588373276194 -0.7175421847000869 -0.3348059683388556
Ni 3.317764883491113 3.99205930196584 3.6702324827338018 -0.6321080261949823 0.9299752125259596 -0.22850345102517422
Ni 4.3508409913668995 3.131191464434844 11.122572093957984 0.25531054391568936 1.0999778391017636 0.25608933106324283
Ni 3.7869107319374495 7.744614223698215 5.843063050779251 0.33814068913904344 -0.020098570522087966 1.0311707476303789
Ni 6.524699859313755 4.233307956454801 10.064151955119646 0.0807488372142932 1.1109942448169252 -0.6198387219093261
Ni 0.900968793988068 1.7980636553102687 11.030185831768026 0.8698628206150955 0.5751922868445449 -0.15481794841556565
Ni 6.185205642308527 3.673176744618469 0.025901102845197744 -1.5103307887389987 1.1137756642168044 1.1060872944336113
Ni 3.7108749861194124 8.944510529611243 -0.058435014024246106 0.9101116408328133 0.05617603297093551 -0.2003951228247323
Ni 4.012488315104796 7.915617027018265 11.011754058313242 -0.04912863920585087 -0.12038187822488298 0.8882937736267733
P 8.730257030615691 4.006981522559964 10.631889481235564 0.2670190906018691 -1.524333273665678 -0.9885246308250782
Ni 1.6630422162135021 8.406780913317988 1.2968578634014294 0.5012854122527496 -0.9040980876488816 0.8311013835761815
P 0.5681302161315536 0.3839786899158977 -0.009285749020871965 -0.7214435766370221 2.136173807860876 -0.7563347320872522
Ni 0.6725802808948512 5.3770130608282685 7.070563638326219 0.4329837996628737 2.9977571620759984 0.2074332606184363
P 1.0475234475207698 7.0677718862848335 8.781422713187721 0.4375557353042722 0.15179973041453212 -2.546991098729039
P 0.9293328851406312 5.269799554234015 13.563098532429102 0.17149823728472402 -0.030522851179205498 0.003318779960587833
P 8.016821463140712 3.287792589739636 3.522991991522631 -0.1756143163356266 -0.34623889276614567 0.933342843446612
Ni 5.966413377318313 7.3613396361126755 7.532616409211077 -1.6800562503940162 0.20275436708552821 -0.8668209484649781
