# total energy = -340861.4985576362 ev
CRYSTAL
PRIMVEC
9.28269873596305 0.00000000000000 0.00000000000000

0.00000000000000 9.28269873596305 0.00000000000000

0.00000000000000 0.00000000000000 13.58616790965215

PRIMCOORD
 96 1
Ni 0.7087108258705571 6.9058542872468 8.480770843564132 3.138840534514291 -2.2296344362148823 -0.09348428250309061
Ni 1.9577582503605748 0.8547174627484563 13.034107129766948 1.7282325529889269 -0.6065785144653102 -1.8408203890906876
Ni 6.225664552603687 0.7506844038048561 0.05986876415668042 -0.7310620735633926 -1.0512886014261766 1.0749370940830518
Ni 3.468266802941008 7.478596786427695 2.204016174801745 0.9508661970423559 0.8588096481247275 2.108840924373878
Ni 2.00007807294997 4.141253163526352 8.078429912992862 -0.517328067537909 0.47533783914905237 -0.8340455538061702
Ni 3.868239717117773 8.992994789691382 0.43169467985668186 -0.8381492915618985 2.0997248210052226 -0.9091299936458342
Ni 2.0003194231116996 1.7412764379878414 8.442648657249123 -0.13816028525422658 0.17465092398109275 -0.8180892875872298
Ni 7.316604414414635 5.67405875797117 10.662329385816959 0.4873407771471994 0.6003770136402885 -0.9685648998736996
Ni 3.7525772934582275 3.460098028236321 11.960745914158574 -0.9693891955472078 -0.2991139142538849 -0.2377475953312615
Ni 8.998824324367002 6.368915156288607 1.1354012029507654 1.7476322976717775 0.15294309999035596 -0.4617230765790951
Ni 5.811721177142202 2.8800686107109046 13.07441724812502 0.7147769632501239 1.072499945396469 0.6032517640849223
Ni 3.481949500571359 6.015578519516783 11.792752277547129 -0.4271175706900837 -0.05899267648412421 0.32624625169430266
Ni 7.216611185870444 7.628243169398444 0.25791699379240535 -0.8771174452949798 0.4774011494359842 -0.8010511011580204
Ni 8.602276725947087 9.03440490782503 4.292726381567422 -2.89351924060083 -2.244745323714392 0.08337958996892092
Ni 7.967497952503211 4.1031662514657485 5.375285823147244 0.0786706145290258 0.7976670151771359 -0.21926444892540947
Ni 7.30132509263746 7.873900503244849 9.748767968829318 0.4715097236522138 0.6280827070856732 -2.3423243451121465
Ni 8.694880926462949 2.0191633011236476 5.489654238631977 -0.3702460543140204 -2.5068433228655604 0.03068843022279231
Ni 1.7338781272609827 1.6352865861945274 1.615246168342313 0.5965874646908693 1.0474985382561248 1.2881604790207042
Ni 8.161107195702822 5.398845312011442 12.778375283208046 0.2781067158745985 0.18982223240489246 -2.1019555101079543
Ni 8.736690200633301 3.8241747472051038 0.7568638962149813 1.1750535371906796 -0.45829271074130745 1.6230119558855147
Ni 4.725970343808436 4.054459932289053 6.715697279629774 0.9527839828903589 0.5952240086844394 1.615601008133424
Ni 0.32813782334757097 1.471252020505296 11.050472428989572 3.107725301166725 2.538466606197796 1.364705562566295
Ni 3.6164743676399094 1.2846048012017262 10.15790197818342 -1.757486821868354 0.9743629946127155 -0.03443915551447617
Ni 1.206518741183741 5.353963464628304 12.270985766474206 0.11436266861399658 0.09930937382529993 -0.3855034946937232
P 2.1082772069929603 3.7137570482139086 1.0041763352089386 1.3191294165983927 1.7987651117918504 1.6782184258543291
P 6.7855690797202834 8.008824526350105 11.699483435816658 -0.43995534588470037 0.5444264664165979 1.4026115935834491
P 4.638313821608027 0.29740744987045015 8.4060609010008 0.21666557784998172 -0.06023940440703174 -0.4230470001651359
P 5.464084117266602 6.58720709487431 2.693158691038991 -1.6166914129841254 -0.37116316681165107 -0.10913304478394109
P 0.07113981670944286 4.649369515554938 10.381340244833074 1.014617214147072 -0.07973916500285622 1.5995398409055033
P 8.151258252564556 0.8245412663734603 9.949830290677102 -2.639522530400557 -1.6026886709471302 -3.252086058804709
P 1.66631864737381 8.075028732252182 13.476037841290513 2.117771394094288 -2.07420662212946 -0.2621167682042454
P 7.907141846673809 9.387407367449844 1.5591211165019965 -0.6916930848474667 -1.3423917295604428 -0.5196554301195051
Ni 5.938318619667794 4.923728953250086 8.614459339495305 0.3809433861268665 -0.2580361703769685 0.4913218732821344
Ni 6.576309206802376 0.5705211494231317 7.089955262344125 -0.2855228058330115 0.14921808573028494 1.7619566847142494
Ni 6.885553025565947 5.6818562247347355 6.47228728709701 -0.5339607909985836 1.3247315932765185 1.1877858971556834
Ni 5.721484064750995 8.982533188450267 2.02076549488959 -0.009705914433854252 -1.843992359060766 0.027867415834229425
Ni 2.839373260363918 8.215503809077214 4.7304046888952875 0.30734735790727064 1.2478594654088122 -0.27925857009085453
Ni 3.81928276508082 1.0591744674479493 6.124685501475817 -1.5294842217389981 1.2352443477479629 1.2093217143449302
Ni 5.6130807113403876 7.355842381092717 8.041067979687298 1.6600903487950507 -0.33627329691300156 0.9767469214638599
Ni 0.5852351548599491 3.453822924031357 4.043366179278176 0.5902234701460545 -1.1936022467271443 -0.02084007667380282
Ni 7.752826266343449 2.9335462369310203 9.965440076521876 1.0703710719789243 0.8047735443149302 0.035895685455344634
Ni 2.989465212864014 3.6077671964205944 5.471992048142651 -1.8698206329777796 0.21986865816831166 -0.4424709132177025
Ni 2.3079202042358054 6.5519049923721235 6.396068906022869 0.8700394554022757 -1.161060308235381 -0.23826695816984125
Ni 5.7202216177511795 0.6097628291806246 10.399260494341481 2.051522293158067 -1.4274024273748835 0.18321424017007157
Ni 6.7037977883866615 5.187283329858578 0.8517005857268388 -1.322863172609212 0.38647151503394733 1.618792004266896
Ni 9.289567724964161 7.226617934883685 10.933739710189743 0.4047345750091933 -1.713589092044139 -0.7446809498984077
Ni 1.149003141103922 0.6245074675225847 3.919595318454376 1.338340699419521 1.2569987087059191 -0.020254379373661893
Ni 0.9320107803121458 8.711979657151621 1.7368968608223057 -1.2089301353334665 -1.3184092506029164 1.2295552677829855
Ni 1.2135364612709494 5.114785454354481 2.6748717749387256 -1.6573549521417585 0.30092499932069466 -0.15856533127313982
Ni 3.426179047814814 6.14887807037963 8.332899312551948 0.6557678317057674 -0.06798356712882485 1.2441910154182896
Ni 0.19223261900789948 8.9233467026354 8.762425554032475 -0.5403001029530501 3.7179041313887837 1.1921336326014178
Ni 1.6134258311609617 8.93416104642058 10.953141478383227 1.173502647763792 0.4761767901105799 -0.10984524035961726
Ni 6.554420603673226 1.6531929116551425 3.129559699049396 1.4071002254824216 -0.5516764631107919 -0.6096604958247436
Ni 9.141582945029933 2.4851083537392884 7.8421945181524295 0.2680382758950029 0.08896839691060805 0.3285756711584277
Ni 2.2408991208632596 6.141665413623332 0.995656674499891 -0.09055168223732792 -0.3144664854505552 -2.997038538742419
Ni 2.5435336582748564 8.850458953793122 8.151660193410821 1.9426000788333515 -1.374913356337232 1.29480266692757
P 7.183750433081134 3.1495546316788228 7.401445494151485 -0.929046015843471 0.9606489874607327 -0.1786171077176924
P 0.9919213166122023 4.569798223772465 5.971501482096026 0.07209064731866294 0.285070034566309 0.3258212483417421
P 3.613476056015348 0.4665846305442234 2.3755409499332627 -0.7469440349009717 -0.1755047873409558 1.2633902140545594
P 8.12358652825243 5.137101061615921 2.7313904131966313 0.897498580054493 -1.3114701002809221 0.18671582556542682
P 8.829145877972712 1.803108492883205 2.6361109389649857 1.1545721294078761 1.148381684326448 0.6262546527379989
P 1.4697760714393353 1.4446385238253667 6.092350149423195 0.8633437885496551 0.375845659888985 0.38755960589180355
P 4.71626992384662 6.0976839879974145 5.882796943231801 -0.9944121999541068 1.1915659330234059 1.079428297085186
P 7.995856596506415 2.9866525552100134 12.446668262276438 0.3797809903876492 2.0889274732794023 0.5761973310702916
Ni 5.423286657235807 2.5013159453692695 5.115925369733725 0.34808700171847795 -0.511569567787577 -0.4058648319588945
Ni 4.668055587691911 6.967983388495062 13.71129576797594 0.9192868795741781 -0.5317516991624068 0.5753732925070993
Ni 5.046733991445321 6.65559273493048 10.142929913727523 0.27258938560079504 0.25406972953005275 1.1631593568562548
Ni 4.601907077981002 8.25339578446873 6.415700885139849 -0.8612323986336072 -0.4397442583151588 -1.4761266320534643
Ni 4.081834610248282 8.563521459592465 11.6747292636519 -0.182663252762608 -0.870833926279113 -0.4854427887935382
Ni 1.409911948631919 3.053283765244381 12.825640927573188 -0.5449342592909517 0.6943279513671526 -1.7499159514996312
Ni 9.141629358522573 8.651196547189928 12.69802610128892 -1.2212886568988193 0.07906553597459932 0.20301739093892776
Ni 4.402644671377808 4.640040403534245 0.37285722350646816 -1.0365836911158341 -0.25939088463265003 -0.2583318472405164
Ni 2.991024706216727 5.847533828063432 4.1214995810586545 0.7833673107250122 0.9351133050834735 2.4201994603230705
Ni 1.1009466108241897 8.603232843895478 6.496837239894153 -0.7507940047746812 1.1903436305805306 -1.3219074935641622
Ni 5.903842677334604 3.9528607968995084 11.016412351550438 -1.3974025385786837 -0.07299104764574527 -0.6006883742331204
Ni 6.645121850990836 7.505535177556106 4.805916656611442 -0.8670160951949196 0.447022794254443 0.7160370609094701
Ni 4.929215028080165 9.371441125981592 4.172027165686554 -1.0333129907843623 -0.3964774772067236 0.744799220643827
Ni 3.5314170010273553 4.465312169140696 2.639669925580642 0.5227667220549771 -1.8557070763945331 -1.5265721902985256
Ni 2.064230802477347 3.290874434069908 10.324658231081077 -1.029869255210136 0.7118793299873546 0.28725110137802784
Ni 9.158096865711341 1.4953034923914823 0.15557524252061658 -2.0697241608780743 -0.22605473237436555 1.0450284794490778
Ni 5.531996339697841 4.787635310130294 4.45267655990431 0.3427254802962485 1.214271859261354 -0.708740784358373
Ni 7.4996499466893205 1.0909584272080042 11.91001503843291 -0.5658380993231545 -1.0271924797089214 -0.04763662804135667
Ni 9.348976995543703 6.6545437899968105 5.764040596152856 -1.1281105927822377 -1.2808552036085425 -1.3500464178922231
Ni 2.9706399002491217 1.8699624876822454 3.931469746411462 1.6694643338107829 0.568398403851163 -0.27854945983897195
Ni 5.635229230028323 2.4237961299614956 8.878682998667669 -0.7136392501012548 0.27578398127869275 -1.1232416947257107
Ni 7.418352072980628 7.170429760693378 2.631341488461272 1.1702496880441329 1.5339576841293194 0.10850235317847766
Ni 4.237672553137243 2.343547201186474 1.485633705334809 -0.18449670642692095 -0.3358642344000409 -1.3267234268955665
Ni 8.658947600460854 5.158460550928972 8.545781294435502 -1.5302972045585967 -1.2179796471302444 -1.6245751866075764
P 4.406961126193353 1.3906689145832642 12.28735673359828 -0.1930970465014223 -0.7019852108020943 0.3618606584638026
P 1.312889183616705 7.119170699421467 3.754388347941051 -1.1508414587208504 0.6441323043493681 -0.39691739295761963
P 5.709917822385041 5.72107562601576 12.341498072763153 0.15300480646622683 -0.9635255376775793 -0.17985792210332896
P 4.082159504696764 3.990724924195438 9.52206961845661 -0.4578954753028888 -0.00799330261812172 -0.14756229529441686
P 6.759048410025636 0.7000324310166799 5.078223689662037 0.9714468494071851 -0.7647584373745733 -0.9393047174570016
P 2.440310050642903 7.236364768338142 10.166325098827775 1.026294393374684 -1.542762426905143 -0.808052215066202
P 5.333393004690137 3.3229925709769725 2.9626539947054376 0.24115507835091368 0.36971409306995034 0.13159625888346368
P 8.445696167175882 7.787088706610494 7.311124837473526 -2.5736464965330383 -0.2612950436338984 -0.613806142562001
