# total energy = -381172.37066306226 ev
CRYSTAL
PRIMVEC
9.21420075766425 0.00000000000000 0.00000000000000

0.00000000000000 9.21420075766425 0.00000000000000

0.00000000000000 0.00000000000000 13.48591419452761

PRIMCOORD
 96 1
Ni 3.2888246814963145 7.598896091339819 13.38532295547379 -0.4375428797884658 0.5010038764565887 0.45669605567814897
Ni 3.442342480556102 4.859762985289742 9.67010191905936 0.36772097389932157 0.3221828802582064 -0.968285678070384
Ni 0.2956007749617103 1.0388919228252822 11.013986651693099 0.10912353170224433 0.3957372566065894 0.04314619637017085
Ni 8.789610400282868 1.2193612591427305 4.516229937912869 -0.42139378083242907 -0.12921516024579682 0.27343527854085814
Ni 5.431080289947511 6.747080086785401 9.345684652603767 -0.09671590206651086 -1.95849335302484 1.538068106753267
Ni 0.8805928749849814 7.8760592505570575 13.483662434631434 0.41557306038559394 -1.030686866015425 -1.7448948441359564
Ni 4.2959183974579425 8.855906574836327 5.572055718916657 -2.2717581048578097 1.0837960871355787 -0.8691046022928323
Ni 7.175448280668694 7.88827728078053 8.549907574303585 0.8236732094329106 0.31203602163219163 -0.4444799732279313
Ni 1.8502760143928232 3.0023275368971913 0.44089766409285386 0.1221086311080026 1.4454816534740977 -0.18442702953125012
Ni 4.98413626730817 8.613057099293457 8.045710193748276 -1.22485297721131 1.5608113139870539 0.7362929829450288
Ni 2.196914247429809 8.59738374378054 11.274466578992826 0.2465749638149044 0.36289449904495563 1.600880671204114
Ni 1.2363798879683368 6.401105276203988 11.686380974557826 1.0236494995526695 0.046772737379164604 -0.49236934071004235
Ni 1.74968458456654 0.6996609857887862 0.40924319876124143 1.8817196984082107 -0.08848502951628631 -0.08235886201389042
Ni 4.061914554656048 6.515729933805798 7.514001052528382 0.2221533404374303 -1.4978719941503558 0.08845906137435733
Ni 6.563054068970019 7.947432449735805 11.25543833297888 0.09926386529934518 -0.8508626253635088 -0.15206712514330584
Ni 6.746729947156071 5.144951713379262 12.401754936922847 -0.34854851473592874 1.0065845736505825 2.3341330675506056
Ni 3.590405472758955 2.5552360870455 4.705747619388274 1.3930936267906846 0.6174897620611752 0.13760955495707913
Ni 0.9828787963332077 1.4689186728475077 6.82793193429815 0.8895685265741389 0.12083593504316609 0.13491066796867732
Ni 2.365027340512207 5.548616634993225 0.646752123536748 -1.6608344260499268 -0.23342531380682377 -0.5358461809467546
Ni 7.137955697728038 0.01988424526565166 2.989409227415058 0.208370427720725 0.584825953279567 0.7178167785177122
Ni 6.184451773455486 7.911515495127135 6.116617748793205 2.232700476734716 -2.0182979838872983 0.21255798343951138
Ni 4.796848422419552 0.28746187141993546 12.52529894087181 -0.42478018080615876 0.17599509671381303 -0.18697704964661346
Ni 7.722624379304216 4.296323822291905 9.012056871056632 -1.0829558506224704 0.36101425130310727 -1.4682960802654519
Ni 2.2711162062455146 7.617416634891236 6.502665118531393 -0.4625869672412872 0.22073974791935533 0.7884223566504164
P 8.235809291292385 7.148588885418752 12.67577513225681 -0.48045356310906284 -0.3735095555566406 -1.9877813033556797
Ni 5.936967554924375 6.60754944449728 3.555251453974194 -0.9927422684508516 -0.6313323243712223 0.18225727557344096
P 0.48422375754216834 8.57347289277759 3.851846441199187 -0.3419778034969465 -0.5042776621118541 0.29528836986020757
Ni 5.611568054666503 7.347025913241307 13.387993230857472 1.0404431740712403 -1.1826863711455888 -1.2194955695541385
P 2.0022181851206247 5.717651148152808 7.919077589700592 -0.18757483113161244 -0.3287407359813822 -1.0296265430717106
P 6.374918517610391 5.8297142579400445 7.152915874101212 -0.13241258413717197 0.0077025108505802825 1.2824852830127977
P 4.208641487746982 8.53825621742758 10.374416997658006 0.6564185779158889 0.07657825077637134 -0.17781980862737762
Ni 4.176483927053227 6.445536152325848 11.523754016614989 -0.07078786934683938 0.8827967550679441 -0.9958191076039624
Ni 6.231278341778027 2.9477610399262977 4.107499048714542 -0.2401340932855671 0.4410768610836533 1.5585099195473868
Ni 8.181519220344647 5.8727814323476695 10.754288088618821 0.007384208279213089 0.3965016455764397 -0.3631040439526005
Ni 7.578035140792351 5.605330040743961 5.3617434291393415 -0.6678414750408499 -1.266908254510147 1.3642623043812891
Ni 2.441201138293088 2.2141079460700808 2.672988965809353 -0.668801524961274 -1.2461622802120473 0.412544043751283
Ni 2.082068449009474 4.6963122777979 2.9271313658182034 0.22046901075647193 -0.24474896634975915 0.4894457393053442
Ni 2.255627134748035 2.7775931800717775 9.168385001351833 1.7578483189728307 0.6894724230470642 0.49308179339603464
Ni 4.11816725036819 2.7946670941020146 13.062726415090713 -0.11784085697058416 -1.7454957109447489 2.0050915124993534
Ni 6.8849153161315 3.1715463340722114 6.737184956576512 1.754969711873455 0.27790154184232785 -0.42572249011477004
Ni 2.934796659440305 1.6816561402679737 11.519384642608978 -2.395022446836811 -0.546626302281394 -0.48585725062313745
Ni 6.2809520981390685 2.61162699576922 12.867679291732124 0.5294863001669977 -0.3161603282132104 -0.2728786347064397
Ni 3.7943710210446198 3.6309663845566376 1.58837065023369 0.7892525658611955 1.8728841023944516 1.4768547684687403
Ni 5.465283403212617 8.152254918693252 1.8650343997690948 -1.1117246952250468 1.2431636025950394 0.7320288083520361
Ni 9.048179302342515 7.3597691529087745 5.962554469047724 -0.39065392854641107 1.4983144810044131 0.04224116805739822
Ni 8.07851366991614 3.3338360522668 11.312523992440797 -0.5181914439794688 -0.24212644112524756 -0.05135418610225995
Ni 4.992714688226762 3.650353062980609 8.057172659508458 -0.046844728267680616 0.10268651782764895 1.9237096696867513
Ni 0.08298585641150998 4.901383530176187 12.978236801113239 0.32073997716409275 -0.09465696265495312 0.5523580625588487
Ni 1.3544322282572752 3.017623110178462 4.842589557891168 -0.4291893656174479 -0.3710695786565803 -1.3683534437315272
Ni 5.0221356312912775 0.9734065979397463 3.5838679973113274 -1.462771550902797 -1.126014115264525 -0.13809343657203316
Ni 0.05916714741627849 2.778247388326579 2.563564803123175 0.7672547214338656 0.794434110062135 0.02828162055351258
Ni 8.785648293950972 6.321301083318997 8.167959602488793 0.912844466382944 -0.5641846228801316 -0.4640203572537041
Ni 0.018376802019377046 1.9840846380016244 13.094742077092583 -1.7991692892088047 0.4654874287175338 0.38336639374606235
Ni 7.66904380181591 3.785322675886664 0.688411368066435 0.654587438244421 -0.08661892284182501 1.8495577689636855
Ni 7.761821589387665 0.6023986467013723 6.967808109115214 -0.0039386729327738615 0.07805663509411073 0.23259484748572848
Ni 0.11264821153624854 2.6270607820620686 9.150503001913906 -2.204978328229099 -1.321505887250369 -1.0528896273647093
P 7.890332047552652 1.631171534239009 1.4998221808162144 -1.2301268240157395 1.2010664163146734 -0.21995890388927278
Ni 2.8468563272737715 4.348577554869064 11.892620587593985 -2.222063308735844 0.5218349542693271 -0.007513020547593513
P 6.513223671195856 0.6109098039543299 5.162353652956977 0.4553272003550803 0.15636343852581455 -1.0370025238208076
Ni 2.450894477505074 7.279071182548916 4.272176166329118 -1.100814476070446 0.6368704805806321 -1.541740413398532
P 8.015811033663702 0.421799390153041 9.39426099765288 0.5223530315563262 0.9049110704684803 0.40971840137702986
P 8.266243796441806 3.249480044200516 5.037582317465206 0.794525898444993 1.4297210482057312 0.1784736401612926
P 6.229840926457618 4.549069349463742 10.521562255463984 -0.8771742666748441 -0.13202948976614037 -1.5542462591750266
Ni 2.5221202494714725 7.054594823345113 9.60518050326106 -0.13742109309535688 0.3352042322185388 -0.816883954425219
Ni 1.6986563406920363 0.45127653984226535 9.159821323154477 2.7614082468644767 1.4970099032603768 1.3748110264314128
Ni 7.210876882636456 0.2578124161762775 0.05257530818409722 -0.916939462387924 -1.0634139239348008 -0.20475905622038285
Ni 2.9615546984817565 3.1877356848283513 6.916817643463876 0.23234313648623856 -0.9230674296625329 0.18278435172150456
Ni 3.632947437722585 6.660180959306087 2.262181195757052 0.6639295415809533 -0.591727822605723 0.3053220999471257
Ni 6.9069280417754495 0.9845281382713689 11.38557786184033 0.7078838356747162 0.8801564892316197 -1.7907522687897033
Ni 9.107767538734066 7.9883987863674495 10.401105930193669 0.10528744578560577 0.042896799363526125 -0.42471101813112017
Ni 4.546001020606716 5.114176282801283 13.329032481538482 -0.6092370351340797 -0.07054464298778172 -0.28604165445095897
Ni 8.08364597974606 7.100205117165769 3.7107438562593895 1.3854970453903492 0.5569359117375183 -0.5591300911753596
Ni 4.2805583247712695 6.630373019809153 5.201733304215709 2.2851124146775295 -0.2281643225182006 -0.5150886366844291
Ni 0.6518475765635809 3.8979017809171235 6.733800580633011 -1.1814620118201848 1.5641529767657771 1.868941058586304
Ni 7.75472665479334 4.60435455409484 3.2334233779354906 -0.0985213307063658 0.4460444895015737 -0.3926560465781044
Ni 0.9042226928643899 4.938857684715299 9.657087781889198 0.37106263667804484 -0.3521704277592322 0.18491451069062995
Ni 0.773943108151207 5.746196742143998 4.687892341132584 -1.3431484052208094 -1.128748740586869 -0.7271730229216316
Ni 5.890970264671301 5.26031350704282 1.5565982431321979 0.46928597652801757 -0.11010312200669425 1.0885989078408604
Ni 8.980952493511099 9.028654410906965 1.5360183257082716 0.45527629251248686 2.304052960335774 0.8613146739347681
Ni 5.105045009836381 4.474581750424108 5.952264049625723 -0.5368008315505401 0.23667570242332142 -1.4580479201748826
Ni 5.793391878497413 2.5007248752792375 1.9173729029933555 0.7480498663706407 -0.6011956528868421 -1.4521120143064217
Ni 7.792864231788026 7.00840403487583 1.240157710284795 -0.7768104834431009 -1.0617614759330423 0.3641422554091277
Ni 2.0617050653036864 0.47076365305465034 4.700258719988484 0.3015263803501194 1.0017871522619393 0.8114465854597316
Ni 0.9393693402885335 7.3226543521997645 2.1950889142569054 1.70968795721752 -3.114645425325326 0.9662809889355294
Ni 2.7328213785213595 5.15082115927093 5.6337005649204865 -0.8609225807026721 -1.1025335156440819 0.6481501672595095
Ni 4.586303934782786 3.162415061107308 10.964991981928943 2.4074293051415956 1.1574610209198968 -1.5601106883756035
Ni 5.157980593270658 1.470982653820402 6.668515203904224 1.1313956912914127 1.9970946103368057 0.43401584047181385
Ni 4.277075356879511 1.535362274613316 9.460220853878166 0.15657838275009808 -1.7486064886595887 -0.9328576762800772
P 0.1845613628802267 5.222931494511426 1.9605147124272329 -0.062369049155524846 -0.5058635185417352 -0.8194676559919951
Ni 2.7129924184603387 8.924948581219796 2.4992229605534257 0.346579563935016 -0.05219879349074237 -0.1581819797917921
P 3.98675431896007 1.0524828689637604 1.4579482454085433 0.5553102032086371 0.5885216569635993 -0.8514547504215528
Ni 0.5792488886821772 8.59041780799702 7.871674212409734 -2.6525608516417547 -2.0561356235603623 -1.173890884341146
P 3.2861157064693907 0.8882904183097846 7.41779189658919 -1.8449012440282808 -0.11346972448608202 0.29706500214465614
P 1.0234397081308901 3.231945420131686 11.18713254123708 0.679012661166321 -0.43645838847503543 0.41318733376223676
P 4.58876412638887 4.587455709879268 3.53925652285434 0.2492908200841707 0.2111973556465588 0.1159356695280713
Ni 6.647216578820093 1.9902120815149045 8.825061116332483 0.20514883545963378 -0.2222160753545657 0.774211612367673
