# total energy = -340858.69608006947 ev
CRYSTAL
PRIMVEC
9.34026548758361 0.00000000000000 0.00000000000000
0.00000000000000 9.34026548758361 0.00000000000000
0.00000000000000 0.00000000000000 13.67042266957847
PRIMCOORD
 96 1
Ni 2.0062423495179225 1.1271458915264547 1.2761446104548038 1.0162748043551528 0.5981216419472086 0.055809393660136146
Ni 3.7930912003611716 6.127783989697515 6.854062494156858 0.2367602917173277 1.6900077051797733 -1.1856133149843968
Ni 5.14256343396065 4.159808708342142 10.90679626571554 -1.0510209495870868 0.04553089455226352 0.2975254867208424
Ni 4.0406829608817665 4.883856757376243 3.1482570098527645 0.18619903383000835 -0.5783444593202813 -1.2787103893513978
Ni 5.404856772535394 1.9802016890255647 2.381947995085621 0.6679345489752885 -0.26059338958118344 -1.0536419321497015
Ni 8.09026719488018 5.142862322459845 5.328730805817007 -1.3283344801364285 -0.13671841060137743 -1.553633822402008
Ni 2.5533390667630296 7.91313839804479 9.552303639356147 0.8187644592773834 -2.3133670386478484 -1.4392855519657148
Ni 1.1724835407480845 8.9721844130828 5.721194755923942 -0.21399625854793466 -0.34568482003488854 0.6585556788635497
Ni 3.4350134380600537 6.043600175846144 11.00798496711798 2.4249454596484883 0.2307333687969575 -3.018069648381106
Ni 1.9370123008918985 7.651508218327634 1.2437404270092742 0.22113724046809013 0.24555295030829324 0.4501615969937408
Ni 8.716457281224745 6.345365476845819 7.176288580979546 0.2015878575812528 -0.20268134775574773 1.0753502703610707
Ni 7.7561005125146565 6.479557072718739 11.299233129052235 0.5398902691091411 -0.396960073270097 0.747594524000777
Ni 7.688607753290204 2.091873904537268 2.6375303528268796 1.1513996452171653 0.7664666783149315 -1.0738330623855958
Ni 6.465145042898185 6.204869201693005 2.981259599113521 0.28700247570233156 0.024389484587957994 0.3979193518595727
Ni 9.28079612876716 1.097696034090155 8.26871950735107 -1.4567189169508137 1.6016262911208867 -2.7879348324000954
Ni 0.4253276746199755 3.516647359402667 1.6284211337918602 0.40419875711038133 -0.0760372906712368 3.987410250078565
Ni 2.14472112730117 4.201466292917435 9.497594901658196 -1.1274883858172067 0.20010870193256505 0.7689709327940241
Ni 6.563451338336515 9.268793887471363 1.4113477570921873 0.19940550521795336 0.4500962909734442 -0.1299749212299568
Ni 6.004763351482004 5.011790375297271 7.302124375246848 0.145899048659381 -0.9940933831621074 2.0122983146604376
Ni 3.3741709479426873 0.8883797479711502 6.434927415629578 -0.2434222771185356 -0.6666672522270906 0.7512161799137643
Ni 0.5895444882901462 8.018066941793407 11.382991960818812 -1.9239639517894025 0.8754966218621052 -0.3215586164106462
Ni 0.4643531723492326 8.186752138526542 8.315348915305158 -0.34800909729269097 -0.38170597532450395 -0.6549939296542204
Ni 3.6582271053650626 8.763606941972744 0.22903825693306962 0.359620199169058 0.22133470119087686 0.6632579694352254
Ni 5.279239540483128 4.341112603900664 5.2565370909161535 0.4966481705910543 1.331966677572377 -0.6877991491096993
P 1.4264547026733705 9.005912112163829 13.240433605039101 3.0192814093010196 -2.7133350455063336 -1.9956223966666533
P 8.359276184421212 0.19897194196718032 6.421476499139247 -0.11168229356835604 0.21352626089005164 -0.3658885486762731
P 8.285628190166461 4.469522575367282 2.9129897297911604 -1.3693808565547771 -0.6429297994008346 1.9408974943199477
P 5.972380650647354 3.1503875244360886 9.30195743451016 1.2310241390190282 -0.5905602846601828 -1.584967342407967
P 4.789576116411446 8.201519098439892 5.842806882086995 1.020913331568429 1.3254008514294011 2.111743185622337
P 2.9512530618474706 5.14135853969827 4.913328097423424 1.0375830789146259 0.14291245522723128 1.0954544973101135
P 7.648678117850881 0.9817926782617236 12.50815024382562 -0.5618577745191679 1.2852697877364703 1.6003520523941535
P 4.809050570187115 7.739269353903743 10.717447599395877 0.8213085658554757 0.7060439542525002 0.8073731867213062
Ni 4.955094963106234 2.689968471957509 7.047212648575657 0.6898724866989603 -0.12147305440653274 0.3677441138277731
Ni 1.7214763319099595 6.139786230993311 8.322375597115919 -0.5594633061450623 0.04101603740104549 -0.7226057152659232
Ni 1.1948814976565039 5.828269692707403 11.16873560822405 -2.2695790949286203 0.2522748424131591 -0.7956432998788878
Ni 3.0404619385915552 5.674117949247621 13.032300730571595 -1.9147491180593539 -0.9988787203658926 0.8680949300813953
Ni 5.252208811837187 0.5652822143679982 12.73183933064966 0.4905387152592068 1.1068912783921454 -0.4982291419249291
Ni 7.889600928733189 2.983822567994118 4.89704614642978 -0.6485705426263797 -0.298432314805828 -0.6758540609326812
Ni 2.748064923988522 8.559671582865807 11.534761002524073 2.4828945253594465 1.281352197849619 2.7988759047926313
Ni 2.5390951617232713 4.109950370570189 7.172050902476898 -0.8122058322232591 -0.6815583104063101 -0.47874455083775613
Ni 6.820439406050549 0.86071855139722 4.443762122842919 -1.203139239683302 1.921170191094349 1.1173366420951854
Ni 3.2095954680734824 2.4579375939262498 2.779442612244629 -0.6177139622568394 0.035498192906609834 0.339539369258783
Ni 0.7738503452124555 6.255446739916147 0.06225847438230249 0.35629139190614123 -0.9904938387363071 -1.424599924929082
Ni 3.32692788453869 2.978059624119015 5.192997132093553 0.8131406853327028 0.5781986777710365 -0.3665128125238333
Ni 7.327270238294741 8.070886143760509 8.490713335968739 -0.02040273202606809 -0.15907749502286797 -0.27563562862628666
Ni 9.193175097175047 0.8798399431332152 4.1041341871811685 0.6484584425285477 1.1071671577613513 1.795919671923255
Ni 0.06985491239465347 0.6856660956046734 0.44872036981477814 -5.388536517365739 2.3064577131225246 0.34063645897770367
Ni 8.160543353253386 2.9946572760899337 0.40627259876973915 -2.1972794169229446 -2.1173075670839925 -3.2606686582673974
Ni 0.19861794590094634 3.04079818815315 11.208434539103058 1.0006815779025864 -0.496631458420506 -0.2575726004769886
Ni 1.0491173127053801 3.155263143079205 3.6536531773008196 -0.10326013094293185 0.5336098354170682 1.9796339916581973
Ni 6.677159731748984 6.7148477034443435 6.01679081149492 -1.7241416707490047 2.22292694228772 -0.5448540408723197
Ni 4.295924398928631 6.376244394918895 0.8831407929961992 2.175977313011059 1.546769234071691 2.771313936013963
Ni 8.168790807778047 4.366508786066632 9.384758889052753 0.17037003721755173 -0.0772189696841638 -0.30159451458389347
Ni 7.538696490412749 2.9766399037478397 7.3802921240253605 -0.14946696851629743 -0.14817756028091253 0.07588251026092739
Ni 7.117469192391105 8.910239771624653 11.034027495663459 -0.5028815530952758 -0.12342400748531646 -1.1219872534933193
Ni 8.20571287769422 7.743453792892471 13.217316447679494 3.2920931953252652 1.058533455914048 0.5106126031909464
P 4.295270580336641 5.574223808657317 8.825364778118894 -0.30159297192199674 -0.6525015022496699 0.8097720259707861
P 5.631059324832352 2.457124990819064 4.411678310507464 -1.3593738659407362 1.56244730692858 1.0011374344930823
P 8.575540694119939 0.02037952551229384 2.3724199901472227 -0.8240249363453743 0.6316205450356025 -0.8595496116145456
P 2.0928266116284515 1.4655623947399063 4.551444176890371 -0.656506766754321 -2.249151423201888 -0.4931972359279764
P 1.883389836083209 2.1850990954892846 8.368404425991937 -0.7218048166311827 -0.12319595063491043 -1.0718067759841865
P 3.9983715577144845 1.7929947456079447 0.7278868981956363 0.5336933962698098 -0.5404535978117788 -0.8882518646452444
P 8.975901838791538 6.464173655275801 9.489241902132258 -0.038175225518140704 0.7131746517600104 -0.8085407246668462
P 0.10758024515241266 7.233017618126742 4.60385707730388 0.22569837747621127 0.23507056271973062 1.743307187933862
Ni 6.1628847078217195 0.4262290102503602 6.818847824792337 -0.46115974787645736 -1.225581113626586 -1.8408895517657264
Ni 0.5894174606779883 2.380871062461959 5.991541271498869 0.4562347997710143 -0.34648109068393873 1.4575815220614252
Ni 0.9422553339775951 5.399616883533883 5.385435558273644 1.3002528914088638 -0.38562485076293584 0.7903175167906002
Ni 2.1825585432461274 6.934540090618211 3.4781794755297204 -0.6190198255524565 -4.846535629671498 1.0780596988724336
Ni 5.706444608488672 2.875783715800753 13.306365605881822 -0.8021900998584701 0.03307929905247206 0.6010192752099779
Ni 7.422214038117128 8.32399800125061 4.223354271324103 1.5638719551902487 -4.551682804686813 -0.1263787192382662
Ni 1.8020174421773913 8.948721665896 3.223690862890203 -0.3475874363742401 3.8663575710389027 0.19052465778855573
Ni 6.1015658641587605 7.767308831234467 12.908570232170497 -3.694520719467837 -0.18296792848722035 -0.9130691807992405
Ni 3.6965502151212113 2.7126746576307235 9.134303403099247 1.9913682493759899 -0.59676872746374 -0.17251228037153518
Ni 4.709063026940813 8.716485302021544 8.832022519438462 0.6660350179597303 0.5782475287311009 -0.8767814021117997
Ni 4.313110487632339 0.29553907995082007 4.15702530919339 -0.07301598734640974 0.016755365081467917 -0.5051608360477559
Ni 4.385310740719112 6.8667017415665645 4.366879594610945 0.7363132946600028 -0.21537951204870648 -0.4990732350927791
Ni 6.422796278668504 4.191089257836011 1.6365135399075625 -1.523803369304137 -0.5265138478022352 0.27193169741213813
Ni 8.31467641618197 5.214268652970632 0.8597947991293957 -0.878753695346822 2.2474208136640264 -0.49357081721731133
Ni 1.298623827673942 3.5128271907723323 13.512734104177516 2.1528975483734603 -0.12677364068383973 -3.9200969695438874
Ni 5.62410082696047 5.484762744742037 12.815310482235763 0.4836527867726509 -1.1187921435947892 0.2300664246369199
Ni 4.949275977637533 1.3651638798072119 10.419664987647975 1.2242983902594204 -0.6522513339120766 0.5697317779506059
Ni 1.4806842847460495 0.45189699414528417 9.759697698814705 0.5857014139059848 1.8820120328376493 1.7070037255171375
Ni 8.936738105131402 7.306338703085496 2.569520142888195 0.6221812539995736 -1.4140041516911066 -1.759952766910343
Ni 7.262831745921436 3.333503431520978 11.701840607600595 -0.08115250041061509 0.22232251902544292 -0.5045725676444536
Ni 3.9059029282760553 3.9949063191769434 0.9482844754222928 -0.5130962888447486 -0.03595944881374453 -0.5723941552741174
Ni 6.732547506756043 1.155316132575576 8.80976746859372 0.8694149344443995 0.06818617005793419 1.7397330974293586
Ni 2.888467796485337 1.7069335383710065 11.393559537318472 -0.5360986632771928 1.0873953744510627 0.6002980807732371
Ni 6.385239070691543 5.976565089636083 9.63570660700337 -1.6847935079686853 0.5736054019733992 -0.9052306585914282
P 2.5593541978093275 8.318767452514699 7.455315005376407 0.24717197396895496 -0.25344546568249254 -0.7198055268129668
P 3.9111241367463667 8.104613842841538 2.4990767937607514 -0.2639880170850292 -0.09888025670768132 -0.37703633776297646
P 8.739154126632359 0.8684111941452494 10.243699053879762 -0.6381812289722557 0.2892956426118824 1.2909344422214153
P 8.817294788640632 4.877458675440353 12.257543445569397 -0.27691526666965854 -1.0241318385057265 1.082127184073588
P 2.28486247236119 4.089205640672942 11.601759661698296 1.2633799296419146 -2.306107785982274 0.8037191349084868
P 1.8166723189035425 5.1579561916691885 1.944754447047607 1.38479436289637 0.36026940271728275 -0.7783989109761433
P 6.932952245466238 7.124343627872587 1.1011304497512164 -0.8403514414195399 -1.304718126269069 0.8223881720728998
P 9.330364918305516 4.1681962668508 7.172720599520407 0.06831523943663072 0.9765425187625375 -0.2348335070082601
