# total energy = -381160.1403827721 ev
CRYSTAL
PRIMVEC
9.32852333241591 0.00000000000000 0.00000000000000

0.00000000000000 9.32852333241591 0.00000000000000

0.00000000000000 0.00000000000000 13.65323683858781

PRIMCOORD
 96 1
Ni 2.4614427774074805 0.7384132433236134 5.118352630502113 -0.8151967965307833 0.5785609462064616 -1.4298681153065569
Ni 6.600256632304014 4.8106820782754935 9.441226642968699 0.6861338455921344 0.48302440916003264 0.04327603707981579
Ni 7.211759982330221 5.595210875828642 1.8577007586483865 -0.49978671622003595 -0.35400773807828706 -0.7776838871869897
Ni 2.661772812216683 8.54002973769286 0.13114784136789795 2.008873605249605 -2.283515245393738 -1.0382847329673408
Ni 6.255530387538508 5.3912707025574536 4.088284043508827 1.9174660027698847 0.14239694904339345 0.8798171036143299
Ni 5.107543670719415 3.3101984569006238 5.111361835247816 4.001238928431542 3.0419353992551095 -1.8493934754716796
Ni 8.731684245965505 5.767564669688238 3.5173196565685494 0.23887245296432405 0.27107654850069446 0.4079556530496523
Ni 0.12796681497116044 9.043396847276307 9.74873861030164 1.610606126021994 -0.7189976861996907 0.07620981169335908
Ni 3.883548147212296 2.1656166510340507 3.466297299158122 -0.9747334905782568 -0.40027088281088485 -0.9126171808634863
Ni 9.160255256871412 3.4538297279580057 12.08383773576738 -0.5809860107081866 -0.4516903749334415 1.4964139215475907
Ni 4.575752551074797 6.259224482708913 8.088013349534986 0.6828045241085854 -2.135503521266729 0.1868415525100137
Ni 6.124548593882815 6.751061537669582 12.692458572137893 0.1406894794339835 0.028563670570305646 -0.8945199570421434
Ni 3.699822883623601 5.445758606320926 12.217093823368893 0.18059042939397932 0.12427581396265049 0.20923226150038804
Ni 4.256241304404251 5.66116353455279 3.3717760382638615 -1.5863156289057454 -0.18507880418263606 -0.21385613342564458
Ni 0.7412817641945716 6.895205877500631 1.400521965775104 0.055284631504917685 -0.9762740955924993 0.4302093222415301
Ni 1.9936266695776008 3.225234267981312 12.82985092690748 0.9400979027822582 1.0508949655321838 -0.9419987193493969
Ni 8.32986743947556 1.9316199761491135 5.871806251712705 -1.4563777315613111 1.3931039112033299 0.06309152914384618
Ni 7.883180436597617 7.1140530307776455 5.511538687366658 0.5247423577241093 0.6241599749924992 -0.6551466531820007
Ni 6.781257967130694 5.165109987124891 6.615020885905529 -0.5553464557632113 -0.7352696838868369 -0.6698960435770334
Ni 1.7346202241071704 4.553242824695538 10.610448809903726 -0.02940519263499452 -0.180289867434425 0.7649924077622502
Ni 0.7643558662248654 2.432132557646339 0.9245573929670712 -0.4164271808557731 -1.339260897240945 0.08434221099250637
Ni 9.035644844532351 2.311934536760818 3.818673865765166 1.8350096959461817 0.9963852645200776 0.5243726330895163
Ni 9.312860567206394 1.7423349127584957 8.254104905798894 0.7441803561129055 1.54451591926114 1.380217285048649
Ni 4.328929156848177 9.107614400693144 2.1881496987212046 1.7104173791843769 0.2963993435361992 -0.5055323604545615
P 1.759312824905306 8.989272755915982 6.972039325635789 -0.9429425713199051 0.6310479603615842 0.3457665811154174
Ni 0.6400141153527437 9.078406794686735 0.7911147349024067 -2.1541563604812257 2.9553169906339165 1.1272919535356842
P 8.037157039836764 7.541411333673065 10.805512893390468 -0.18850377070378502 0.9212290909022134 -1.008818605187424
Ni 6.1215354809029145 7.5655162375122735 2.919034823856644 2.145497656364963 1.3435412697838538 2.6263343138450574
P 1.6986121247188808 6.169931859044481 12.85237837748074 -0.35419491438842876 -0.7821920594699884 0.2787230093023587
P 4.440815463600287 5.216388878922152 6.011520475896216 0.6451432621123857 1.1111690798318927 -0.13137848644570277
P 2.6991615330322953 3.341635579941695 9.097970573452828 0.3642852087448952 -0.25857173116546434 -0.44587659646514183
Ni 7.728513522644809 1.6415215629944424 11.426174987452795 2.5040459626260807 0.2845290744611745 -0.9510788272737942
Ni 3.926533981922461 7.9415583345178025 11.441330106174615 2.10802922710586 -1.2078536144398357 1.6796988670545974
Ni 9.274949449093956 6.282862960390241 9.543093182997243 0.34132988550030247 0.13007468003261471 -3.1806893522292774
Ni 2.1643852859772488 6.035451869204692 8.774375299343891 0.0961731421891634 -0.48728421287765117 -1.1105401879986423
Ni 2.8426248906728406 7.350764305901441 2.3941906554074817 0.14111139746275053 -0.6802503902281639 -0.2903533944524354
Ni 8.30329980552275 1.0225087518263765 2.1672603368144174 2.1712629382545257 -0.9894911085034056 -0.13924940455334728
Ni 1.2420089017244218 2.0882272229187007 10.66701417577439 -2.398659786479082 0.015140969406496504 -0.9688765175768476
Ni 8.512594551086393 3.5869570819399437 2.0408719079615207 -0.9087003623075833 1.3548602943410988 -0.10118139403703219
Ni 3.5296333071365655 2.79138331296821 6.256910076113515 -3.343779310845648 -5.6428409886144175 2.4460822416271033
Ni 1.638135309088238 4.721053627777388 1.175889262435754 0.1271058272122779 -0.06221941095153801 -0.1283705528573144
Ni 5.159335631290344 6.711844426315082 1.2733648666140223 -2.1023506886638437 0.3110158078977934 -1.5833246645982215
Ni 6.478183578263818 1.870005080693245 3.275438513910819 0.16130741279465122 0.022929097992347606 0.6948064336654679
Ni 1.8037725662743702 5.626862554902338 3.4839235436643845 -0.675289703788779 -0.1966945340446935 -0.7642110495115354
Ni 4.676967027334626 3.6095694220739367 7.808067168132719 1.3264971698173735 1.017880715389692 1.8268798677501958
Ni 2.216886214308154 0.24752116775880806 2.3843742504887517 -1.4892266597705321 1.3816447615237948 1.7386087540169286
Ni 5.202116238491042 1.128480774896576 5.1275272330276005 0.7965809812018088 -2.9187523041360053 0.0002977337460769066
Ni 3.408241235286873 2.2583794853131054 11.013342127966055 1.2471503551569296 -0.5329863429004563 0.14155825519218201
Ni 7.823673787375363 7.560217636358763 0.933213329604997 0.6359446263322531 -0.2820235344305014 -0.34621652416864246
Ni 1.7391725434080734 7.719511497797735 4.934880169890988 -0.42951692416019577 0.6707241959052835 -1.9460196460378616
Ni 2.4643439481094904 4.761334190771853 6.901164938093698 0.10437161883955573 0.41938163549840674 2.0602673863405485
Ni 8.915213610567891 5.249085352589498 0.12762818958054 -0.37442383984079386 -0.09625413193874391 -0.07318182350031267
Ni 3.503541427864792 8.143017120629073 9.07235724741904 -1.6856013485819614 -1.987502081552364 -0.6284591165884854
Ni 5.617319475712126 8.287254745691698 8.224341319812293 0.3061070577422664 2.1695297576135024 0.4695561994702688
Ni 3.658702753544953 3.4475609603961064 1.4502056801124177 -2.366400926445376 1.2090885152882016 1.512812417510272
Ni 4.636873034803314 0.31619775524497074 10.120406562798577 1.4492447200609557 1.8505443012466711 0.059177538801420675
P 5.0531863662801495 6.413592883920679 10.199240979151037 -0.2593680018145146 -0.1355822401144052 0.8809085369062959
Ni 5.6760891716049295 1.5480124468627805 11.979650259177227 -1.8595480474071782 -1.3107468489616523 0.9930145482756317
P 8.43560624946682 3.549279176906446 10.095380933723716 -0.5866717482390541 -0.17886419073149196 -0.11081094670699626
Ni 5.816949871284509 3.654570217786141 1.9672400089740474 1.1237050075153745 1.299323437616059 0.6995215797529502
P 0.17931100643052472 8.396053311278646 2.857390077126671 0.5351645814986977 0.09224423944840242 0.0004077769613799429
P 0.44999862859888673 1.0708305017826822 12.67636127257716 -0.1313705160259028 0.5122146575707436 -0.9567563372745458
P 7.250809180267885 3.5895410828545957 4.683305758820208 1.1244421427917153 -0.6654696323745636 -0.05857127267598945
Ni 5.94275433458774 2.2734730357820827 9.531515552906361 0.33662450960483314 0.44030630146621585 1.1666522005008617
Ni 2.0155113849053024 6.978239062126322 10.712465539155106 -1.2461442824899183 0.6596998197703219 1.8120644000039179
Ni 0.24936168537780018 7.251965917139426 7.355339946510237 1.4810559510342816 0.9933176813383473 -0.12465608012020468
Ni 6.532410283378877 3.8104498397494364 11.936355650350546 0.23237964615112883 0.60160754361328 0.20889133322120151
Ni 0.5187367843378896 7.983322132694324 12.573046945754557 0.28510140202487677 -1.5192304052214738 -1.8659354389907605
Ni 7.254671188855127 9.421901674395441 9.589527772718771 -1.2128353839251436 -0.23225674742001937 -0.17133034424829202
Ni 7.399571139061941 6.947361650474705 7.933130946697237 0.10175449293168283 -0.05098471857798316 0.9619391670270658
Ni 5.079856613987695 1.698015099236795 1.1246542146973333 0.36555687636846723 -0.11824374883595765 -0.3000911905654896
Ni 7.189418169367799 3.1328259175822453 7.685706795579269 2.066458345642609 1.420188683235264 0.4969204504158346
Ni 7.378964431406829 2.326654946303492 0.3638207988167732 0.027714692306449042 0.30460553349607544 -0.7658871516623776
Ni 4.210335641945761 8.06884603300309 4.215368380189279 -0.5274060205992014 0.10339948473427354 1.4275533511304512
Ni 2.9017490704456335 7.176833991628213 6.748781646609867 0.9359396576395106 -0.07234312964910122 0.22023735436164005
Ni 0.6560423838421113 3.5500534443285257 6.052970835694643 -0.2531251062285963 -0.8375288843690802 0.24797030150053426
Ni 3.8457769569472227 0.36412677437634206 6.776524674480534 1.0491242467850062 -1.197114887866093 1.971670513836746
Ni 2.240729919498949 0.10418001377162685 11.348337790225882 -0.6891775175144648 0.2110528596488946 0.22430972465880078
Ni 4.491096203419686 4.166025156947217 10.256366056411158 -0.35877379200836274 0.8679666320336471 -0.014847349425477652
Ni 9.295752055735377 -0.0046409402709000225 4.811537503849044 -0.3078399812729731 -0.019982613769513973 -0.02209940300220065
Ni 5.624586395251887 7.292283794226522 6.144939812652987 -0.7891636056918151 -0.1353953209145797 -1.1954431565906252
Ni 8.296238113492455 0.210749062323912 7.138362229274004 -0.903024909189361 -3.595104644861344 0.5628034262618887
Ni 2.9432796555432152 1.4262472340867844 0.32158964163005666 -0.1647876580337678 0.09926977883661614 -0.04024007846696941
Ni 8.70056429271179 5.640967281916612 11.466002184221802 -0.8858188297237195 -0.8599077662849125 2.042442956564618
Ni 2.788808640576716 4.10394383533347 4.846161250400748 -1.12922285200981 0.8512516332718113 -4.0551950709330224
Ni 6.67507138802787 0.1278044986682184 1.1117705913643887 -0.524879911743238 -0.9406941416053605 -0.3093283928930414
Ni 2.5433658677774185 0.80064661986483 8.87079491470072 -1.3192859967809152 1.5723038880076858 -0.18751492442795448
Ni 6.081226932338977 1.3437271182347612 7.398784744559756 -1.114452378568855 -1.9768384311909313 -0.35183387035541985
P 5.526011891045655 4.93638392782399 0.21078917497348962 0.2873822276392535 -0.981382106243026 -1.2369865272500502
Ni 4.376392682673984 3.1635913869559706 13.080497149924081 0.9544562283864595 0.9851940237899485 -1.9488928538205985
P 9.10297812468382 4.8093201138944845 7.657212821594416 -0.31610042150955237 0.8833215172231627 -0.5876397685792782
Ni 7.698512992170006 8.760201541258251 12.406627958327817 -1.2064451641280836 1.4168182241011342 1.157179485123736
P 7.143680420326145 8.971576547486038 4.522635007363176 -1.4857680117979704 0.2109970667102947 0.29709148450721734
P 4.94474228457319 9.013900057052014 13.679724163474903 -1.1368268896093132 -0.7674156724917622 -1.578400487823727
P 1.7855353035012855 3.1824723178269285 2.8317627583081455 0.20447340665916397 0.2557026371477854 0.5809423019544446
Ni 0.710869845848519 5.81443117003196 5.581170515624157 -0.3231709552030886 -0.6755660973786172 0.06173064424057756
