# total energy = -381170.2274927003 ev
CRYSTAL
PRIMVEC
9.30689576995179 0.00000000000000 0.00000000000000
0.00000000000000 9.30689576995179 0.00000000000000
0.00000000000000 0.00000000000000 13.62158271476354
PRIMCOORD
 96 1
Ni 2.3082218126486995 8.636082564788879 10.608120691501025 0.10577107029024364 -0.1305503341174526 0.14842412907407987
Ni 5.9224709898893515 3.598464682158752 0.9530521774603739 -1.0215939025752212 -0.3932245174870647 0.7717628937168644
Ni 2.2174888866148295 2.454991557602452 4.454094136966819 -0.294807316458731 0.6851457706472522 -0.03890516170562977
Ni 1.5661923265727509 0.6236485650304037 5.742600339742035 -0.0646745573602499 -0.9985318785494351 -0.0356408891320612
Ni 4.118710844059183 7.8542195651807765 3.2873919314701205 -0.5037289886972357 -0.8741321374144108 -0.6261741772090507
Ni 4.135547018353497 6.885502020903272 11.715282962541975 -0.2148262106483978 1.260407734387468 -1.044889382768052
Ni 3.2925563278857726 4.613372349721322 0.415049389282374 1.0591677470639371 -0.4398743561351199 0.7605973640183481
Ni 2.4514549372421204 6.782912109766606 7.459887325693395 -1.0138906203936926 -1.6991852579139832 1.0366011746173307
Ni 5.7053318066606895 9.099798642298117 12.896382935663496 -1.380873687685725 -0.19200381343724354 0.39239713648976293
Ni 5.934281440513722 1.9483520771936116 10.421899946427777 1.3116575337013798 0.6572984094176808 2.0093407746940106
Ni 4.876338687303329 6.256551317401075 4.965857063450296 0.6752557652270499 0.6278572213384284 -0.99598262976502
Ni 3.7179745296508973 0.6638543543899604 4.088299631718607 -0.8682031735244855 1.065197755308101 -0.1650571096450706
Ni 4.066126883438466 3.1932703647173124 9.715893730790508 0.5286910579592121 -0.19832024257357458 1.0870253927061537
Ni 0.08122779347069518 7.906468477556829 6.620429532827728 -0.24891209658851327 -0.04292816682209381 -0.49811215673109055
Ni 7.756515774278779 8.512840652127014 8.738218299416111 -0.07246294305641714 -2.1695901785377925 -0.29063235914543495
Ni 6.1811096209777965 1.7964076982389534 6.212204890151226 1.682251201162806 -0.5888615568015214 0.810369550345469
Ni 1.7117707888788125 6.544916173307674 4.760866171159374 0.09819402927393411 -0.3508493949549635 0.548243526169843
Ni 0.2212258411239813 4.839985952757398 8.134278016688437 1.9088942019404735 -0.4508434535521138 1.3995463243945638
Ni 8.138740673169435 1.7973197740160916 11.579625651036212 0.5025233984249088 0.7314533954645402 -0.03732136215827766
Ni 7.897524550803465 3.147284993137319 7.56500498969813 0.5714099369839772 0.11457401329385429 0.5158687093835632
Ni 4.124118150452216 5.696201741993623 8.997463740103223 0.9471098153237173 0.3836235040621909 0.6435347799746852
Ni 0.8389738342900427 4.91695398007303 0.9887906568910909 0.28336127940531847 1.6701901562332138 0.3430185860566351
Ni 8.259935068780582 2.455252150681634 2.023826347751789 -0.4783629991286213 0.5549191384178056 2.45854412153954
Ni 0.030904477811885198 6.639716212755926 2.4731344200509517 0.8337794446289769 0.8827944410750991 0.08815644253227398
P 4.492866664390872 2.6026547645419718 5.2771373579127046 -1.9554414535723934 0.1707680439869188 -1.4720820296704453
Ni 8.1217928161269 9.104796445281005 3.9755810260078666 1.0565855881590578 0.6290802951122519 0.14393292607194566
P 5.985841642609079 2.83238617763255 12.477464669844833 0.17852326245230546 -1.1645726922640138 1.1649982098372065
Ni 0.698516956679482 4.452325826786653 3.571184309526638 -0.7247358742350486 -0.36511104708030023 0.2126186614741177
P 2.525928716514151 8.872756922060528 7.54248788627764 -1.783006306295697 1.3846637508557766 0.8887676279393983
P 0.8474980200480098 4.86617555721522 5.981086749603571 -0.17026822153236482 -0.2690633747254076 0.025645468482246154
P 8.215364345344721 6.306417664481748 10.104558070805673 1.6521744363820836 -0.22264467825155204 -1.6707252028010775
Ni 2.9483873254514195 4.6092680087242 4.045514901564714 0.9932999407265345 -0.32373582656762306 -1.794257453729484
Ni 6.348643050204967 4.467803194310945 8.470989403610336 -0.44860196581610484 1.2198478106872346 1.1430178489113734
Ni 5.852129472301497 4.208801594290782 5.940958207478199 1.2372487797725016 1.1679680910988077 -0.8766464191958322
Ni 3.7481009509835097 1.8080506247409918 11.720486447919505 0.7515545370897896 -0.7134610726521778 -3.5851819864309933
Ni 6.0905628328576285 6.720230167327575 9.771578749053495 0.21944956835302207 0.25456081023385835 -0.3915301605037773
Ni 5.247078876918594 1.1814545658471223 8.5544080403253 0.8665147300784689 -0.48277089838832987 0.883887931249594
Ni 4.18550643439102 2.0248547597249904 0.14126378546645735 1.3085380142357916 0.6366737911887939 2.464984992068877
Ni 1.819218899563091 6.0770492203228885 10.433369764670072 1.2030590212646701 -0.2857606328754304 0.13874084034804493
Ni 8.653858735547386 6.954214831746235 0.16534444736204001 1.738565816594135 -1.573844235911612 0.4289309697497387
Ni 8.04409885094783 9.115071258117338 12.823467130729147 0.596134950534483 -2.4947750788471166 -1.1017827535209863
Ni 0.5972151199056323 7.446168030764015 9.059877643946523 -0.7785308085683172 -1.5468872477067939 0.26257391034632194
Ni 7.223593620455266 1.4867021305264605 0.33979010801452225 -2.3239363295232622 0.8077755643660476 -0.3148282396653481
Ni 2.694309073248665 4.206363187621291 8.366553004369749 -2.877700014180386 0.19512744666788975 -0.4085439214529545
Ni 4.04291548559987 0.9672284409678917 6.806963920285565 -2.215302850083559 -0.13523411274636712 -2.2825608519002687
Ni 2.7234210429516033 1.1977044057132764 9.223037762891275 0.6038040370439666 0.223034457490803 -0.9361882833152071
Ni 0.6022399128860083 2.3426387128921347 9.615679870122243 -0.27641672976668524 0.16998874261873306 0.3331182962237876
Ni 8.257803789668698 3.986376094312994 10.194133219016319 -0.8587679962535145 0.4024020702212747 -0.5911097294057497
Ni 5.754183702111688 9.205292304888529 4.63204663591344 0.4692546090694499 -1.3601701365897867 0.7484954385484915
Ni 7.741997017010051 4.2219615447894885 13.200975294886604 -0.6529766421138754 -0.5089794384628976 0.3750892413389346
Ni 5.879556893885436 8.66785630665775 7.276376748643643 0.8401578373514951 2.055435512169544 -1.7791946458590906
Ni 5.2800345945394715 5.559529978858186 13.164347076228394 1.0148817806623682 0.00023628438052217374 0.9556867583594509
Ni 0.5380093030049794 0.27415787964331995 8.474163985728516 0.6027280303709684 1.2777325988191608 -1.2652892308494854
Ni 6.563492737095099 7.292957913996186 2.8227321347384136 -0.2902335810451195 -0.9342514713038104 -0.01949050462444385
Ni 3.5181368655008045 4.5365346189452795 11.66041508972014 0.10142796283019952 0.17486201155063433 -0.4014700453253086
Ni 5.867979115653193 4.296593541288166 11.0266573745966 0.16493189692111593 1.648490045551961 -0.7612797347973534
P 1.2759288639463955 8.225164506501113 3.5903360394674007 -0.2233375905535186 1.0975736005356453 -1.0645418668916569
Ni 6.753800140063667 9.03774956876567 10.7301564304821 -0.6656560373537568 -0.35138084197840125 0.016843039699267766
P 6.596420534028922 5.117955006183759 4.060417102935668 -1.272158961386125 -0.7087716375963083 -0.8553281173340301
Ni 4.655281300991248 3.2555148830591443 7.500138718841809 -1.3800342225035653 -0.4263781214208979 0.27290845950311066
P 9.060132652888296 1.9132743873565354 4.2002420423292115 0.30792688455982453 0.2918891143706715 0.35074757926977657
P 6.651973394373179 7.304712523246446 0.4008200764694512 -2.0181601727578533 0.56027037542739 0.4691998445721145
P 7.315648125676417 8.151705178858755 5.713994665164365 0.8187703728146545 -1.3080533612898892 1.1416747046199176
Ni 4.1098041448885585 7.654865859606307 0.6138809780089096 0.8651366187840197 -1.0765165227550297 -0.17468589098408627
Ni 2.319976421898959 2.8177650445112854 1.5397021093843002 -0.9036687134209468 -0.3343146305247339 0.03905094325487468
Ni 8.206681011670538 6.322862949157289 4.458193824516098 1.0119216695927797 0.8343576857299501 1.4146731527336733
Ni 4.765279501093239 5.251285593768251 2.6253691741509844 1.4693551176575856 0.15320663806438778 -0.38179802081767794
Ni 4.3166126739067785 2.8912895204234377 2.7754931243096403 -1.4495080010246713 0.2627837123642829 -0.6199675341777064
Ni 0.5145522031202974 7.619155300862645 11.853555511735248 -0.8203649709952838 -0.4714194779312526 -0.8160776564738397
Ni 2.681037440001737 6.104011297122572 2.1399643069372285 -0.8628606782656496 -0.16804704551132996 0.40800758933351017
Ni 1.3821298506088728 2.6509761669389205 7.283841809672647 -0.6441220199367229 -0.24175620227002234 -0.7683446120639348
Ni 2.551597134813609 0.41952879817560423 13.100365891151725 -1.1487120710826735 -0.8632077771924231 -0.4111638755743047
Ni 7.968014978722281 5.771178093632649 6.9547164734236615 -1.2808752582132006 0.7978847876148968 -1.4214590653072552
Ni 3.3653641728301738 5.023787835642094 6.117901838932558 -0.4757427878969549 -0.50930005502711 2.1298200977287065
Ni 5.799619966846262 0.07999742186112728 2.1609141291243494 -0.2160510841944344 0.8499496266309363 -0.591074248182124
Ni 3.4149420061446087 8.06543025585804 5.783710759362181 0.9815749389801225 0.3030147919701878 -1.3960244272842344
Ni 1.9441453603439542 3.043354889022002 12.625327044352014 -1.1259889184535448 -0.3150069313350575 0.6014669042703576
Ni 7.21336534209736 6.411408754705164 11.875418340389075 -0.3005480755972501 0.4383175531709613 1.470165529374023
Ni 2.090431146722082 6.293806820828461 13.029166277781705 0.15159429927194534 0.789983273379633 0.09050797348358605
Ni 8.126585867404717 8.7146792988494 1.7012400364111415 0.5007146273509442 0.6917751030383118 -1.0011862854531468
Ni 5.712181681884911 6.565121443839988 7.230948860115186 -0.6243690056795118 -2.2801183038970474 0.1108842231470929
Ni 6.070264493368462 2.028847417973891 3.700548298170149 1.9390563273461507 0.04540799582115406 0.321480197764227
Ni 1.0184908224013265 1.1577964370156424 2.611366018903209 0.44118561874737566 -1.4478193004683386 1.2739875299544319
Ni 7.504391970169892 5.009641354200768 2.0230911029926673 0.16997074489660402 0.11997512970476756 0.5351620103955363
Ni 8.134841083877387 3.6592480178780264 5.2174336220929005 0.3992468124217447 0.3048996676977265 -0.6228926782443014
Ni 8.55670405149081 1.2549604279679045 6.349523482536777 0.7470826173613649 -1.0623975668551446 -1.2264475753919395
Ni 0.14744263351178366 4.908912822201119 11.987155999294608 1.5578789708316074 1.0775799310225378 -0.20897746517710464
Ni 3.4859629271174737 0.3018235577567964 1.6336366075338389 0.39203615360591837 2.0580847768669326 1.0550228716576282
P 1.6501219118608255 3.9545465110700113 10.56714708324745 0.1793177333291428 -0.41826192007166674 -0.3075826138465283
Ni 0.2371369099871985 1.0154381606166194 0.435618559435975 1.4951581947636186 -0.3404081450169815 -0.9413176341219724
P 0.1575890111876607 3.1257860641047785 0.46817221916325685 -0.0376625475477803 -0.8076140990875188 -1.336689536969343
Ni 1.8938974305401934 8.115417592582618 1.400107981003747 -2.2083698704091517 -0.010017275026685974 -0.0948762777546108
P 4.481186510306094 8.985863625321336 10.737348799467533 0.7539757449367724 0.5522295074007845 0.5980195691517055
P 7.587744527925491 1.1773874524327412 8.328603206524257 -0.5685935505811045 1.1975810288692343 0.5219822784804689
P 0.6685143170594814 0.4579523170114676 11.645485898351698 0.08529274783123375 0.5964216285369663 0.5161607867026853
Ni 4.231333588744367 8.10152239732479 8.717663089606038 -0.6290576694044328 -0.024348089827061294 1.1036257202669961
