# total energy = -340892.28556985967 ev
CRYSTAL
PRIMVEC
9.07552723425469 0.00000000000000 0.00000000000000
0.00000000000000 9.07552723425469 0.00000000000000
0.00000000000000 0.00000000000000 13.28295147568497
PRIMCOORD
 96 1
Ni 6.239869677313484 2.143349116865519 11.31053918048913 0.704620334432096 -0.5196564585607696 0.20555429842816858
Ni 4.444957277716256 0.437754426138857 6.025213491962688 0.5052906767574007 -1.1381630919222334 -0.1316116855024314
Ni 2.9075175858756883 1.8044870808338607 4.754326572880914 -0.7526703958617876 -1.1036645439247315 1.3168223657317708
Ni 3.1705535918295573 4.430499962825302 4.759387994421834 1.2469670355015299 0.009590986122544772 0.43798485242189084
Ni 5.041174039650474 4.3563982829228305 2.905618985577391 -0.3150601531704961 0.548015726429753 -0.6563620136463405
Ni 7.123045535002295 5.752831508058597 2.486688110483937 -0.6953877600902346 0.6261063000855928 -0.878219934330539
Ni 5.152848402320396 4.525257542722634 11.685517277166458 -0.5428506372890457 -0.5109321913138942 -0.8544259172347348
Ni 5.534610455608513 7.689058942286736 12.50111675903729 -0.14966237235655516 0.8436846195578309 0.7020528308152361
Ni 1.8147878042495746 6.5281810266266165 0.32346086630789933 0.2386557089678277 -0.6674054159446957 0.06297582950158832
Ni 2.942458365743969 1.6089548464800631 0.344860051983593 -1.3196652344972046 -0.5372695436568424 0.9378196482710429
Ni 0.43602916841081535 8.914218817377256 4.838779799151636 -0.2814375800200444 0.6386759092204871 0.05266699137641252
Ni 8.407459527433076 2.456817827683814 1.5108692707443687 0.887703191230626 0.1183152255038414 -0.8926217115781659
Ni 6.955919700905048 0.6168300069510557 4.794720837066819 -0.2941488569391257 0.1725421051682061 0.12997697811248582
Ni 0.6329436055630385 7.341411795888195 2.249148890753951 0.15324314772927802 0.09587797954624779 0.46377995910812386
Ni 7.646040943176176 3.8032630487898422 3.8594541756871052 0.20357609165587523 -0.6887908235990073 -0.3195084187498368
Ni 7.628071399243917 3.773849265009816 12.722875452004946 0.3351216998070616 0.3219136857572198 -0.7140879076028992
Ni 8.09442644192223 8.936462934638854 7.220253507254025 -0.7798592975717537 0.21597009444485385 -0.7270113005327866
Ni 6.875201961645699 0.7658528868656374 0.32153866963878197 -0.7009691108327541 -0.8080532435074664 -0.3390176924273581
Ni 1.858531845539215 6.428522662020487 9.32204215468349 0.9431685712877821 1.8396901321409864 -1.2613932382291888
Ni 0.018176465953297066 4.784899301489299 1.3972872322489107 0.5727708218872458 0.1711737640657697 -0.7164137275225985
Ni 6.473682485559335 1.8948248789660351 6.940807132947474 0.12775580209145093 0.4194451417464905 0.45466154174662343
Ni 3.524353945695811 4.163897274666698 0.8251914066092174 0.12694821858849106 1.2640054790410553 -1.2465021800499694
Ni 6.102956273393253 5.66269337152567 4.635856455414792 -0.47965549268779967 0.0706433733491751 1.7313060497079282
Ni 5.169474768221354 3.079535129154494 9.119224087062612 0.9333415578950313 -0.6048540755750357 -0.047457936371647295
P 8.998203746442469 5.700002864003204 12.557197164502243 0.4877644949481793 -0.17234207334225804 -0.3156862167902692
P 3.822820809988841 6.015450039759495 12.68134039404516 0.18133039288379738 -0.087602626911333 0.2870940069748733
P 2.4571808487733544 8.458110044951226 1.410396831344945 -0.8705606180130685 0.5002842246817448 -0.03852360999649495
P 6.501444523381952 7.813366438872671 5.8887574946152785 -0.20787446192091297 -0.33234825082698244 -0.12782136522206372
P 4.843136959778847 0.763404309616686 12.46144036905595 -0.00025325366138666066 0.47816245308204103 0.8603875341348086
P 4.189435808315878 6.202714468799005 8.261796407702192 0.21182624747980938 -0.301513524834313 0.1859727767518152
P 4.782104039099836 0.9257037783284905 3.8506082592877253 0.6282200039944859 0.1495988661084714 0.12242744790000205
P 0.07925294916305271 5.579552466493637 3.427891074230363 0.6094249827751698 -0.3991226281390546 1.2489035904026105
Ni 1.3966238112077753 0.8130710399821811 2.8033931543154864 0.011143932431961453 1.2436302578188132 -1.001565008948804
Ni 1.7596539762755985 6.5124349868677935 5.02257646923331 0.7665659228969572 0.4416458462132459 -1.6540158604661965
Ni 6.334119027685459 5.715022861582946 9.186329443016914 -1.323838392038288 -0.5469983409088321 -0.37297913697446733
Ni 8.695925160709264 2.599158396892677 10.265755409264088 0.6399236655846592 -1.2187219246129075 0.9595536975140248
Ni 2.5264724992394134 5.272663512923266 7.159883100063426 -1.3073589063260258 -0.5411467672240616 -0.44643529718208913
Ni 0.5659961637826877 0.18110577625545454 9.224492035054869 0.7287275118929449 0.8507800929520315 0.16597216526017222
Ni 1.6173406336484508 1.079706400038845 11.471687872347092 -0.5000551393900743 0.4381874553510002 -0.012174687689320968
Ni 4.060717605492025 6.875819097497919 1.674355818418971 0.5590624711622179 -0.7235847913497409 -1.5249739925734702
Ni 5.801294823512265 7.798727613436947 8.192233398971702 -0.5061347699252509 1.1906493347464073 -0.208298436832209
Ni 5.358881021689155 2.9142062494504737 4.806223160288912 -0.273673105583277 -0.1822369638584668 0.47860982503210475
Ni 0.7854396897517996 7.497701450462656 6.983750712734678 0.05320049528237935 -0.6746664683824832 0.8118283942791825
Ni 4.938457222364966 4.467555340540158 6.876716667141808 0.9414230493515852 0.25753814769462746 0.3421688364618301
Ni 8.508061746872011 7.33423305384253 9.43748376871012 -1.611654107670534 -0.9455823229355973 -0.42564021481360886
Ni 4.599413675788537 0.28585369653694254 10.289957117751035 0.007211430146774677 -0.36088415348314623 -0.15547023728758386
Ni 7.980365215588578 7.246509007555049 4.156089598583403 0.10403454721511114 0.4114212430007495 1.0284204385787512
Ni 7.511677762409968 6.216291457547823 7.093534643080817 -0.47955419122324505 -0.02723749555971438 -0.42947192985487326
Ni 2.285862121091914 5.1544819972233284 2.611627263765673 -0.9925666621049357 1.1123582150439875 0.36119037186965536
Ni 2.062486169170354 5.411573532835971 11.294467329302446 2.01662291017772 -0.7699456380024675 2.883766017868808
Ni 1.0943179988928535 3.1911731897154625 3.891466282915518 -1.0326457895140086 0.33173941359838993 -0.9923203504220844
Ni 3.600697280826196 2.3904303459340794 2.6824254517533253 0.17005353441839743 0.6266878836206756 -1.277894835428638
Ni 1.1449685164110035 3.305107358667775 8.284723004612127 0.908343493188797 1.2598392634785076 0.013855932046485813
Ni 3.5493660987651574 2.514592634084198 7.122411155648323 -0.28874645497663176 0.822804433674712 -0.22650673231011959
Ni 4.223859283131564 6.717024597405628 6.050052302461779 0.26418804891097725 1.197686444098847 -0.4769473497280173
Ni 0.9519229765205592 7.429698524864466 11.400624678964073 -0.24142067330747458 0.8038919130409252 0.40918232636790175
P 0.2575262533673668 5.664190833520025 8.174248426643137 -0.07972785214894657 -0.8303971584203054 -0.8691349413101356
P 8.65121911353234 1.9023121889378096 8.075901475722974 -0.9339082290317787 -1.7310836492844768 0.07821321527663305
P 1.9255909163045997 3.326144430806652 10.743662690564307 -0.516056399914337 -0.9831607954100036 -1.8588278814117019
P 3.7786139168100363 6.410879837068815 3.7217366800535414 0.9336238650221405 -2.1960548004872247 1.7632301521100342
P 6.9740344532731235 3.9740463203642102 10.404097301171664 -0.8804411103515739 0.8816400157556816 -0.2153121491458808
P 6.383489895862978 8.112994970652231 10.504038822227633 1.2072224086137402 -1.251207813055755 -0.9876491701986603
P 2.306790286903929 8.529389235882519 5.797078333557251 1.0330972752291305 0.30956030639818943 0.087638622355591
P 6.567659570114154 3.78940471869663 1.4150598372400938 0.47409085411582863 0.581002979989051 0.8045022929314144
Ni 5.098059444381484 2.6288988996532896 0.29343357688654986 1.4826034980270595 -0.09192002333976429 0.5444735176044495
Ni 1.4164719892784068 1.0781817114627745 7.118387066870766 0.39270669731038177 0.4290099026167902 -1.0734224572107385
Ni 7.16358591517674 0.8010877138164464 9.298397683568988 -1.5958891315267936 -0.023940055755365224 -0.10134183087429645
Ni 2.848572036461536 1.6322335738468534 9.307642923166863 -0.36358946822945126 0.4615186738777729 0.11936269293174927
Ni 6.2990784170175536 1.8723538735234728 2.6008818395152713 -0.01485069185958733 0.3884114123691375 -0.04873603175312252
Ni 4.195362127602627 6.749124737248255 10.577546055095985 0.12045052667928934 0.38794475714536414 -0.7150561850534395
Ni 8.252331540345144 7.61650917754205 0.07124470392778742 -0.9587633404022455 -1.3552397891677046 0.4361328868148167
Ni 7.691246144351218 3.8844799420473093 8.261251876067881 0.23278536622997975 0.2540573882348786 -0.6220028194401804
Ni 3.1654985231577046 8.36961457884847 12.63365394372311 -0.08073212504374483 -0.08857090436187327 -0.803781612715306
Ni 9.173633687962957 4.918554591130904 10.301765286241068 -1.5489379595882355 0.16015401591649836 -0.23117097055500832
Ni 8.629446923687144 2.420651851638333 5.903607779835659 0.6358001303345888 0.016108732636404516 -0.7016458251848045
Ni 3.7568326514376014 2.5826046352096266 11.62073616373794 -0.3965497252055558 0.034097198794025146 -1.3524097759180773
Ni 1.1988226950443492 3.422317792953191 12.770708018315537 -0.7087202155330826 -0.1825220991990534 0.6242967576806796
Ni 3.09159650485448 8.480399539849017 7.937878134821472 0.603982985823992 -0.4204645841499403 0.375541755495321
Ni 5.680499555967636 7.906145553832006 3.4917292403787985 -0.401308837157096 -0.07186464735078592 0.2794238920241252
Ni 3.1176341925017788 8.432380925230037 3.542416967558627 0.02920104704398842 0.22400222072071097 1.24585991848028
Ni 3.351628511292401 4.470087412639703 9.452984769233503 0.24304483917445882 -0.37562274524490147 -0.018491373935968152
Ni 7.017288416091884 6.108864441625525 11.362821477804765 1.7395857732182172 0.4195991508258516 -0.17831705997877034
Ni 0.6326876756949124 0.28011614821675357 0.3698958014237594 0.5092902848350971 0.43262281677902914 0.06519186331630063
Ni 4.601637179961973 0.2082116534587261 1.6260195603466423 0.27686178772390385 0.11846203549435082 -0.5778384662181403
Ni 6.208422975432031 5.615509705412633 0.16491140545104904 -0.6381426624248364 0.37577058367667543 2.3795917141040372
Ni 8.265572734586138 8.955902713983752 11.330171361011486 -0.7007477388505674 1.1277616940832513 0.22210834613210778
Ni 9.061088074678137 5.039259103403148 5.6505811728731485 0.1698103080593398 -0.7443431069430149 0.1870045604504392
Ni 8.056735777300679 9.060098842209138 2.4036833383604828 -0.7568144999371482 -1.4575537541472834 -0.8733708337683539
P 8.525976837640838 1.6370889809194584 3.47957529430098 -0.09781967665365089 0.9281841820638079 2.7445047862409186
P 1.7677947242085459 3.2407890971284217 1.725721487483516 -0.20058795556182873 -1.2484343640756757 -0.8550098147626629
P 4.884693799004005 1.080005892437716 8.146540841983953 -0.2581945503317037 -0.3145788426587034 0.7255102905072279
P 8.45741122935386 1.7717879561934926 12.47563993897333 0.8868840377634403 -0.6231991537411268 -0.24006313083831557
P 6.4081481033700225 7.65872853025562 1.3983626822266748 0.22457120585030355 -0.04255329998117833 -0.20805212514935784
P 1.7338885544454554 3.266273177614171 5.9412512517155704 0.050047808586010586 0.23741078081713304 1.7182206772788797
P 6.971329946156046 3.9535810064413597 6.054900449112594 -0.6430156742464217 0.8123086763497108 -0.5506626771342968
P 2.4477241493908224 8.547994066721474 10.125009410191034 0.20861082586630522 -0.15674884688969135 0.4979134104567231
