# total energy = -340863.97687782394 ev
CRYSTAL
PRIMVEC
9.27156388156221 0.00000000000000 0.00000000000000

0.00000000000000 9.27156388156221 0.00000000000000

0.00000000000000 0.00000000000000 13.56987092470326

PRIMCOORD
 96 1
Ni 7.01522659654224 7.68295533409922 9.447086332860664 -1.4271162635930326 -1.142555307452658 0.5328822132224241
Ni -0.2602231207218128 7.338896881163161 11.235825915679422 3.0020321353022688 1.9185386670087732 -0.0738834775530276
Ni 1.3841053692247007 6.8623848709055775 13.194771935566141 -0.7946742510973992 -1.1471930633349856 0.18492736620643635
Ni 4.838931020246058 8.254732660153996 5.267565603326502 0.911988546140552 -0.45159472989584154 -1.1869880838447364
Ni 7.788799503942601 0.8886534088833689 0.0014166949152127424 0.7068024296850796 -0.4327423730760289 0.5773944367021863
Ni 0.7431946293264438 0.051353336363745665 3.4183179422638856 -1.0635553346086717 0.2224924689444039 -0.2713940797411133
Ni 0.7633964392135973 9.183316839069029 12.365272956643768 -0.3297671203633675 1.443518616210456 1.6946737431968748
Ni 7.104344865685073 4.331943380496953 2.3422408027422046 1.125195733128288 2.512402819231209 2.452785364678892
Ni 6.355100541121874 5.90982442856947 4.657382679449175 -1.0826879416730644 -1.885139265612721 1.4364038595425455
Ni 5.540269175785014 7.660981728411692 0.6433232007420941 0.14974259077518728 -0.23779850317385492 -0.564589314517718
Ni 3.216444479784218 8.792585335065032 9.162566152617865 -2.028803254293996 -0.5403736365034629 -0.5510203175840317
Ni 4.732243138116784 0.345747731820559 7.136380899327315 -2.2275716401485828 -0.41928804734333597 0.8621058023774958
Ni 7.495577034122456 1.9249249444817327 11.55709208386373 0.7589032641453768 0.1137530600544557 -0.38292210711979213
Ni 3.3614610057583185 2.4731432274765903 6.176123204906067 -0.7273884813665473 -0.1949605820727223 -0.39253623317078845
Ni 2.550338265853955 4.51221039120691 2.333882488173721 0.43623187428652616 -1.1632511452391128 0.7344793267750577
Ni 6.3321997790762214 2.6517413567419243 1.35850658217691 -1.5528570921369835 -2.7854148941917187 -3.216832120698421
Ni 5.164316544129508 9.378001131147805 10.10097726177265 1.1705525639965324 0.3644165921164369 0.9630575969022253
Ni 1.8864201409288628 4.5987697088013215 4.8588009081570025 0.08722827429104978 -0.4641093174230846 1.0882209556761517
Ni 6.974116483623043 4.172379771263895 10.647815936106621 2.626520461713935 -4.654510218967699 0.2803584880232526
Ni 8.736826151687485 5.648431236523706 9.642342680412405 -0.8845502474239412 -1.108742472668271 -2.0043438357000514
Ni 4.344061314097628 2.5571992229040688 2.573539426559638 -0.14183799121612992 -0.5358263834524126 1.19660503810921
Ni 8.523663633391305 2.4149363513135955 2.209296779707231 -0.8940579298040603 0.09668993392458186 1.199577747584289
Ni 2.2746483227659255 4.290249159072138 -0.04699013854241637 -3.699550311471945 0.3186434996463803 -1.4395112948232758
Ni 8.212788106512487 0.10683344567749914 10.253475939556807 0.6484054778034253 0.9148735809978308 0.19695370124335113
P 1.2642611383736542 8.68591599606292 10.424645692080857 0.5071428994747911 -0.5111702754666293 -2.0741991659302923
P 2.0416261152787407 7.562749512268505 3.69500828706233 0.18871331561142982 -1.0558137429900398 0.17725262326999797
P 3.5452790253198883 4.959646778073741 6.526388042503403 -1.0247175358058676 0.6286792030190915 -0.9042976052541974
P 9.102023769588758 0.9838983272406822 7.676394775709137 -0.19317880758195116 -1.096569327640847 0.675213599135205
P 6.320721583362653 4.00751282766237 5.917494793120226 -1.3090743463552357 -0.6465977351707252 -0.36845990894787506
P 6.2222853928206785 5.755267463670279 9.810419439325752 -2.2411532354877597 0.8229584427540729 -1.8238665348451688
P 5.541669181885782 0.46195287396597073 1.6543297255815919 -0.8249009111924245 0.22690628174138341 -0.3324588082629178
P 8.2552240530238 1.071987452825998 4.3483837170392 -0.13445506848849748 0.15231626503963447 0.17813116922020936
Ni 1.6418733799102023 6.040182612521638 8.279412635250885 0.7294278803940792 0.15439988704154053 0.32549163291646527
Ni 6.212327733534432 0.9268466878999093 5.522936914826254 0.7933660738089369 -0.45536191024775763 -1.0310712459380371
Ni 1.3091169629796702 6.584618097575351 6.004776365517616 1.406630742045171 0.2520496137762304 -0.034325769865063464
Ni 2.6219054651375093 6.751886376144416 10.88015946513966 -2.634428917927734 0.19900981244143143 -0.16219932848130128
Ni 4.929523467998307 2.5915689090997076 12.00263150882184 0.8003964982931571 -0.49115295180443796 -0.13600390103285612
Ni 2.2357633851062246 1.9494296870269374 4.094233470463096 -0.5521451752170942 1.4184889269353376 -1.2533117467726351
Ni 2.509163251989689 -0.17149611156210798 5.193311504917104 0.56041050054968 -0.29626333217896716 -0.5453417791420158
Ni 0.2889139742239452 5.523904866064136 2.3942950693126916 0.12612160892213764 -1.175960622385981 -2.7092117673665794
Ni 6.873464389385154 0.380792387844912 8.073353988970648 0.9391288540007696 0.30442118539941115 0.45892031702297736
Ni 7.6079576562906075 2.2976696151381324 6.78933143997995 0.7746026771585047 0.7740920560706733 -1.167740548469034
Ni 3.536693557443664 7.211422153484759 6.949117566738959 -0.4154409056831038 -0.5184051026521717 -0.3230205456681534
Ni 0.6096739150367172 5.058027339234227 11.485931906221392 0.8542317989460579 -1.0258992148187946 1.20785001489541
Ni 6.731340591248399 2.4523841966182047 3.600018336703501 -1.040574300332466 -0.4615636681830954 2.462748389428875
Ni 3.5816791839398174 1.6785053276196629 0.5572673290501432 -0.30793331231772775 -0.6859379275312445 -1.4324693003748297
Ni 3.799134436174109 6.22298076008927 4.323536853797847 -1.1862108393590798 1.8370994885956748 -0.17387650770891344
Ni 3.375368351130171 2.319327987663898 9.9326835482715 -0.558788905785857 -3.0079176475487683 2.9028284338168975
Ni 4.911851867812473 7.948984307935602 2.8993384621788114 0.45654513192258145 0.2209084122867357 0.0649344958898559
Ni 0.761218548928365 2.0793706506179492 6.063628542505865 -0.01826794507125241 -0.5477128504773535 -0.810072073709708
Ni 9.161686281234008 3.1668972440060976 13.501166515766146 -0.6012558167008161 0.5640586388252284 -0.522454847241513
Ni 4.84337209920147 3.9155574600636793 9.413473206253254 3.0204075524856626 0.6614761949444543 1.0972817803268393
Ni 8.69364848008967 7.501900240484859 1.2268615051996676 1.2186177949348753 -1.4377171790373304 -1.7141835310950284
Ni 6.792291850231439 7.254831614172102 6.983991625993417 -0.6451466045464954 -0.004534654645559933 -0.4882941421994042
Ni 3.0779644061348894 8.34520457757969 13.314309277662648 0.9416804167780298 2.1297812740709707 0.09162486069684865
Ni 8.759031546464543 8.210859621287591 6.108517744740774 -0.9207269544548143 0.8107223056991972 -1.2828367528149454
P 0.9821830879781537 9.024754558702744 1.0168661530228384 0.45201716214524085 -0.08683078174231498 0.48508874788822914
P 8.946845609929625 5.456259538175442 13.508358467636109 -0.1693469952696761 0.5533014003087245 0.3334967626091289
P 8.710615441443332 6.110869013264974 7.10708368556697 0.2428895445435172 -0.38429841864202846 0.012983813854177639
P 3.0522080025062177 1.4679110324354858 8.075796118817946 -0.3997314653676471 -0.8270778642390854 -1.2692145340458205
P 4.821648825730636 5.0376020846647664 2.2144944182508715 0.548151737786985 0.5061257710641863 1.8519303829609202
P 0.755324615959774 3.593454069687986 3.4359997411696592 -0.7137264104984224 -0.6892266255848453 -1.304233987543799
P 5.100936135488184 7.8366964014032625 8.333841349254527 0.6182333250954192 1.01375332348488 -0.1211994890301719
P 4.200704398004569 1.2002224487180626 4.566397117401081 0.9865505378178431 -0.0033041246725685034 -0.33567268721452515
Ni 7.70179515129629 9.199421545009635 2.1242134950349514 -1.3301748757792768 1.5434136873358968 2.18918738394343
Ni 7.303878185516837 6.239539772645357 11.572168573403177 -2.4030455742516033 -1.3602025324896188 2.4524899449256603
Ni 4.0898535838273204 6.127956504945192 9.065325066621513 -0.35256560631512185 -0.4051235829174959 0.7293939418323503
Ni 7.021225298179299 6.6658369945469715 2.663195446390182 0.33536286928359016 0.6598546001806314 -1.602718238633485
Ni 7.011925919907321 4.253821185761465 8.011447758938742 -0.2131958741338264 1.972481953994448 0.11266085543154145
Ni 0.39516702002125903 4.0651634100104905 7.2391051880256105 0.831434084325252 0.39593420310874394 1.8787493029259774
Ni 5.2238492538846195 4.838161480468815 11.858818431800586 0.9809187934533622 2.496497203744546 2.0797656042744763
Ni 2.9974223333046988 0.13121673073978965 2.469892617285009 -0.016025171783662726 -0.30037221214101817 -0.3686026051733265
Ni 4.303841271282229 4.099468195261061 4.489795459092916 1.5482918413638045 -1.7962654852984485 0.4291873087349189
Ni 4.607688952966471 7.367277137285323 11.515216139792724 2.6362214910517827 0.7760059852639345 0.04120629903498065
Ni 9.15089418122545 7.662326105130971 8.593717713498402 0.5365964288492178 1.6641128396908824 -0.13389276822712423
Ni 8.320774007543134 4.531782661926898 5.485959137795214 0.08775663599069401 -0.5452096244395256 -0.8896700851490098
Ni 1.1807521651974684 1.9673794341202087 1.553397630123549 3.6612933248732746 -0.9875409267555703 -0.78083580255241
Ni 3.0111071611506017 3.717878452948163 8.246328914923964 -1.9421714759363646 1.6315801571704998 -1.7771984413646684
Ni 5.553406981379625 0.316684161462461 12.828344908333994 0.4332038860934798 0.39722695377823847 0.6454512802711078
Ni 0.6626358676818072 1.7389837368600602 10.669839608237487 0.781807165326744 0.41467111739661483 0.11443054573745452
Ni 8.371452374078165 2.7066660993971623 9.100877804330118 0.5181359081511852 -1.0795907908049793 0.16019875311150475
Ni 2.953141345640719 6.778977884928785 1.7417475899636263 0.3415659127705085 0.07111285678642591 0.1408745988615961
Ni 1.4898568234322698 8.699480293582269 7.110788602374032 0.41144129760540754 1.4506382579743726 2.012397559242463
Ni 3.2933613712541456 4.328401643208921 11.199363637583499 -3.442931590267793 -0.023312449473695335 -0.5830801742330539
Ni 9.172237320589453 6.284182351289005 4.301797818668925 -1.2504020293250078 1.9791408540718622 0.44365413489252625
Ni 4.241703252160791 3.9972399352143615 0.48444476005768927 3.0168085222804946 -0.5188643016767774 0.25259520186705536
Ni 6.352949538371027 5.422817008337928 0.5107574575012349 0.48717314122108357 -0.23035721640446136 -1.0563575313086517
Ni 5.2883051639013665 2.5741754558213104 7.542541212286845 0.8921316593156248 0.29069869360699613 -0.0074263743710581785
P 6.9002684796985045 7.894819833494026 4.413043601454734 0.41356168638252 1.6404180671771036 0.876752348646077
P 6.957047535069989 3.3744597378992105 12.994534904058561 -0.7580923382083072 1.0660989269661316 -0.24423294594528905
P 3.7130201536315957 6.227848330969419 13.079387326797669 -0.6699299821387623 -0.9990090752961698 0.04159530694328321
P 6.173535511510544 1.99095702030729 9.907511253148447 0.19649321666716482 1.2214593781487286 -1.5878138107178266
P 7.072775191690967 8.251153836611639 12.191144648180948 0.6832051019811137 0.8761411974246394 -0.18313710707523298
P 1.2401179868081178 4.284658406232654 9.43840165925412 -0.5231631861624474 -1.0613079333353914 0.7888805272337575
P 3.7605461885490077 0.7742682746689538 11.909108319821563 -1.5626026015595218 -0.431842744079895 -0.585051953247444
P 1.657190002946403 2.2788112548139 12.506576221403584 0.6276497333133126 0.6284498606171048 1.088381649623732
