# total energy = -340863.0609012817 ev
CRYSTAL
PRIMVEC
9.29487723317953 0.00000000000000 0.00000000000000
0.00000000000000 9.29487723317953 0.00000000000000
0.00000000000000 0.00000000000000 13.60399237134850
PRIMCOORD
 96 1
Ni 7.148104332928495 5.103696134067293 11.381629882392707 -1.3964766843303047 0.3137740873692209 -3.5039742073024107
Ni 7.178349862726605 0.7891638724652537 12.770080950227708 -1.2276763055927178 -0.9932318064927603 -0.5319265341773742
Ni 1.4262709929104567 7.621111329208777 5.116787968339155 -0.2881941820175875 -0.23412259698416454 1.1937963650158214
Ni 8.51271311173918 3.7562828777294137 5.4339105822457086 -0.32740530499941034 0.05799791667102269 -1.1609006427290651
Ni 0.06569061379691594 5.5185915592665085 11.422347020632905 -0.5056658007086324 1.8273634922548334 1.0098557882026866
Ni 6.111121379048295 0.6638810136792092 1.155845841113831 -0.033400944057948925 0.1401860574350037 1.5534147644126666
Ni 5.355317749667981 0.2486268062273177 10.838042237519325 -0.26938399128961993 -0.059829827673438904 -0.15046481365319248
Ni 4.450080382560497 1.2411077479479014 3.1817832603761382 1.2852253076517801 -1.3676183653377154 0.7191375542116647
Ni 6.970432758837875 7.829372343546962 11.714969268222665 0.9527703560436043 0.5164168685775493 0.6088326006068095
Ni 8.984428120114746 2.399584039256221 1.552365294459677 -0.37351624042486 -1.2489817519387134 -1.9266376419668239
Ni 3.6466776880000604 7.843296069311427 11.507902645580565 0.42398673837058587 -0.4377187432446978 0.12491421887759777
Ni 6.414692062270876 4.292643755725711 6.970495034513858 2.0977478997845096 -0.38245879433012836 -0.7422360879023411
Ni 0.4209882170807957 8.536535881521772 12.086779220518945 0.45356779446181245 1.0141690708660598 -1.2947874974189184
Ni 0.889031749036494 0.7341065979704392 5.406920118377315 0.5477071940503987 -1.3591044143294333 1.535834332326742
Ni 3.7023075269188337 3.0384767055754915 11.340029730836338 0.3716763590026438 2.4966766667452034 1.4900823229026081
Ni 0.21192877280725045 3.419083329476235 7.4710539052340765 -0.4327909669257772 -1.455579918250364 0.8654999156607094
Ni 0.3791761423285464 6.246055108636238 0.9988432850355211 -1.150327495198909 0.7103292118914154 0.291764158757033
Ni 5.085840675326614 4.834860406239774 8.670490860560315 -0.13418613109782696 3.250738800748195 1.792419629189797
Ni 6.194989054330516 1.4333629840708617 7.338986715716735 0.4623424553306489 -0.3079770210714696 -1.141469016367015
Ni 6.402255516828384 4.105305509542272 4.3283137757482155 0.04558925859402471 -0.1381908813818459 0.6920921200580984
Ni 3.753875504583221 0.20017261236205994 1.22639488712509 -1.4809423082745528 -0.3814691767233495 -0.7139184719045705
Ni 4.068748758252792 7.970617294626274 8.683822502659096 -1.0120088299899475 0.10616856283897844 0.943672250397078
Ni 6.986354883159991 1.99593541524192 3.1746959166542394 -0.30172821194828037 -0.6131348275265892 -0.1305163955557236
Ni 4.83447931628227 5.251865768520789 3.0739440972791265 1.1904709001870142 1.7321748254661262 -0.8395736827132508
P 8.444832624918158 3.7874486003517442 2.9739005475323537 -0.9587103756771229 1.8529886490221052 1.540624554626534
P 4.832044058505041 2.4456494497293106 1.6322203713356773 -0.0480901706390075 1.9821099640025153 -1.4211523327001139
P 5.790420237491995 2.0179642737611334 5.108612194519113 0.34567350718097883 0.22121643044545775 0.006853532586723681
P 4.916209169851657 8.74501067803124 13.12075063424715 0.48018565415965686 0.24883059261830048 -0.7213438178343641
P 8.677390447766566 1.009358579399566 7.2902843486352475 0.6042951177477722 1.825792548223288 -0.9910653949690609
P 5.045222062782747 4.828995338844997 10.95842390765677 -0.945403888376204 0.43921898193930814 -0.7506531083214427
P 4.13062475452385 0.743989840697646 8.248957034198897 0.2724978543282533 -0.26469404201311836 -1.531961222524581
P 3.2126255212784396 8.810344368550883 4.092488803629975 0.26556384621258133 -0.6911546958454935 1.5012177706941372
Ni 3.145832535067862 6.096965281358522 4.573104586232546 -4.349134125854187 0.6308065337747394 -2.790816781933581
Ni 4.691914492667207 7.742883512947264 2.903608969614336 0.6117045228379658 0.14339299440807562 -0.44008415815308083
Ni 2.1964537970288385 2.0794777698287104 6.8877687701287496 0.7361101775102613 1.8838717117542072 2.369797096611119
Ni 0.4671540122256187 1.3311936959513695 10.462068180321525 0.948907016433456 -0.37729499074100187 0.06475451866856591
Ni 4.7292334238716975 1.8842853525698546 13.151278728306435 -0.16097779736937437 -0.9566519504861976 -0.0620350628548738
Ni 3.34303264576138 5.78040965494972 7.32387231620699 -0.7560112873095625 0.5593393789726883 0.1978283905388206
Ni 6.396576346973853 2.4395613052862366 11.241563521718557 -0.9378803263056493 1.9878993169907826 -0.17032864245665505
Ni 9.017815318343022 9.064633613854111 0.669246016690724 -1.4247349078450497 -0.716156874316786 1.1409298560340932
Ni 7.834140615454285 0.5676799660893317 5.0097788377593435 -0.8804223412984966 0.2551467646443154 -0.2949818943633823
Ni 4.223768717064373 3.846573313027153 6.53937075405112 -0.7472924193793258 -1.8341818007282473 -0.6569356267616234
Ni 1.2302327418434795 7.150074846855108 10.22016249966182 0.14174620283327202 1.9259285317149415 -0.8848289550066245
Ni 8.738569328261699 3.326469174925414 11.079553815393707 0.11727161473067546 -0.09453200704131462 -0.319232796490947
Ni 5.369901411700322 6.283587822012013 12.796132631517857 -0.5696533593041867 2.0260742853986073 -3.2315172335144218
Ni 2.5468334808854967 1.0310900018543854 12.565395675076164 -0.7520289056230468 0.09124510875992672 0.6479053982385552
Ni 7.061699156221908 7.854961139961897 1.0970260004044265 -0.5101968558097665 -2.428344458027708 -0.6288260130096008
Ni 8.499105411793133 8.287256574928188 6.6483931549918 -0.33337669209149684 -1.2208245727782072 0.22288636194871292
Ni 3.2190111017859078 3.8166066295394123 3.2387571385108944 -1.6032481429950258 -0.828760908368463 0.7622570111089582
Ni 3.0795321773389377 5.945375132164489 9.881164392706756 1.614399017405523 -1.6847091757849955 0.08908486788381431
Ni 3.7012943853244904 7.0199930430676 0.7010177652942583 -0.45733343215183175 -0.3703193307541171 -0.5252403804064503
Ni 0.7430408337546873 5.3556523652404255 3.478091856188989 1.5349290469036532 -1.00657943144426 1.0196545194606632
Ni 5.503877768955996 9.167760274305872 5.77424157456434 -0.5544913068517676 0.963138843762122 -0.41080906333804734
Ni 0.19478344267031306 1.9989562502709262 3.7456142178946656 -1.9005021212220363 1.4544190651730435 0.13761726826656298
Ni 3.5554484701240763 1.9151722288818156 5.0240901598952235 0.1725449333816835 -0.3916970250989447 1.0652890294703268
Ni 1.9243369776159693 0.045881371908245816 7.78095254072665 -0.09611194993392479 -1.0018519440616036 0.850858768708767
P 2.112047018879902 9.133136857434955 10.839946757819153 -0.16728368498274415 0.6141563268125682 -1.3098500481789959
P 7.515242680038378 4.5554656981262545 8.953943711977418 0.4984374012809932 0.4907688289921419 0.20828532420608645
P 2.0175924786806405 5.351757811772261 1.7669273059245199 3.341203836808987 -1.2194377197330093 -0.31940043241706284
P 8.570480772370788 7.14975882103669 13.057301944785609 -0.871069439328687 -0.7828793153450001 -0.2933633849233528
P 6.784005410601644 8.19585075438897 8.564651954996357 0.3033400365200905 0.008751520940384928 -0.28168929101953427
P 1.8594587360699308 7.162855302747057 7.91533322513236 -0.44950750834950975 -0.03832923459750173 0.6612000584649323
P 8.707849759735959 6.6338931468525715 5.235673163277615 0.11407984726625514 -0.5956940063423225 -0.07314222851162887
P 7.581561627521327 0.9129400316876001 10.53883549905403 0.8304094997154795 -1.303014513314401 -0.2570185277457316
Ni 9.164934631694125 1.6515974014432744 12.80549257266927 2.607584029820748 0.5742255520559014 0.03131809338699123
Ni 3.5078494049439524 8.0461939396135 6.26666556892337 -0.6571055766805844 0.21584385327963473 -0.5163271370772206
Ni 6.5470046365413435 3.926323357792914 1.5883336800342769 -0.3950296890166035 -0.15180718661369982 0.9737356454413618
Ni 3.416071789324241 4.385220730768483 0.1211884654621147 -0.5873140098087433 0.9482884090128508 0.3406166614833618
Ni 2.269920504934267 7.613852030262149 2.432039890807862 0.4871122060761611 -0.5196500308028663 -0.1195357281745038
Ni 8.22133730715677 6.462820935440703 3.135897241029386 -3.4754056516360983 -0.4651583275128892 -0.5847709316719155
Ni 0.3048886967829297 8.152722525051775 3.2501842603098487 -0.9623482295400265 2.0586357642743964 -0.1402575341028875
Ni 1.0193877516958663 3.799225209526362 0.07245914323729206 -1.2329653219057992 1.6583358279977891 -1.7253575454339771
Ni 8.413824915205037 5.9105937023843635 7.371459298046998 -0.03841305256055965 -1.4723226849263418 -2.470481496407074
Ni 7.743450500445017 2.3970279480778305 8.80601388535084 0.2284080630978905 -0.16282616343202277 1.008445023898089
Ni 1.8988318350941455 0.8688953274769899 3.0163177187781054 1.5981409036754475 -0.5167593395186326 1.2064158535520448
Ni 6.224751250523986 7.3814893998310005 4.6436815168748415 1.1984449195314264 -1.4579095948248053 -0.03519017474788778
Ni 3.088418079762721 1.731682061781479 9.806614831629393 -2.231906777188827 -2.741258254279163 -0.53608889308518
Ni 1.0823140690693165 5.019149932763171 6.126027573312963 1.2976005413876814 1.0719011354702057 -1.0588288756672797
Ni 8.960605350332154 8.956617848093865 8.970852952238243 -0.2861794655804039 0.8890995573575204 0.4779840185226477
Ni 5.544682279040109 7.13058348976026 7.094223789863442 1.3907899183581727 -0.8065802585063657 -0.037306449759942205
Ni 4.973465612247587 2.729059544712156 8.759664981128875 0.5038606291790936 -2.267928703809391 0.7947652681493087
Ni 2.4008853220379462 2.7019463884672 1.3879333431854148 0.7718395125910708 -2.1663125362277853 0.19915405132877959
Ni 1.9897636169057353 6.270166019606213 12.431449990914631 0.6013105811981515 -0.45723007380474806 0.7133841966676553
Ni 8.347617506246236 6.837441658545508 9.288682906285436 -1.1819911448507774 -0.8099674298110437 2.9401778209996334
Ni 5.782064143057914 6.918762537526352 9.994635321785537 -0.7927829476119572 -0.7431657988054621 -0.2091358451318398
Ni 5.509501169548453 4.049099388248734 12.903033012036623 0.9198268112380481 -1.47346708294343 0.27054510147725663
Ni 0.7375308306617804 5.037209878798122 9.19239448685164 0.6465882220890283 -0.6598638561520119 -0.6366794476157487
Ni 7.588049451675931 5.166334310253361 13.483582664837224 1.4507740122212884 2.3618336187896682 2.190855772784788
P 4.695344302284755 5.745683994431668 5.524853517909713 5.525036127088091 -1.0364898458504472 1.8185073274157844
P 1.4926550045324922 0.6291943916446094 1.0374291079767919 1.7150672192515624 1.1686435198992777 -1.9985179730468936
P 5.663377858487517 6.097866884428718 1.1457850662356888 0.4291765101016415 -1.1634681463459253 3.26424146322032
P 7.662306224127407 3.105223217401008 13.308717214116625 -0.16304984940705466 -1.245755531691932 -0.627786516001493
P 7.794888349831231 9.138862501674549 2.633134554969545 -0.935310508695944 1.2652540067361757 0.7917282810951978
P 2.9974398235660704 3.632540180064312 8.764304054245727 -1.0213781870199894 1.5575316147945175 -1.2209798674091488
P 1.567822674931176 4.012616995975352 11.450058766957454 0.8285089402586571 -0.43286321492460933 0.4150156452202272
P 1.642878806805712 2.8699327007109763 5.033544908792161 -0.5961071826203412 1.9966251268995545 -0.3253250254316139
