# total energy = -381172.2788525334 ev
CRYSTAL
PRIMVEC
9.15906891793104 0.00000000000000 0.00000000000000

0.00000000000000 9.15906891793104 0.00000000000000

0.00000000000000 0.00000000000000 13.40522317426380

PRIMCOORD
 96 1
Ni 7.669831835678288 9.206238178788505 9.278237619989776 -0.35833233359557 -0.38078243506897 0.5650564839621236
Ni 3.616898019526661 2.044881216247185 2.537702324601416 0.7602201831845876 0.7239869118841661 1.461310135865922
Ni 2.851172376128904 0.16441719486532966 3.616594854343636 -0.6525966330666374 -0.672912461805854 -0.48377825660692164
Ni 2.36914889418762 8.811857827855357 9.456969523753905 0.034430927984360066 1.7520558806607696 1.5940263672864416
Ni 3.7329892187667193 1.7401223552204639 5.011985423816007 0.09015547524017377 1.4162096439828578 0.3648595931911265
Ni 1.3648020268213243 3.7113097025062682 12.990854321638572 -0.16780741869669807 -0.5739802688143146 0.577985790429282
Ni 1.465011400461204 1.2390754870210656 11.54432317464535 -1.1574317103438583 -0.279443432408151 0.03243009550424737
Ni 2.4159059412977184 3.305306493045653 10.817398095140346 1.4818439941532155 0.4084580466073675 0.7330716477942536
Ni 4.686823820743751 3.3399644100416594 7.980169485616813 -0.18423831055921175 -0.642654434252261 1.216805424316485
Ni 4.26184302036989 5.425630960428172 3.035009544938904 0.9914117225648861 -0.5448139316630036 -0.1490612484374465
Ni 5.069901880563509 3.618226084527829 1.3789417975027285 -0.29024335123713246 0.06712456156263923 1.1468521350557992
Ni 6.786064111349101 2.0074297832142385 1.3845856158042453 2.423919846597451 0.39635689246845934 1.4061396613413655
Ni 6.7873189037984805 7.030657048288411 12.915356116089397 -2.009952697246397 -0.38324169524274 1.4216292723365322
Ni 8.158916959798198 0.9165113959097156 11.558077348522968 1.7363775506935644 -0.2211704076988707 0.1697588859961141
Ni 5.300838645663218 0.24416795613893574 1.9084752020237388 -0.38887369671753674 -0.2495808405207637 0.1163097650380384
Ni 2.0820761953488716 5.523797861686944 11.368125585266208 0.8031411509178297 1.068263281607302 0.1525486927654147
Ni 1.5372764546627073 7.967153532698466 5.243064154484808 0.34282421065764185 -1.8024901260519215 1.4362673339646814
Ni 3.706143987605172 1.0876119634050627 11.602193836047984 0.3256384429069747 -0.01129948417321925 -0.0915749812955197
Ni 2.896995198203698 4.219931120746812 4.498618691940253 0.41051955712208654 -0.9385074183666869 -0.9023620787943814
Ni 3.8206689860507486 6.736861592823058 5.022736338977189 -1.3522246564904647 -1.3639537720019348 -1.6679286138925469
Ni 2.2347670342073336 7.956602285240908 11.818111559844827 -1.1274436486222001 -0.008943839456849113 0.4839386934441859
Ni 2.3692038486014613 7.687453884383446 7.562167895800815 -1.6838866798837002 -2.761335227534696 -1.5348575702357696
Ni 8.870292687906764 7.072129312600756 3.706665138629768 0.29854184380049875 0.14784203131836474 -0.7759738464744184
Ni 0.17290673589693595 3.853779020390221 6.253724368094589 1.7671780810141888 -0.38970313459736755 1.7948115264607414
P 5.520234983856224 3.2723430038097585 3.7469339012789864 -0.4936965441618981 -0.5015103837793621 -0.3022025804815376
Ni 4.62543058141388 8.438250245354276 13.182723078031499 -0.09342926089543908 -0.3704329735138459 0.6240352764891769
P 6.832390682217442 5.288189971410712 1.0195399309796616 0.9872370223619061 -0.32194839564989713 1.1215874469517393
Ni 2.365631811701767 0.28780267663594244 0.3919870862103535 0.46961224951918484 1.2019164230197945 -0.3529011352776697
P 3.9680842011804316 1.2067073372684531 7.2835673357626245 1.977764542549626 1.2706335258805344 0.7919424539885329
P 7.649691043005396 2.5145124778672225 7.257561075319056 -0.0021291305278608496 0.1919405642994759 -0.6168215323495571
P 7.0484531193040665 9.21988519155913 0.3713892559956816 -0.6467630571039957 -0.2896211442721012 -0.9380667312848425
Ni 1.3653149346838445 2.3008588759206483 4.803641334153413 -0.24533157832610653 -0.6437093578793365 -0.7885077172753711
Ni 1.3607537183350042 8.258402766989166 2.043666723701289 -2.234301245562933 0.4048286773848963 1.286060916179198
Ni 1.9469341326437786 4.003474843694324 2.208965936908774 0.79454800993218 0.03162688287666166 -0.3376184980869863
Ni 5.646794998933078 2.5906243410376275 6.071225339261628 0.049498620950759915 -1.8023821397191475 0.9028343904451096
Ni 0.5910576185372027 2.314679911001772 7.944846620213325 -0.5346565315140276 -0.2835114318299375 0.8160784278047881
Ni 6.323036538459012 2.3267515639089433 11.239958153584492 0.5496257512293502 2.01119968227962 -1.6726028794397645
Ni 8.955050712188221 8.059834151642068 0.19181654969977807 0.5329639743029531 0.37310820635316383 0.05100194496916377
Ni 6.103493655162428 0.910163245204131 4.269268277586766 0.035570440905441966 1.1453459828239179 -0.29142143070563353
Ni 3.8808715464140544 8.70916634652364 5.966369569931453 0.779988109840134 0.5722625147922596 -0.5980450230730023
Ni 2.8305095165245198 1.9949734494101772 9.023176783120567 0.09837786314996605 -0.4274441007915671 -0.5583459047111674
Ni 5.450754286622687 1.836384170132733 13.054662807456776 -2.2406148464857862 -0.9767584914280855 2.292406891456413
Ni 6.848006894817386 5.142395911489351 7.375030714439638 1.3125507349396106 -0.9447659976818891 -1.4668943148219187
Ni 7.460336451045716 3.6197831262533366 5.297717234957025 -2.0692176535553006 -1.0833433158688761 -2.0578600624506365
Ni 0.1320820177610219 1.6132784090054293 0.20170010102916242 0.8374993166827254 -2.45440593100145 1.5841803277302975
Ni 0.8802799508640492 6.93800390655173 9.782166847195159 -0.5508673369459351 -0.3195701252257077 -0.24101443900799138
Ni 8.16619841963219 7.620702589704034 11.434092863641483 1.6642647918877145 0.11504941026837605 -2.6666782648797427
Ni 7.974453310670405 9.145403642666023 2.3298409178737303 0.562098172664748 -0.6478362355635167 0.36938602030657025
Ni 5.279122493126873 0.8923222947505051 9.72487320713786 -1.6869105543116882 1.119852980759136 -3.653711912981591
Ni 4.88091365136277 5.904137359883604 0.798043418271015 -1.6928161211628459 0.6439057901608588 -1.4665284468420678
Ni 6.384008460616098 0.03666283719432176 7.022071337032583 0.23565651713018768 1.248897162644707 -0.6074742868067022
Ni 8.56509419156931 4.724696570949482 8.935532736205534 0.18172968520474508 0.17772210670724875 -0.23580255578974876
Ni 0.23721347506730056 6.00459402838577 1.6986693249529627 1.0272194762921147 0.24326209739158752 0.5604351831400284
Ni 7.090978676548373 5.055586255757811 3.300245191530856 -0.8418041147056664 -0.8869336600544533 -1.5769246746091488
Ni 3.4843937686859574 7.4892607908642645 1.942403141222551 1.3793189416040954 0.25087719073468406 -0.5478051530808437
Ni 3.3959995940219887 6.749226335937385 9.419769965117732 -0.7845582457093199 -2.3712353717195422 1.7762687304615474
P 4.213785385465544 7.6600499500145105 11.211216995145415 0.18442445842808883 0.22774034760690454 0.10076127578047807
Ni 4.479929611699674 8.22187639992255 8.234667955651044 1.3953973352231968 2.175958801068298 0.3912807634971326
P 3.6661096971216773 5.076001820499909 7.371666588405643 -0.5881059095824195 1.5739031141740056 -0.5093231949555616
Ni 8.312853432037066 5.626754956018897 5.383778594753423 -0.5790247732167576 3.070225247338738 0.7637711337606394
P 1.9024302165011795 6.876628985359807 0.4087436028975082 -0.027495891427423612 0.0391365609901455 -0.2749360314561007
P 4.592677750764378 3.3958347307804644 10.3091934145381 0.1279211240247216 -0.21074535571080477 -0.3461283353302103
P 7.013740247894218 7.36010875926789 7.93516823202895 1.2937284600267849 -0.3007599344977401 1.0075464233432196
Ni 8.85811112617191 3.682632657550006 1.5818563910777872 -1.1643983714696784 -0.883208388684066 -0.37425748946625864
Ni 0.02444372327667588 4.303983896717307 3.798101956006758 2.4228135009071496 -0.14516268471398872 -0.2367713474609213
Ni 5.207626800719149 4.79228134090549 5.34455488187409 -0.23384028985705532 0.024633482277964025 0.211511544452868
Ni 5.386924734945846 5.5128619333324975 8.937503767848648 -1.118363797808119 -0.4257147768052862 -0.06605523975786043
Ni 1.7454620924320579 5.562366701134668 5.891072863899697 0.32171185415905884 0.9206220534458337 0.7132420146628362
Ni 8.23212539810398 3.092916842617432 12.576834179105388 -2.1021043769809924 0.8982246595872402 -1.270972911497824
Ni 9.150431971532516 8.87892053087987 7.442043958491693 -0.4599240756971434 -0.8357499380917864 0.16920121372043118
Ni 5.946122532058469 4.245283423665667 12.663257322126242 1.6960868214943179 -1.245443913988784 2.397659627349342
Ni 2.0064131265581717 0.6313465311381626 6.848286246421081 -0.8094087290940963 1.9062048280337685 -0.6612640789336481
Ni 6.784488751485646 2.8195552700321245 9.096851418037105 0.41618549715861225 0.26674012590886964 -0.7926232821056414
Ni 6.887720617886806 4.666270869967049 10.642942560679979 2.2977082490646685 0.14941168979832978 -0.3493239594493726
Ni 1.8599870908776348 4.779797529894507 8.816119542648762 0.3531811284119337 0.01306608915533879 -0.7322774340277324
Ni 8.575123372095375 5.227346276219256 13.201101665833875 -0.3064446435873432 1.201317613093531 -1.6312176316247584
Ni 6.073625931239602 9.229135851222441 11.443262007590928 0.7103089001764412 -1.6541313029981386 3.5432897170725814
Ni 1.1440867826961236 1.6401694355118446 2.370714179075204 0.8755678414196728 -0.26834603694340886 -0.3417854849804824
Ni 6.253180319397558 6.844379903503851 4.44887212471718 -0.8474332879669858 0.07992582709236558 -0.04039100222253689
Ni 0.08483312864704262 6.376827750540815 7.426520252488381 -0.4658671806544557 0.7471049859588681 0.06451746295709535
Ni 6.013047849048379 7.452560401487151 10.133504153486994 1.0297985498732005 -0.9577462119916409 -1.6224414280940251
Ni 0.13230091950949033 3.1508113175993966 10.437145608098938 -0.4153686576842717 -2.272207533690403 -0.30405120365450217
Ni 3.5789519967691414 4.3709275318451635 12.82353003828103 0.15502260822720398 -1.0155440968367155 0.8535831096184655
Ni 4.962942273090105 5.479742739924051 11.255883026808846 -2.9871441624468424 2.309887307629364 -0.8121598094766723
Ni 2.4332074225888007 3.3088602118073998 6.646014619487967 1.2135066989605552 -0.31843241207683864 1.071410311876716
Ni 2.0468962114213713 6.224942909752028 3.3615074561744045 -0.6650402581466288 -0.22491470523265136 0.647369323229427
Ni 7.655378824837987 8.468374423208363 5.015617910570927 0.5483342861114363 -0.08130085306302128 0.6147620787173671
Ni 5.376703213971337 6.864062742728063 6.653481092515225 -0.03723651575395522 -0.8276640757598585 0.4007218543053744
P 0.589956698446579 0.8565891030570011 9.584117551058863 -0.7030846145138601 -0.10626395076626216 0.13483430620478712
Ni 6.366450525393755 7.192433683568659 2.1347545805503856 0.4176463979748549 0.24077969728936593 -0.08483483435820872
P 0.7015993378861719 0.1757607017891018 4.077949065332254 -2.597260793517869 1.749904638645722 -1.39112081933503
Ni 8.29056941722436 1.9687876712147274 3.4742583429597995 -0.4610728445896059 1.140791787794332 -0.1882039800751791
P 3.2059122765444217 2.396836759694736 0.5852535165286484 -0.829718644296042 0.6443932713202386 -2.0532248776714703
P 9.19277434739735 5.100392421176538 11.109511945542152 -0.8253035459474819 1.4757278539531489 -0.5587873631239602
P 4.762633434638028 8.45647679261169 3.8471249567809185 0.9096344440860785 -1.2095582558357687 -0.10176709133717313
Ni 8.407906249844823 1.3021448359731003 5.649403501776752 0.403064386395622 0.6946897055819455 1.391201294863978
