# total energy = -340890.48214478197 ev
CRYSTAL
PRIMVEC
9.08723608264441 0.00000000000000 0.00000000000000
0.00000000000000 9.08723608264441 0.00000000000000
0.00000000000000 0.00000000000000 13.30008855884816
PRIMCOORD
 96 1
Ni 6.290529945014834 1.9578358687669573 11.279605060025911 -0.3516893743577556 0.3252499492193044 0.6916786866697636
Ni 4.627138691074526 0.09446181628056997 6.219853059752326 -0.14380385669324913 1.145826522004762 -1.1770502559057343
Ni 2.850347821418469 1.666371867287111 4.836137844994688 0.16141668467900586 -0.3109659284964644 0.2455496078741836
Ni 3.3798701395026525 4.239322728264917 5.067692426927357 0.9824331732153596 0.20555661242101372 -1.082821381927135
Ni 5.379443682360678 4.556758049699537 2.72029402862745 -0.7039803868552521 -0.14966391501845192 0.27963369404208616
Ni 7.222571373454751 6.299698965950581 2.7144282179098838 0.630264031007708 -1.1787980918347762 -1.293922578315462
Ni 5.3708562445169905 4.446638926112433 11.972753054890237 -2.04031228337486 -0.504645329863918 -0.7836133652975472
Ni 5.519241718114434 7.568867755832813 12.359173218278903 -0.9099959411905554 0.9096023052965624 0.34696960028458307
Ni 1.8780408510892577 6.444113317497557 0.4129621617525231 0.33295528828336207 -0.624955217200285 -0.9561256456690822
Ni 2.662360174146112 1.5916657016649305 0.46686764459776997 1.1167833406948768 -1.4577406733471088 -0.38487563130173713
Ni 0.8074063543644455 0.1951865554837536 4.603958969961638 -0.037115673905374784 -1.1412702700926474 1.4794472117862651
Ni 8.69224093432443 2.378075088958872 1.2971692895941438 0.2948957624074792 0.22021395732287236 0.12053280198045048
Ni 7.170964961270301 0.5990005969429001 4.667599608533809 -1.475738138365794 -0.52969867328812 0.5046065062061825
Ni 0.9088235409366122 7.484383724475386 2.3730816528793945 0.02039090495152617 -1.8621101517073995 1.6978346574233598
Ni 7.786361657791367 4.07952368648581 3.7943689528312263 -0.1867111975797365 -0.8183068029146745 -0.4850357831631066
Ni 7.497587478112295 3.7023216151062837 12.619682459683894 -0.29519940969082714 0.2720620523424154 0.6263137881107085
Ni 8.228582901415962 9.222999116479238 7.037887845124156 -1.3763534312178682 -0.38104134515731153 -0.7154976434662323
Ni 6.996635429425524 0.828175231816032 0.27111404559925856 -1.468078307827691 -0.3232450029741336 1.0359856525205189
Ni 1.749974436770636 6.709587824551003 9.046534084218306 0.4852959788030287 0.5226237687192096 0.09168888116556467
Ni 0.20694725607349035 4.906743849817851 1.1627363578646355 -0.16716952800238305 -0.06412434128373472 1.3783583774630392
Ni 6.339346575804561 2.0078701891556845 7.087763138886148 0.6810340624717239 -0.14849663418322812 -0.2586838312632964
Ni 3.4384737232634413 4.334829576664032 0.6759758453476933 0.8269279689247823 1.0337014844720327 -0.6352398869557446
Ni 6.2197676397356805 5.689372947013407 4.882449124870655 -0.9981924929321454 -0.9321259403203752 -0.12511450781386194
Ni 5.292088084486208 3.037772060070393 9.066031657379595 -0.6017317278959702 -0.3846059225801182 -0.06707262527878127
P -0.007224352471674183 5.813568198875509 12.475402599226955 0.12202789846873822 0.2729133445991171 -0.5807078173461354
P 3.7741653014472343 6.002146516475738 12.429757413736114 1.8697920937326895 0.5132101887147936 1.360521606391934
P 2.391442412840423 8.354004930112875 1.2721930219609408 1.5379665481783966 1.13789235475935 0.6339239963577985
P 6.609719102961445 7.879042375852505 5.785737630473309 0.15851082388612056 -0.22235825735938483 0.5944382795583505
P 4.690294979977842 1.0650240373336028 12.736669716098785 0.5708088130648685 -0.4649865778217153 -0.2390524301856141
P 3.8908908454707003 5.9169991169039315 8.219015859551586 0.7990127305717529 1.6468219138209186 -0.4814352102960419
P 4.803540112684765 1.0478491616462264 3.9312399899294768 0.551780592788824 0.0017133831466809202 -0.39115735054539086
P 0.1537578474103415 5.642764514526343 3.404157594661198 2.098752172679308 -0.09168656717271952 0.9949613875893574
Ni 1.6454439632087896 0.8468776718436455 2.5131450359189023 0.029699326836645626 0.45216808590080837 -0.08110904876718933
Ni 1.8775228786478924 6.392734086208444 4.967410236108288 -0.050974434165338006 0.2445944430497658 -0.9047758304421967
Ni 6.041357939010675 5.655332161656311 8.915926878766252 -0.3840443936496934 0.7817963666934664 1.5368692013491596
Ni 8.8264321455813 2.3450066378338126 10.34382423404877 -0.40045625934881357 1.3678381946580056 0.02706420320664371
Ni 2.355811361215977 4.898538075878327 7.067215081264828 -0.8154130263066474 1.3095096341204415 0.9285346234246912
Ni 0.3240680948548397 0.19367807433872478 9.321353904582281 0.8925245238786692 -0.0934554861476842 0.21766265165592832
Ni 1.446587981903574 1.1576047958007933 11.727233208959495 0.3540262500210483 0.33117017135848126 -1.28982372565574
Ni 3.9523114723336503 6.753488260765668 1.8537134120931333 0.538918135003859 0.2778853438924117 -0.3021578432865312
Ni 5.917262646742521 7.882522787169047 7.792309253631255 -0.2845419299769809 0.16832755286622622 1.189246797971926
Ni 5.339187227707198 2.886369624182892 4.9868414724481385 0.5669647567284299 0.042184603787849925 -0.41483206845451137
Ni 0.6534685796849982 7.479658361852405 6.746097611878608 -0.10612151165112692 -0.1581840366743211 0.38552483484996186
Ni 5.173417871998669 4.524080349714455 6.989249324156372 0.21676867908674924 -0.03562417696151284 -0.7152824421316327
Ni 8.17912107688348 7.365322760847871 8.898277649369414 -0.04075558465080723 -0.7470764467137779 0.04850514668923905
Ni 4.498045419108988 0.049018367424786005 10.64660093539275 0.40200046390748184 1.07071071470653 -0.514220889367495
Ni 8.348752507812716 7.238892048975665 4.621887177497948 0.6177743831811295 0.5111407077802745 0.46893810627029564
Ni 7.309772488320394 6.079815120973097 6.872594660572251 1.4934131870480538 -0.22231146328184936 0.6008431546434297
Ni 2.5373198093533613 5.0108290488248395 2.9239317134176908 -0.8203942815713225 0.3429183130333449 -0.8806871649241089
Ni 2.1415525152070036 5.76548763418667 11.257434022088313 -1.3292490215308979 -0.9106443734078317 0.21738857205893528
Ni 1.1325149377199224 3.087988125175389 3.3917880492719616 -0.328250426608525 0.34059506421680696 0.5419790333173697
Ni 3.75068388410534 2.666185900423564 2.5398378823972614 -0.5961611757867281 -0.2640121854547453 0.8960914152943213
Ni 1.1552693761967427 3.1856213867548444 8.449652630667098 -0.8529475329169955 0.7774362899525579 -0.05967144771870369
Ni 3.7076467352929514 2.6497107418938217 7.115307459360226 -0.6466427294760476 -0.2465878193307108 -0.24332817474283255
Ni 4.08307679568886 6.79430812403958 6.086718694020557 0.09488296262283015 0.20009250398264894 0.8450673588379704
Ni 0.4852120475343344 7.549984479812513 11.290125352927117 1.3954983795774354 -0.13375315732546642 -0.3309621691127332
P 0.3348800880256547 5.619492103608157 7.837715444820203 -0.9785973444090371 -0.714783133897711 0.6514558345939748
P 8.270756762826075 1.8335951807257882 8.310985955772114 1.2785656362434175 0.7337285646519622 -1.2802060000603177
P 1.8495432795783517 3.46594443712743 10.627594981688969 -0.9341979923580557 -0.43574182202398504 -1.3407071427691684
P 4.118571538776105 6.165807633475554 4.028902330663536 -0.6954810911349893 -1.1114395598844602 -0.7244854487871395
P 6.676619333019891 3.9874063770451045 10.305054451174366 1.1248591757244757 0.538100267088254 1.2750987607407396
P 6.537003041982405 7.779391747922469 10.278148963377973 -1.410323617515726 0.33630055060651115 -0.5022899422578639
P 2.417213813607301 8.577714501367813 6.167423344003181 0.3803841711892868 -0.24413215870136665 -0.9122592833034353
P 7.250660019354053 4.134446939742161 1.588269801641453 -1.8380947626294084 -0.5863022807147773 0.09350845087280671
Ni 5.334343731018642 2.775723440918609 0.7755065217649926 0.3213876380504207 0.00868930024388181 -1.2611286717138925
Ni 1.2852077610929304 1.1780510763810035 7.108538377402804 0.8892494526718234 0.20367790734106211 -0.34472888387952244
Ni 6.766210390904465 0.7182769280591942 9.270893392833903 -1.1480687810717196 -0.7235135717921733 0.5007069140414603
Ni 2.895484121703759 1.8446816084181688 9.430933246362068 0.041317884912180455 -1.190554461039756 0.39728248960652224
Ni 6.4978734045697895 2.0231821815013085 2.717899541990613 0.30707276408964534 -0.0029907071972077527 0.11873457242944713
Ni 4.147950572160913 6.767209986843942 10.268599187261643 0.3071249574838194 0.1699082670897848 0.0978387028170444
Ni 7.758890943927378 7.3533094351025206 0.01566457709518485 0.746594879091669 0.5257944531377075 1.2725489977356923
Ni 7.665501421472793 4.0212926793933725 8.351258767450059 1.1914633460072706 -0.48332857066401275 -0.5926156245273149
Ni 2.9839120134042134 8.379331056324895 12.56371508303258 0.7199909033508956 0.07531532490354771 -1.4017145356904763
Ni 0.05622454542483334 5.242962487678824 10.236852020223854 -0.5601153379067644 -1.1394928664772503 -0.9267068261873329
Ni 8.637599385378294 2.279751197457596 5.438897831393604 0.6244859908733503 0.06360086468009692 0.504157591594222
Ni 3.4967956027140135 2.7726337807420443 11.837411399579386 0.7503260639993272 0.2968521148029017 -0.22050963418642022
Ni 0.7084499912505546 3.7704304475279162 12.33910314926137 1.5065965185075474 -0.83193827765518 0.9229959529946491
Ni 3.3803699374723912 8.403775720663013 8.321093688167387 -0.307076106523755 -0.44860479402958225 -0.4519240882108023
Ni 5.641546824927342 7.731356619412695 3.8277918061530096 -0.35568435444976165 1.741147718388698 -0.4754129153613619
Ni 3.2905153497492283 8.443750471006277 3.9572949124537335 -0.6462812323715708 -0.4237262856203477 0.21517408090611975
Ni 3.4042966293691435 4.414660943284985 9.618610110169605 0.7358263277212553 -0.3617303035335254 -0.043629306654176477
Ni 7.111225473032834 6.044729303497457 11.39454496221204 0.3368214561069877 -0.8340023592730604 -0.4620681186233397
Ni 0.5026977066865299 9.04160880240743 0.303161091418889 -0.4298318842974533 0.0714275598133673 0.10727773674275719
Ni 4.497054910405324 0.20218281833651078 1.8207022105536983 0.15301406243760746 0.3104303677079686 -0.656826869097901
Ni 6.113892255273446 5.669844477250354 0.46998911009968203 -0.6120883885399458 0.021521161901227454 1.0330412251802144
Ni 7.957465220922377 9.002324681985986 11.59283571744966 -1.274065948600851 0.4524848458102788 -1.3509619877279573
Ni 0.1648878938346265 4.635417162900559 5.719290853481952 0.13921160933687637 1.00805910131358 0.2962491911115801
Ni 8.167607549107869 8.668923087227176 2.4061991750778464 -2.16169123540569 0.6046080210025007 -0.46788138287100706
P 8.651339285928195 1.4240879860295297 3.331698702455678 -0.04455207557876198 1.0501053797513527 -0.06661754001923365
P 1.7301370009899257 3.228076952475174 1.2396816183912442 -0.2672363488189978 0.7781942511645049 1.4371705625052411
P 4.632018536706337 1.0488305831140765 8.283507972119475 1.445856520315013 0.04775875544151775 0.30930396741300925
P 8.549725815062459 1.7854600926220672 12.394325372575983 -0.40168087578453404 -0.3182488353111229 1.0288657536462862
P 6.081877923502745 7.705285339863974 1.5571478364276294 0.5839404653508201 0.42997972272922724 -1.097665388918503
P 1.7619968497517995 3.1471732920282363 6.001518588481032 -0.9957602293415688 -1.3448895562816323 -0.08055780424940964
P 7.184750297999269 3.8892278813168426 6.062485762276893 -1.177951941784397 0.31048358954340727 -0.4832174990074452
P 2.2604408213540643 8.747218710995659 10.239910783798654 0.22319412299711883 -0.6060318979332209 0.29080050929218304
