# total energy = -340871.49637776206 ev
CRYSTAL
PRIMVEC
9.20679993595956 0.00000000000000 0.00000000000000
0.00000000000000 9.20679993595956 0.00000000000000
0.00000000000000 0.00000000000000 13.47508234387781
PRIMCOORD
 96 1
Ni 3.0607545260715767 7.584451110780587 10.345278485084274 0.5689694458632846 -0.6416306209734368 -0.670483283539071
Ni 1.2010546411876115 7.802698297655189 2.7547923171007223 -2.5187228479119654 -1.0407049123730592 0.02290878627737345
Ni 5.701402781858909 6.472398602287208 7.26141212972726 0.06926500494440974 0.21674888159240738 -0.2165385653538142
Ni 8.879138904911235 5.717063548147611 11.46334671650125 -1.217966534504122 0.3697092079739439 1.0586527551007316
Ni 8.470716063445545 8.901962561366082 4.86868181420583 -1.3772409760291442 2.5891818731644767 0.6447542542040832
Ni 5.122083324372702 8.254337856909926 12.031536994510805 -0.8067720628021976 -0.23262878604745743 -2.021886472569505
Ni 0.384802796836844 7.787424216953861 12.188292886872993 -0.6429722226029959 0.24005053243282526 0.9068874774685607
Ni -0.08256289698446201 5.056549324112276 2.2440727241748473 1.533796475961107 1.1086833372955616 -1.9748440264687215
Ni 3.698297784856875 4.020683083131544 2.43998697701858 -0.5884391245521221 -0.9688893730926541 2.5243113977433365
Ni 6.166226478283206 8.567009981501714 0.4746068417848949 -1.2707523108465857 0.8015385823174003 1.9162521849674417
Ni 4.212902647255903 6.290822098615371 3.0433205301607673 0.2938511231930488 0.23445375507133814 -1.3190949638160314
Ni 8.603892421097564 6.8554843309801115 9.483843350528664 0.07235495672364313 1.4546121550204563 -0.13793788483077535
Ni 8.084435575256947 5.3157759764489665 6.747122139877952 -0.5597319864254167 0.5729307445038778 0.8536617853752008
Ni 8.465210397225297 2.2380533185313705 3.6440798621069983 -2.6877363711016224 -0.4375019992482013 1.1670311811068352
Ni 2.5768819610691924 8.998790473804815 12.157326736763986 -0.7005158253454193 1.9408771826049733 -1.007043258454556
Ni 0.41406200628158063 4.541990495711745 5.1267299961809965 -0.8555533459709589 -1.3936574697139548 -0.23666978888605048
Ni 7.995368994964818 1.7164512883607883 7.236685427774544 -2.2794104791967458 -1.3392590974687322 -1.5867617153042286
Ni 5.454467207120935 3.893067632497971 11.00407564097567 -0.9400197412461553 -0.20453691290724776 3.6102656688724983
Ni 4.375678865941537 3.103501697075955 8.993242456305948 -0.7755074483609611 -0.058713711791124695 -1.726071797892182
Ni 0.19496319043478386 6.972355446364468 4.945584370735093 -0.997168165432689 -0.7435198397107711 -0.3776613729414851
Ni 0.7463832827918568 2.3778033311687703 6.173514580925262 0.5441788691821661 0.36867793849595215 -1.6379981448817018
Ni 7.89186615274401 2.4724308184793444 11.61287987449925 -0.35776900489293223 -0.48509260454297104 2.20930575195986
Ni 0.726125561413237 1.3410072034183986 10.969781232775324 0.16350930554197646 -0.046403269854887824 -0.15516890399708116
Ni 2.823394023020993 0.6949246379118941 9.57168726782071 1.0482133049349627 0.05850750931758956 0.7660316476600421
P 6.010880146954999 7.347753497308361 2.3072709593515324 -0.20719929023075928 0.14393369740289405 0.272417378799305
P 6.030011876730381 6.929976547348067 10.319016088941698 0.6866912607575012 0.9637314830407983 0.14318216394885017
P 0.9532720408772912 1.8846411052696772 13.151006500842033 -0.347239309006202 0.048673553946303266 0.24682538926281358
P 3.983082513159139 0.4355350252205231 0.33256617738228067 0.5193281286870733 -0.40815902730971 -0.6677309176049145
P 3.7641816435058795 5.822610299901689 5.206865980764693 -0.1200581763368771 -0.40272422944738384 -0.44483092880944686
P 8.992465402411318 0.37101929700685177 2.651303285079463 -0.03432654119601185 -0.32446087765910575 -0.6102245958583297
P 6.477720132513468 1.2726835428490495 5.131082050398909 0.6065034382530007 0.7672804324654786 0.12076780080939199
P 3.133957790481615 1.8512848699587017 3.592658965105803 0.6798030182781002 -0.05154521906714348 -0.5247773247271027
Ni 1.078769927579999 3.8145888718601695 11.94338280806889 -0.1688859964728575 -1.9612562604819577 -0.4393405951188369
Ni 1.7104392481570714 5.691533092581136 3.651396505828122 1.5907466680939055 -1.5858060362591788 -0.505403291075865
Ni 6.13302675856712 3.9135895890279646 2.1862374498230706 1.3338674941395157 0.47717823479190086 -1.571796609353964
Ni 6.9514375974474 5.07673983585309 9.37885913423622 1.629185174575762 0.12137689514830063 -0.3094718604494412
Ni 4.879023812308181 1.8485688640473745 6.6919816957981935 -0.021043193823544405 2.056689696291619 -0.14344107403719167
Ni 2.809740339066763 7.578623206570858 4.367368808532846 -0.46313641198685396 1.1472524558180113 1.8469221311130513
Ni 8.915137491735942 3.421642660689194 8.221942811487569 0.6787612072771472 1.8985534821360979 1.3657206340943704
Ni 3.0967531128962844 2.23617513139269 12.339968467161045 -1.1061831965815272 -0.12953243437589948 -1.034866194204095
Ni 5.519789450988275 5.981924761900343 0.44408630078133854 -0.4126301757071861 0.3828071788084827 0.42910349077186105
Ni 6.825654299954011 0.5366965782777706 3.1379019834728443 -1.1584017875666115 -1.8076151059833125 0.2065251469818701
Ni 1.8183797678329974 3.970929537555913 0.9706489546299646 -1.472033178710381 -0.5185825087703005 -0.48572689569286015
Ni 4.278455061115729 0.042178190782953894 4.461532273138569 0.27794447926512134 1.9842789466293762 -0.7906337624794383
Ni 1.1059668138920669 1.0870284269103732 8.075010574404656 -0.13189836350491477 0.27243923317617597 0.04547458739303136
Ni 7.7741295981879075 5.14457553603837 0.058402413213260666 0.33581975431535066 0.08248844561321923 0.3786111384492641
Ni 3.255809784503355 8.433318043066528 2.160836810132358 1.7440636064839123 1.7455301637271101 0.5949183045185624
Ni 7.432161436952586 8.866378280527849 10.965348158720056 -0.2416194195818419 -0.39807670337304346 -0.5006439220140086
Ni 1.4891446105819643 5.487851062831008 9.991409614557492 0.6991904216657764 0.11180699207167841 1.0806133185322229
Ni 1.1980900516844 8.981573758366912 0.8115232320251484 -0.13701460168555757 0.7085739197632055 -0.8584898028914634
Ni 4.666328325652327 1.7256028472620057 2.015602306914017 0.9326548162406518 -0.6118230506937011 0.3070514239334067
Ni 2.8594110234451 3.367451437658445 5.041621419079647 -0.16439145103661365 0.9094495817687822 0.1480909141043772
Ni 5.445969330998376 1.540813170495074 12.349939431235509 0.6188807288714309 -0.20326421684241122 0.15670848057005912
Ni 6.861385889587435 1.5422218108490842 1.1163161774341779 -0.24474742368786237 1.3091720482753646 -0.8679764022256601
Ni 4.591918970481665 4.348574047626463 6.519352360074247 0.693710886608444 -0.5137547483643539 0.5972119856487457
Ni 6.018374481910323 7.483342036481626 4.668805875451438 -0.42172313914738985 -0.30669506903525245 -1.2695983997478006
P 1.0664512295821835 8.501678530834674 10.33104845546886 0.2756132600287834 -0.12431695161323106 -1.3068829951308718
P 0.6587815043319057 6.634990684978853 0.7540074336229414 0.8102386811945594 -0.48470128264182333 -0.21036149000882481
P 2.70473678849495 2.7058047772600817 7.205692577946409 0.2937714189950489 0.1375843581460985 0.8720947952694077
P 7.546896574806679 7.405295995429697 6.305341221741347 -0.7568422678512902 -0.6651433593833964 -0.38859036114916307
P 3.9701837867802605 7.367281119470817 8.276866895774392 -1.5158902851046472 -1.269643394053123 -0.5792188915054347
P 7.167659288388131 7.2349978213896415 12.644707092451847 1.1536069372811293 -0.8997356969151279 -0.22371220028411795
P 7.702362594530978 0.712951551723346 9.0401897693332 0.06390451196344478 -0.7715209529093874 0.9781612853128832
P 0.6118387947045053 5.745144287230823 8.074080687635014 -0.1041427906582013 -0.997523748999895 -1.5958690769221355
Ni 3.6484705848836487 9.153621224349855 6.8594635098101975 -3.6080393506451407 -1.0671206833624267 1.176872078456657
Ni 8.271241541158048 7.961156527281797 1.2021520917117814 -0.19461194048405192 0.1963762314733263 0.1077384784292596
Ni 7.184664247432948 3.416302716863534 5.583656099823138 0.19373622274731797 -0.5353180763574263 0.22890094357390903
Ni 5.405293689926366 2.8601199470219543 4.0161542583594025 -1.2803335267771176 -1.5399344705380447 1.2305605691190484
Ni 4.336034386435861 3.5223926697998778 0.3151110058321622 1.3429110923990226 -0.035215371558868384 -1.020811258772926
Ni 1.7590695641693743 6.303343346206574 6.1425484308162535 2.064335642872651 -1.0497361693373923 1.9440542947813744
Ni 1.936070288390602 3.0801532530382416 9.419566999107179 -0.5723057093253692 -0.49179109960906914 -0.25838095531089694
Ni 8.794804619664605 8.464133201660465 7.724145882619791 -1.4814477871560614 0.9170284225573045 -0.8690660357454129
Ni 1.6937565271017336 7.73121670478894 8.186516887604165 1.597087522710269 -0.20352569803391402 0.7210160021813002
Ni 5.798672620683213 5.153331202552512 4.434514919420639 0.747936480721228 -0.33200449433431856 0.22589583819899806
Ni 7.896902272179588 6.947681223170039 3.229100858575356 -0.10013264105754369 -0.8891198690724946 0.3931363286486326
Ni 1.9833932388455884 5.762001937480449 12.616867571520759 -1.0491054777319286 0.7604397553945612 -0.2699010401353545
Ni 1.0912635547721032 3.0649528267345096 3.183367001748488 3.4004201992681438 1.3765665756699388 -0.603069215760471
Ni 4.2139153952228385 6.024506210510132 11.747939943369767 0.34457487480016136 -0.8200266138192587 0.4327955949114675
Ni 1.3463563540437578 0.7292429837914585 4.161509370653806 0.875718508064924 -0.36557590253186073 0.7902149297744648
Ni 8.335090697073483 0.5660349661999223 13.015811092015934 0.5851244583565922 0.0652455993723715 0.04479247372434221
Ni 4.736253969369374 5.471518200164248 9.510807304808338 -2.1597670217997833 1.1318093817900636 -1.9509865031248335
Ni 2.7941992611741524 5.013838980306695 8.028804408753208 0.08952786895850387 0.04005701592188586 -0.4227690639134009
Ni 6.659821423768172 2.6592644047795457 9.696897902372797 1.2348846504156992 -2.3796904444654308 -1.3995108431709382
Ni 3.158466291281454 7.45172588631384 0.11138570412344645 1.2794629512467062 -0.9532727496013194 0.741054151779098
Ni 8.729491582596966 2.962950692864706 1.0466676583880834 0.358614383612363 -0.00514554875668146 -0.3471891724945569
Ni 5.717312131739495 8.931829419590981 6.338651423053825 2.863933813634229 -0.7125516734640309 1.4646116894353294
Ni 5.306403454354964 8.758861273638097 8.960431263537178 1.456513742918543 1.14496263134257 1.1686743731372131
Ni 2.464347248343259 1.667296184765619 1.4038472940867763 -0.8595619529097196 0.5907402618814729 -0.23232128210936762
P 6.454749167263431 3.3961490323215173 13.247420107294293 0.7540695902021594 0.240361893025657 0.295429266313446
P 3.2369542587189555 4.227191600389393 10.74560947029415 -0.2042900870037643 0.1989527339512509 0.7577534668116498
P 8.619175708598592 3.9708282627592193 10.409298887474119 0.7120081422557349 -0.3915039352515322 -1.6076354734294442
P 1.285306065236946 8.853249384156484 6.267921105043049 0.4479103390657189 0.3358598635246668 -0.9416678183725395
P 6.394840521619347 3.4659273672433737 7.780013663875803 -0.05215174230289084 1.0070057203484013 -1.8587018973567988
P 3.3613565362574334 5.3537171980102505 0.8211056691522982 1.1298676846826605 1.916276610447474 -0.12860015236961725
P 4.795131453447124 1.4210603268048 10.253418561763345 -0.09167833964260341 -0.7709799928042529 0.7675750808877619
P 7.838135269698232 4.465049270623745 3.614246148361018 -1.9379515243177463 -0.575522416490454 2.3468194047690227
