# total energy = -340870.16026534425 ev
CRYSTAL
PRIMVEC
9.28979989533624 0.00000000000000 0.00000000000000

0.00000000000000 9.28979989533624 0.00000000000000

0.00000000000000 0.00000000000000 13.59656117418729

PRIMCOORD
 96 1
Ni 3.1402589925348967 4.002816930537593 12.130594012126005 0.059352888037020365 0.9452529646206365 -0.24278052976947864
Ni 9.41214675332462 2.822863682790146 0.6647818100877554 -0.7619901306008167 -0.8827067664572992 0.09418722210738618
Ni 1.5393941926822905 6.192887300856769 3.7741475724360294 0.7897976397313882 -0.9572361051244418 -0.15961485558357671
Ni 5.320955954567108 3.353394875912343 11.350313975526674 0.9840257145134601 0.6464329274580867 -0.8114136753392671
Ni 7.869296755010268 4.4737912153072275 1.1601603996838108 -0.5240646149307943 0.721045569867655 1.0353385058548232
Ni 5.428977749969319 0.9255910895475085 0.06587211445115254 0.43188311039952715 -0.8305054018633955 -0.5499021448191884
Ni 7.047539618986116 8.314733379342968 12.25662036907526 -1.7184960424274534 -1.103931167322557 0.05101042960959602
Ni 7.4004962834608 8.97485728366751 5.130458385019697 0.41078618051991195 0.20143513405347244 -1.6843790461390864
Ni 1.5205637679075843 3.9022641344046773 10.214402741007843 0.47343188037559114 -0.3210335971451116 0.7916562902066817
Ni 3.5196079790544452 7.238175606554811 11.260577293634109 3.6879312391757777 1.3283789602211187 0.9919357133891563
Ni 8.578071342386183 0.9089651343332552 2.302427715421612 -1.3198338988645852 -0.5228914205582994 -1.3173134464355765
Ni 5.410221643595302 4.508219214426647 7.572903825300375 -1.3655514555063577 -0.5133677973385804 -0.06251817313887943
Ni 0.6397411539554317 7.379427016865323 9.37927479571964 -0.910794782942767 0.19089669641599383 0.16294443417744195
Ni 3.4879204709604528 0.4462095356998715 6.5846103010911206 0.65029061064128 0.9318150939481757 1.3005035739670894
Ni 7.538905014944938 3.3541659293194965 10.018965784754606 0.12394182766199945 -0.0836932645545978 -0.43350444805303406
Ni 3.8491822167121907 1.6612206310125797 11.870260370430664 0.5079139733128607 -0.9508368864663173 -1.1467186948017283
Ni 0.5728443745547723 4.76409746800065 13.114223127711982 0.1637533032319825 0.4924323327374939 -0.4159291581734321
Ni -0.1463635872979415 3.0787326465640636 3.230610659193167 -0.05423202187068725 -0.08653510487876709 0.4956084164726304
Ni 2.105849042737782 5.225577577082199 8.158630365634666 0.8841275580642258 0.9299926960274565 -0.021236540781273103
Ni 1.036109983212888 8.382948381375858 3.0446511569878605 -0.6041151405264822 1.076297207655372 -0.3499978455879456
Ni 6.266889848343354 2.188073063300645 7.034506958445201 -0.5028632982628307 1.1803533521370382 -1.215717847679261
Ni 6.381990471411242 4.1541013249411884 5.251903012566443 0.6224455634045538 -0.28332811217453785 -0.8897140510130678
Ni 5.616715319911123 6.319730231233599 5.999604649243518 1.091622525158533 0.4851201153467967 -0.5016877898974909
Ni 2.6541887826252037 6.614783571771064 1.7707752434290125 -0.025551880327175345 -0.09711339461524565 0.05009280289133309
P 3.062707741415387 4.692519558336559 4.765527168233914 1.449237520972104 -0.23583109503483898 -0.5071482987914299
P 0.8511602822769496 4.753785789904979 1.9338391043418968 -0.033627201136142086 0.3672085530392773 -0.49702355165260215
P 7.3248494413589595 1.799174162292494 0.8289669498710429 -0.500498654685396 1.6724131320264615 -1.0678009972589029
P 6.656039573953833 1.4363145709259317 8.981059154205049 0.9128992308802794 -0.8951048830113358 1.112921029525993
P 7.276486742110257 6.856411272012854 4.741311446349244 -0.8838357378554198 -0.6879873538611054 -0.5758309488698083
P 3.7871820909369616 5.755393455597759 13.146610157752466 0.11030135406042939 0.480851826988746 0.47869467143642724
P 6.2552218594351 8.205894081533172 1.3536845860993019 0.2547685553692903 0.5393878755514259 0.004781223438727249
P 3.1337189732742194 8.226981927728822 3.3560118125966225 0.18285402861717542 -0.8559742355584613 0.8158549989400724
Ni 6.179054788528432 9.199884111155276 6.965259859622736 -1.2359837970171488 -1.1412687274307507 1.6876857419148161
Ni 7.041789232732766 1.1886299210279472 11.40402109676496 -0.33750845487168324 0.8893139873611716 -1.2130978935579109
Ni 9.299925968283452 6.760326869721395 1.1091696159907252 0.6068541367242001 -0.09122608259653321 -0.10430117061293649
Ni 1.8106842245992827 8.768447215552463 11.20190756118978 -0.4245783492079978 1.0230339774558574 -0.16874664268151582
Ni 3.9586625107279336 8.987073370780847 1.5363294876338565 -0.631293500713487 -0.7616152637599012 0.4778199821409577
Ni 2.0684483075907827 1.6085010155234543 9.774024412822072 -0.04575586607887604 0.2543744052546652 -0.2356007241915878
Ni 3.286787009294364 1.2941248908067153 3.8540677225775175 0.3309305445438494 -0.6484525289912767 0.10621252870303644
Ni 5.652332413441574 7.2489610644548765 3.158780066966733 -1.4063049832746362 -0.37834760037523224 0.791536733909682
Ni 1.298333170245759 2.509082105278923 5.3701928240039205 0.011626528495334815 -0.22982216983659773 -0.9390146970204087
Ni -0.10623722480565456 7.4892789028845135 12.223567260368599 0.8705318216576621 -0.24439569677539846 0.45438052017109487
Ni 8.994347284248333 1.4540023502900365 8.961561721784154 -0.7460852864451022 -1.0961723493127447 0.7920177873111586
Ni 5.628327570018859 0.6468831522616942 3.0487293792256973 -0.39830861687819147 -1.3406109835109363 -0.7911004177032117
Ni 4.797884470914122 2.9502825807723214 2.5578126806110393 -0.16960127737232727 -0.9979556943309911 1.5000142373043392
Ni 5.961134658106598 5.837821851762519 12.06713910365728 -0.7944503080120512 -0.41257052611384426 -0.7679003254376646
Ni 9.301040744293793 4.978831196992921 8.933199033141008 -2.0550884132427703 1.228981911778019 -0.10790251481094966
Ni 7.903752623529944 7.8065255758278855 2.7941479817437256 0.28796818204971053 0.5489541790836223 -0.1509929182425206
Ni 7.0268233647939145 1.928506759092424 4.161649287511217 0.6419136994314946 1.2900121875174622 1.4636259284832922
Ni 2.5445598518080814 7.604119411549988 13.362550631775933 -1.7046853617966062 0.7897559878601753 -0.5181729320367076
Ni 4.556832738277676 1.7902931134100966 8.759435180488852 -0.3561751780432511 1.492867598957229 -0.2641782787189644
Ni 5.682189830918586 3.2632280762757877 0.3258360221030624 -0.21782617381698613 0.5227518096566416 -0.0635018772083874
Ni 3.326500904662824 6.157781146331058 6.32105495672589 -0.4935286511254661 -0.006455268707040496 -0.14581574491695531
Ni 1.522449597325081 0.07678484261239936 5.415007748599708 -0.7343155475036838 0.13672946634497096 -1.8097874310442832
Ni 2.2952494868950133 3.5755976041739093 3.128093070342023 -0.34130108914489604 -0.6289095738623427 0.5906178773709957
Ni 3.0230867440477884 4.01701174506929 0.9625505591904135 -0.39881872374539057 0.11184118774372352 -0.9094033019118789
P 8.63685719733159 3.668811458238735 5.556941959216553 -0.20159402822883993 -0.16782593063945936 -0.7980441960108965
P 1.3921415715161005 1.1459990284324235 7.345651161711955 0.4637768737843303 -0.7936370680821364 0.5277266371634136
P 5.051626070468301 9.196549072924334 11.58219017261799 0.23136534595400154 -0.8479194835747849 -0.5137215811335734
P 9.290543270196402 6.219669794505252 6.968645991754152 -0.2641384266199645 0.46512953115748285 2.5651844818086147
P 7.819782120550877 5.897341600914736 13.078954401684765 0.9328628184864 0.43070117427628407 -0.31188149833219836
P 6.200607124728391 4.566382652766278 2.6079562345362644 1.2662919610823868 -0.30749905299378655 1.3451435812739672
P 0.5059615298542424 9.020377304089838 0.9046147209528926 2.26869052167608 -2.897177663289023 1.0878005803092814
P 9.037591303649545 9.168558905264645 10.652130689229022 -0.7117397190856968 -0.6087981478244482 0.23123781923720177
Ni 6.940400354592093 8.313479256331332 9.64602583131452 1.1458499190435298 2.080040712312734 -0.18174459760308054
Ni 1.944633852042049 2.2419724834007164 12.795832880378002 -2.3254085431934146 -0.7374702910825816 0.4347411486736125
Ni 4.510736750250004 8.246992157114475 5.025017296081428 0.08536679560227878 0.6574519042764096 -0.4876685928002634
Ni 4.13591189637243 5.203579330478104 2.8495402727176478 0.15253275192581472 0.277422031102748 1.5266639786813836
Ni 8.550508505530457 1.4457715874136725 6.5060362429821215 -0.38275318564209565 1.9504658547346734 -1.1857912353231579
Ni 1.6793171615804767 6.1805225769420495 11.431757652882297 -1.217739248984664 -1.8167852025183548 -0.5279192127901939
Ni 1.5600918672743207 1.4767437809010284 1.7601430672303684 1.7525042810520979 -0.5593018408665335 0.48944419664344746
Ni 7.607500898781361 3.661008026166336 12.480909586436185 0.11287271433203143 -0.18223619252751838 -0.17719991565519158
Ni 3.4485781675954406 3.1191618565391606 6.519809300589906 -0.020722320149015927 0.33904108946612577 -0.9470550508263818
Ni 7.6390862190744055 3.983234031955905 7.460691401079283 1.4870509922754518 0.3157967742262045 0.3499803620864489
Ni 0.020168155987117416 7.35359208282563 5.207251588452174 0.07477590746030993 0.07471034432969713 -0.9493531028319393
Ni 1.2759633316382146 4.885347938725595 5.800714674298244 -1.6333087098258323 -0.10396821275354998 0.7408692894618015
Ni 0.7525286168018585 3.1527444838507352 7.740209408932613 0.5380187631180412 0.4335959793255758 -0.5549191384178056
Ni 4.9250618340940555 7.703083651868165 13.374053262242652 -0.3489532063735152 0.4570722080706451 -1.2153450377208748
Ni 5.65628986827829 5.824816131641854 1.0269493113478965 0.21357202652632254 0.26238184894017397 -1.2676698152665202
Ni 3.7460561459554005 9.235621972086848 9.559769108534242 -0.09717073021574232 -1.165967001508379 1.2808058384278456
Ni 8.009600605711988 6.303668166884578 10.352476110708869 -0.8281672406485222 -0.5635207640438876 1.264422511973816
Ni 8.686929219796152 8.663370286777575 7.114047155763164 -0.6219570538039095 -1.6617739071450608 1.855655397220991
Ni 3.8574222693886404 5.148165672963983 10.087873805873924 -0.03780344400101877 0.1621857016345465 0.13381203558785987
Ni 4.954417602366414 7.235249319527662 9.302169455004266 0.4689720448320246 -0.7623814525019644 -0.6450974964761147
Ni 8.50901096854545 5.409961529192889 3.480964268655914 -0.816809906654174 -0.04975778814941753 0.3674643778038252
Ni 6.759379310112604 6.240432497697886 8.110593738368989 2.0230169866295227 1.002062774520829 0.09100111106992069
Ni 8.636336968526763 0.49202868768497543 13.096969182011904 -0.17277581844556694 2.260153944959978 -1.2550618966945224
Ni 1.585555209310566 7.936926499637727 7.154088981074667 1.635309799416261 -1.5044036246212864 1.2766668765588076
P 0.06151055331068657 2.808427333456208 11.454994229837883 0.5175142154067862 0.3540481043979193 0.3351042163055648
P 3.656056562720397 3.7391631142914483 8.551842520822834 -1.2114336184816106 -0.8116371042039828 0.754354725542746
P 3.650714927670838 1.7604635653333423 1.1722222761157193 -0.13603603982237214 1.3600127850763157 -0.8332431125095326
P 4.386132661693944 7.7892558374676595 7.22669434262829 0.30388896704502505 0.49465042343473525 0.2691099116926269
P 9.16957149347404 0.900427808054047 4.234825971770141 0.458479629941133 0.04658684662060363 1.8703577364281725
P 6.09765756017324 5.091980962042709 9.873659376706472 0.41185370255247783 0.08298646829556029 0.30742500522274147
P 2.7479135756947692 7.260433967561322 9.288409403116603 -0.7144123808218535 -0.7132641261500232 -0.6436113988488915
P 4.90115917847229 1.7691681080141017 5.370791087129471 0.3542324524945835 -0.44322270378206247 -1.2193359040478224
