# total energy = -340892.72390647756 ev
CRYSTAL
PRIMVEC
9.03889054303004 0.00000000000000 0.00000000000000

0.00000000000000 9.03889054303004 0.00000000000000

0.00000000000000 0.00000000000000 13.22932997478583

PRIMCOORD
 96 1
Ni 6.361987072675687 1.9735423593526664 11.59376209728563 0.8380770435630663 0.23556909962270398 -0.9554538164130384
Ni 4.535552659674632 0.4162987662272436 6.161865128404146 0.35058020045397686 -1.1945746379427427 0.022161880809019898
Ni 2.965867937372045 1.6419235368796743 5.003240231271635 -1.3377850840263668 -0.4937114565602336 -1.1616128383047413
Ni 3.5049202628142013 4.234602793390336 5.054582938298758 -0.2802481876976335 0.4707556190950086 -1.350263933219668
Ni 4.995469496925799 4.47623945881692 2.477429784365556 1.2736347746007033 0.7408132394128855 0.34608256969393947
Ni 7.136149984449751 5.983438329621585 2.6633019174282913 -0.13494486364072242 0.613356199508776 -0.9126153810912734
Ni 5.140444265069179 4.5874358923663845 11.468201962504379 -0.3352191446168743 0.21156193807482918 0.48191266415309264
Ni 5.720768165506202 8.176463033263643 12.343481136904936 -0.11176174065603979 -0.6044743236381137 0.8674518971807577
Ni 1.9285377224933928 6.591583935672756 0.2160520852638654 0.19924275438784395 -0.6070230582018965 -0.13487133009030966
Ni 2.8304291989307204 1.489202439395383 0.6746890155900922 -0.17219449202080023 2.0787844713081296 -0.25882267083400584
Ni 0.34911269155863944 0.2120505683452873 4.964888217977018 0.23321654023012736 0.13484433350711617 -0.5931853809878558
Ni 8.736340962908203 2.3061193042412205 1.282390812107263 -0.3477350176956979 1.2373192279991208 0.49909123281490825
Ni 6.609065150311405 0.6833184445536489 4.778857000437736 1.1906490776360914 -0.20887282127844028 0.03511407009431372
Ni 0.2971797449679674 7.169404063382321 2.077587222570125 1.1338161278074474 0.0568126381136699 0.568772242250814
Ni 7.642147086555019 3.9882116714487945 3.898525086128696 0.9171554350534721 -1.184400011402586 0.322224017908787
Ni 7.429516221425966 4.030323863279956 12.655137569238605 2.1493887638892533 -1.4798336485914063 -1.5265829889318032
Ni 7.698893242450282 8.666361871009327 6.815248574694983 1.119447517790601 0.5383751180161954 -0.14144152710865965
Ni 6.881813677571614 0.910532655958811 0.5771042475651066 0.6410405527979218 -0.1702304263158939 -1.193216067032319
Ni 2.071108145707155 6.347832169819366 9.119863807521584 -1.4511020849846685 0.8812854606297404 0.22142289002930898
Ni 9.282940762095587 4.926204477393239 1.1655134357447732 -0.4462542915195346 -0.5900514633445644 0.8098175344967408
Ni 6.331155416454161 1.7113331786636392 7.284849679455895 0.4971515925900341 1.2018665436184657 -1.4574653081985351
Ni 3.420388556867641 4.335314113712896 0.4909509646246608 0.0558728999082199 -0.10177480464665697 -0.240050018212193
Ni 6.017008769729105 5.413780320225722 4.883712652152138 -0.8466159342720129 0.8188210235469318 -0.27050704915046964
Ni 5.022522896829354 2.718473498561377 9.446985781864935 0.11566467525487177 0.4638005279334142 -0.2772623655964322
P 9.335004772601595 5.524488653676694 12.27990067574169 -0.11522373106271125 -0.5026632664368827 -0.17617507393510304
P 4.059510441391745 6.2294588570439 12.628838012820498 0.45253215410844644 -0.13203103242803715 0.327530517723365
P 2.3495511741164585 8.160644974516158 1.5535602451599368 0.3535922478074233 1.242924232890724 0.6359112019911564
P 6.130772248241018 7.60451818451743 5.5864149978394915 1.3742700663262784 0.7308525286557478 0.15165960529224204
P 4.7365866280191 1.2279061866683536 12.722858746237408 -0.15663880367438832 0.2734882432659806 0.6075964142068633
P 4.092285459116534 6.167090511125244 8.131830798701738 -0.6960181945853819 0.8711100627586352 0.1194719648161039
P 4.760069666091081 0.9740579798887115 3.6561499433308726 0.7425731595267857 1.3930278065497557 -0.062378048016589346
P 0.18902851369966173 5.538616439860876 3.5301676923533303 0.7632959938964338 0.03420158558237336 0.27085003431218513
Ni 1.3302897017727906 1.1099396239749657 2.5783571341761533 1.1178310652331007 -0.47672186398077254 0.998769191371222
Ni 1.8584411250152515 6.320372019833732 4.868896102495637 0.6252809759708199 0.9367752661669285 -1.0000259465964583
Ni 5.926692173726321 5.525754098376492 9.094066813427116 -1.1969189698052032 1.2884085904757683 0.9813918764350389
Ni 8.411058402824917 2.258186066790984 10.162083158386817 0.7079928504487548 0.3178569991893429 0.21882427606419733
Ni 2.4238689335575003 5.123903095064666 6.924641749547233 -0.9550180144272006 0.07047265209926573 1.0795285701084762
Ni 0.4036425114511129 -0.3205534124623227 9.03511697597606 1.5328469675636438 0.4552570092387772 0.7613704947389468
Ni 1.7426077405300955 1.2619647268743674 11.538873433431858 -0.8031444933519394 -0.01759431604299551 -0.34755529758472403
Ni 4.260878848692587 6.741105265844699 1.6048767394039927 -0.16257419532221679 0.4003858111221943 -0.458325620861772
Ni 5.863456094299232 7.878803323198823 8.007356234695099 -1.7863803649742522 -0.48861707275646166 0.2460319468272408
Ni 5.281143637905382 2.7832009949560863 4.8216281274018655 0.08985131373619365 0.02225983983946489 0.4183686208528601
Ni 0.7785503893260799 7.350037255387888 6.889967660883675 0.24120675752445556 0.45588692951329224 -0.23357418067986224
Ni 4.890175459011825 4.435916967346902 7.059819264046957 0.3503943096954159 0.19047066462216874 0.27231324912127297
Ni 7.981656860620328 6.999418684636488 9.00033713229116 0.08322326689671475 -0.3733941130246989 0.48371526457947017
Ni 4.404642405480446 0.5603660297430535 10.693968547382756 0.15853396381457213 -0.43007408221524646 -0.8816790965237332
Ni 8.175622416427348 7.199087780483315 4.504798737913236 -0.28658312877672576 0.39321911817042604 0.6600985978706373
Ni 7.369181625917702 6.21590955986534 6.853176664015167 -0.3495918683987786 -0.25202904495094014 -0.63982930609864
Ni 2.4165745487522314 5.272574769509601 2.6094988243491306 -0.5884581507155155 0.05799277446470013 0.11473830678586046
Ni 2.4691176204660206 5.2015923607416 11.45968280800752 -0.9779355424553222 -0.24075347203712086 -0.3635755842723803
Ni 1.2501960911662384 3.2977036932221457 3.8105233500374722 -1.1015423553754062 0.5238121326003559 0.03392030689652868
Ni 3.557743540140089 2.748157215662372 2.769930999500553 0.39222975767396323 -0.8824411715007382 0.45890411907306133
Ni 0.8958553052192874 3.258682802014778 8.173133105925029 0.2527679799994937 -0.1612171670736901 -0.14624486203457396
Ni 3.5997743819548353 2.4736732213852966 7.18469063535589 -0.42658278123253635 0.41516502631389796 0.15870237107163634
Ni 4.134243989805578 6.9170291957888725 5.980913767445486 -0.558037372331813 -0.3491185283067858 -0.20104535481422153
Ni 0.6724012723506703 7.320913949511089 11.118643653633596 0.7472476821843195 -0.5169220903487419 -0.2087661204972469
P 0.2690570442930813 5.5217408308999865 7.884376703212365 0.6392518363286152 -0.21493548253275238 1.0192333727628446
P 8.494894114186588 1.3255171674764064 8.089311856788498 -0.5762595517667947 0.7615335026793724 -0.1839950842001541
P 1.7361087781075573 3.21655253240219 10.337835349407447 -0.05740064940665598 -0.205801124331652 -0.4932005783620861
P 4.146103014420834 6.129976825858287 3.802307902268564 -0.6412292717699601 -0.5875415524385171 -0.24731724129756763
P 6.750822073361011 3.860889856867608 10.274969864499583 1.1458571181323816 -0.38691091656421106 0.245642424698306
P 6.325469954195778 7.755350153842736 10.328362591940381 -0.3144996526813358 0.349388751249037 -1.0558134858797237
P 2.4018140402181496 8.416942720678982 5.62960914488898 -0.38536722622617503 0.4261690907338854 0.38428736289843496
P 7.138581446051506 4.146328986688656 1.5481622196262237 -0.9033015598895152 -0.7293692592420019 0.6827302192272242
Ni 5.531168393913489 2.9650453983171756 0.5005683443431318 -1.2040013305732813 0.6644093094308493 0.15976783622167323
Ni 1.4253788320719587 0.8498572942706718 7.101371948542993 0.09692647541542017 0.8223655463650805 -0.7453985447907227
Ni 6.567992430912221 0.7413652968224916 9.378417660806337 0.9961304681967943 -0.7799809107512825 0.9388676299195831
Ni 2.5977229575284313 1.421718081333255 9.170082076544029 -0.38990753729868977 0.024106149019584293 0.7595979762195563
Ni 6.43678389332451 2.251452093209912 2.721551240849102 0.09606644140797004 -0.47661002099325667 -0.5950085502395237
Ni 4.047362172273676 6.873949842651435 10.501601067453768 1.0395916247042225 0.649584842823507 -0.26379415590666827
Ni 8.19225397533899 7.190157356459021 -0.028501430195754435 0.5461190236276724 0.7382735037101672 -0.4155920865489875
Ni 7.462878767047091 4.2005984865286 8.137625631537745 1.4300912870609566 -1.706608546961248 0.0017511783631518228
Ni 3.227019567847669 8.671071133070722 12.608093758634512 0.020820793400093175 -2.2265285435960496 0.691013799392255
Ni 0.17095344394117823 4.751238669864628 10.169994899427772 -0.4593725740690476 0.06502422739018479 -0.22089581388124538
Ni 8.649685117644122 2.4046703296834093 6.059667814448394 -0.820896932239354 -0.18906041453820344 -0.22636249342277145
Ni 3.5052547017705766 2.917229666446206 11.472342678339935 0.6332238849669805 -0.5129739043342714 0.6932665999821738
Ni 1.0060375752307702 3.326302743437599 12.690380204128001 0.8794288670369758 0.894629228926498 -0.8206125682297158
Ni 3.0826955998356143 8.290985778595434 8.01266115965447 0.30731958999312875 -0.588864899235631 -0.0720299692840566
Ni 5.703341184211831 7.918565403444644 3.3118703466363932 0.5003235625601126 -0.4068966156575186 0.7989955041805723
Ni 3.3060285115686794 8.538958706411725 3.4529213323213255 -1.4312256577757156 -1.2039205979340168 1.0668705150248337
Ni 3.3634164287045554 4.391653519526082 9.21149013878866 0.2412561227051523 -1.0418667938916444 0.2710780911625912
Ni 7.259820087182946 6.068801613513727 11.202901481191558 0.5281845506364387 -0.6126211211149644 0.03612554207796359
Ni 0.8192742075437484 9.132081676098142 0.4254569702975019 -0.9778445254034126 -0.8313654358708455 -0.7683207008045349
Ni 4.699961042850637 0.2727783555995611 1.4839336699988634 0.14386967693417801 -0.5642298742957702 0.41871880510342724
Ni 6.271137182120845 5.769966847656238 0.1891189026067902 -2.0242997099966877 1.415752501840781 1.1638905785953246
Ni 8.063006877035965 8.899239851335162 11.278864318742338 -0.4841243270924307 0.6695833974326211 0.26439399427419624
Ni 0.12162731343209174 4.855411885330208 5.749374446834226 -0.5009010323301374 -0.25159041475162475 -0.013770571421531121
Ni 8.13755060874483 9.10297644800277 2.455350486021281 -0.6128008412259381 -0.7731024384638943 0.5737262438219797
P 8.503707032631617 1.8124331712868516 3.543264141107177 -0.46144359766546333 0.38776657969628703 1.8487100762514097
P 1.811936032297645 3.2554830347024293 1.6744626395568583 -0.26649278578475394 -0.058182264767686884 -1.3556953886478846
P 4.6094365523614576 0.8014223983858721 8.399315076010783 -0.05823780059597067 0.5605300568466798 -0.7574073963261406
P 8.811969361502607 1.583044202776178 12.449805608360178 -2.1376406222143896 -0.20799221844569987 -0.5463352534035365
P 6.673006263214097 7.886866013714684 1.2979847063650696 -0.9522209112980374 -0.6572063639245068 0.35934663379269727
P 1.667747647646283 3.2192280440531933 5.9254041317997395 1.2614120072822663 -0.5032582197084043 1.4653706790885408
P 6.701957830167351 3.7388467544627253 6.163994691056093 1.217601180744903 -0.35957957573910976 -0.801554266046684
P 2.474450565986601 8.481173078084483 10.603466654120359 -1.140105817470901 -0.6511272476099625 -2.2415034197383266
