# total energy = -381168.0479019418 ev
CRYSTAL
PRIMVEC
9.28866366461789 0.00000000000000 0.00000000000000
0.00000000000000 9.28866366461789 0.00000000000000
0.00000000000000 0.00000000000000 13.59489818567856
PRIMCOORD
 96 1
Ni 0.8172519040447452 9.126604102969825 4.693624785775986 -0.5286874584147864 -0.98050253185155 -0.6720403436135457
Ni 5.065136025396853 8.564175533279617 4.66846086772235 1.1492969970518656 -0.48699367822042583 -0.8314163437134392
Ni 6.334311128233533 8.877742232794102 2.2016668095215826 -0.7322082713526937 -1.5877456764840527 4.097858671239821
Ni 7.135161110422639 4.89302638100726 7.585082602248955 -1.1438344312753976 -0.8893520396879587 0.06604289846268625
Ni 3.6224579786585487 4.640142519573471 1.5070354800653991 0.8614424577618841 -0.03415273462230892 -0.0440468538075693
Ni 3.751115255599574 1.944052231811275 10.981537182526175 0.5787573784879839 0.6284611734710144 -0.08588872954401983
Ni 0.40673292241869197 1.005237731940771 0.103504505283484 0.7287637644475191 -1.0991635707305845 -0.5512501742066506
Ni 9.321173735493373 4.889097276383331 13.23763741738382 -0.4090900237644116 0.14758157856812648 -1.126113359846551
Ni 6.5493065316034675 3.019298619899942 5.266744607055186 0.9549087425428457 1.4855245283285965 0.3736080288077179
Ni 8.332321205814097 0.6091969899774119 9.723763914029623 0.5302974832143835 -0.8851755397127659 -0.03265146748643409
Ni 3.2378887360109188 7.722761957963556 8.634690421583551 -0.9342913234028103 0.11982651994204523 -2.124339791340425
Ni 0.7276525278913395 2.6402654206467853 11.691679651016639 -0.6047957115332746 -0.0297062688151811 0.7688814584040113
Ni 3.84645409687621 3.552244971915555 8.919993576063298 1.1203486894486319 0.04760037548678254 -0.054700991087305785
Ni 7.958108822872571 8.118115338834313 0.816745671888707 1.1822821937286347 -1.505756796215071 0.08083419783924788
Ni 4.362300019547485 7.923926541510721 11.956685218205106 -0.6019952659700019 0.5432596998020063 0.5140023455987857
Ni 4.93538268617303 4.7401814245373615 5.829071001447844 -0.046545966080339195 -0.31915669183737294 -0.13727454021516358
Ni 0.7382824743018015 2.916937549082665 1.3006878223334757 -1.671303701012367 0.04046196466978838 -1.6921957139700277
Ni 0.5988438457366735 7.22299471166113 8.810731028329757 -0.16851755738984525 0.11518670717718872 0.2296668752056561
Ni 7.0546469759540225 1.0334938460447778 6.735265573142659 0.13672766657275806 -1.0068360275397563 0.23266066772665736
Ni 8.156802621951732 0.8148024835025931 2.2641618658342613 3.7665260061615453 -1.1399970598071787 0.9440741138211869
Ni 2.6422903492709384 3.26851345928538 13.151499926084641 -0.20493517678693096 1.6690287889352613 -0.8718862788030275
Ni 4.7097517631945855 6.030265308717933 8.194664142891687 0.9012354213891058 -1.742548969611599 -1.487525103698393
Ni 2.068148775016249 5.848950598885516 11.824651512113256 -0.13129261160011582 -1.0309280354919534 -2.304533242406302
Ni 2.6451884122559646 -0.09955960993175103 6.148917766296227 0.4726746904945924 0.3633333863545872 1.6930009834801425
P 0.7069843229298584 1.434671218875828 6.076837738207111 0.4160924232241737 0.7795880461882381 1.316674270189681
Ni 6.023772532991864 1.4506662972739541 3.680097850604967 -0.4907698574334064 -0.043781258851008475 -0.06938456124140953
P 8.585911005667315 8.108891696064662 2.962042369752503 0.4842580244568176 -0.5773946938125024 0.8110223534381193
Ni 4.352036046475517 4.27807041971345 11.34643768039562 -1.3591728056735237 -1.9565426570563724 2.057392121675283
P 5.913915510799857 2.7064471474683005 7.7792723284388865 0.103692333384344 1.183069979737253 -0.9863885583186819
P 1.1884473291095516 4.355147748719054 10.377325418202812 -0.8335752990379708 0.3203075176123645 0.5048481899033435
P 8.54668498007191 2.95878297776069 3.3587147408279834 -0.39709017109005806 1.1275140968488195 -2.183301614586614
Ni 7.442810931342694 8.51653397863154 4.870032294727027 0.14539691221198184 -0.07005201962207935 -0.2741485025577989
Ni 5.987704652957065 5.83135787038026 11.819486086388983 1.2218267887904766 0.8132345305980897 0.6991852794594539
Ni 5.746645260048721 4.119782306483213 0.5186817516114306 0.29471347119334407 0.18145072051174557 -2.178772359257693
Ni 5.8878979645785146 1.4201994812775234 9.470871692798761 -0.08238174483202586 -0.07542331123632172 0.7938304150398651
Ni 9.405421912654234 4.767564404280495 8.40068205307243 -0.7166901211124367 1.1202728419053738 -0.35423733759058995
Ni 6.748083928653351 2.7108685512531485 11.642792486604806 0.016606241098113338 0.26490358692076316 -0.3390511167684548
Ni 3.48213414047011 8.512920688563671 0.7470045292471211 -0.5345446885265116 -1.2594168312291085 -1.1532019885332268
Ni 5.176915800915466 8.319252056391237 9.834290648853749 -0.1751548602007048 1.0977522922053546 0.00013909668102556687
Ni 2.729111486197352 2.76451987112979 5.0874418217181425 -0.8321604209683152 -0.9815466568453484 -0.18111699132141065
Ni 5.775895261137976 -0.7943943611166913 13.855376262236328 -1.0824642556980324 1.085094494232028 -3.822915183584552
Ni 4.797836158345242 1.677467591842506 5.83025344830039 -0.7819550037585178 -0.16312903938442228 0.5089673542780395
Ni 1.766536585314998 2.432589484046725 9.530050696272804 -0.09143382773196512 0.11706206982303063 0.48381708026465703
Ni 2.1102449976064395 7.789240922014304 10.536575836962694 -0.618585052007883 1.1035904961536864 1.019959452295592
Ni 1.148877622967846 0.5498730833541179 8.153403900008716 -0.37755647193250463 -0.26844682418733123 0.051623123492930446
Ni 2.3039786504227675 0.5348254486241735 12.049429735790339 -0.8347310099089689 -0.6450046796519924 0.027482778801301053
Ni 8.659718725151352 2.8824858964818234 9.532945972658808 -0.3815270265444784 -1.4225119320518018 0.22117323591234814
Ni 7.150849662928118 2.3838518671158493 1.438027212967142 -1.5186351948396362 3.1241448801753293 -1.0756400336873475
Ni 0.6351021433714502 7.7095627672529075 13.393516980190922 1.1927944061138682 0.480391856633192 -0.6550849467061299
Ni 6.623067807770436 6.576513026741743 9.468248574250778 1.5406731484762821 -0.10555458340406337 -0.0060523768416669965
Ni 7.1368795131541445 8.226411865572846 11.384462681811655 -0.51157933797959 -0.29139674811528526 -0.05384507084491371
Ni 4.786764071556294 2.169515958848276 13.029581574450145 0.12012708190159954 -0.05860803945119584 1.0364505079720796
Ni 7.007256215218111 6.541420456365367 3.3769047303907307 0.3694078746834412 0.08082828430197693 -0.3673311946600706
Ni 2.2759826188943397 5.420798947501528 8.75270753458436 0.696705964681026 0.528208719006155 0.7656932904840167
Ni 2.2704651528266937 5.055373640149217 4.811112444962222 0.5959727139250058 0.8778190993476948 -0.9458584594151195
Ni 4.362606545440132 3.451639458483439 3.6335087015216443 -1.7927690421094158 -1.362214677823641 0.8855915442042619
P 8.616972296122213 5.9894416330153994 6.444403153609904 0.541127741060668 1.3372466950243938 1.201699421912982
Ni 6.009050001481395 4.297102891047805 2.712916701535835 2.1854340875485847 0.7933935846127625 0.6351707242807061
P 2.4433829109332654 3.1618052939905636 2.476582451705961 2.0541250208882365 0.4792546577049553 0.6010670977287778
Ni 2.338829715550392 6.425479359637487 2.4052910311406546 0.47315008746911413 0.6172552774528659 0.34007518715759494
P 7.014761455256256 8.573287712088305 8.532810503531097 0.5115662253534673 0.25702778371711216 -0.47477065379167266
P 3.948508641800839 5.961120498267497 12.949221631794193 0.5946447391422016 -0.44021734129683543 0.6015085561415705
P 5.65459460562048 0.591756595552138 11.848837333909447 -0.4495776994658129 -0.21785985526839902 -0.6127540471484028
Ni 6.010796270203141 4.3231390145959745 9.832510012077371 -0.723840873224605 -1.2293169265199344 -1.718777321113298
Ni 1.895649006763287 5.775115013411239 0.3836125103160347 1.003168091769866 0.03070025729733423 1.211778917636171
Ni 9.135929921037025 6.786418242561055 11.263577229548744 0.03119776575904304 0.00329743980434916 -0.017576061210550373
Ni 2.6060552732946958 2.290974521643803 7.392688374696859 0.4299331857620079 -0.5289617951220955 -0.822936331266886
Ni 1.577735212771263 8.777610441196076 2.138409153942652 -1.0874303414540563 -0.18199270905814463 0.30871749878191995
Ni 8.49992584844812 2.781722475771677 7.236645331413676 -0.45853362310751994 -0.62416923096388 -0.41982695056594144
Ni 4.781803925293461 1.0870522792872839 1.704663869451027 -0.3833422253763462 1.0253747097738921 -0.14512386105625327
Ni 3.3676513638981564 0.5583146206643484 4.08665335955246 -0.7958759847149841 0.8485692013436419 -1.7970964658401758
Ni 8.681519218182943 4.557139023310025 4.878189598936804 -1.0662927881444926 -0.69615446305293 -1.2187895446260493
Ni 6.51646181777317 6.571459993844774 5.765256026064102 0.30586485982447326 -0.4825243295951625 0.1357593891222178
Ni 9.520972885518745 6.737476275035082 4.533463149135238 -0.5434934130793673 0.18627488137326628 -0.6309420309113392
Ni 8.94403542357658 8.417897661843096 7.004634954402809 -1.2650254356651374 -0.48177716701649276 -0.585905816607307
Ni 7.997734260994758 5.049976926705947 1.6900091451834756 -0.743759466525403 0.05462951441942204 -0.6421880361388037
Ni 8.070789598742296 4.778645779732856 10.43529410883407 1.008180971603425 1.5253732848944181 1.489504596022267
Ni 2.7442241415711917 1.3559126417923717 0.642284137922804 -0.8189117834885251 0.2160649681515053 1.2675679995813331
Ni 4.621927450619507 6.01728904592921 3.7346269491741886 -0.3661847397604532 0.1960252758918108 0.28325149330033156
Ni 4.325108211239647 7.395884603777461 6.387807327431169 -1.1853904003403133 -0.8762360711312909 -0.09876070041068152
Ni 1.2360703064308016 1.6782385509058302 3.2315752314887316 -0.742555933135605 -0.6333241579902706 0.7039387349840392
Ni 8.225826679777791 1.3347159118826597 4.576437150418008 0.8347436083144592 0.6279145569389251 1.7358697578192104
Ni 4.12370212244373 6.219410361807969 10.3017101248185 -0.5368041739846497 0.4814264685452935 0.4871847111853093
Ni 3.3398225283111724 0.6061521661104515 9.221554678115774 -0.0520902929373361 0.4795608760914644 -0.4919368811583141
Ni 5.148771150772421 9.286554886951087 7.601981467597218 -0.9533606813294355 -0.4957930216796106 -0.28875468250674785
Ni 0.7988817144117754 4.750965562760489 2.617697684017234 0.24422009042948264 0.4752339665813363 1.666569271651175
Ni 0.9999803484487041 3.8710133229416255 6.392443299340869 1.1447574573102994 0.1707626446702801 0.1726215522558898
Ni 2.4400482807678023 7.462252103867246 4.329363347949392 1.920729504012505 1.1950418073871483 1.2580474616854078
P 7.505370079432927 6.191377175625888 13.386093480390818 0.12353585047283241 0.1655260788616891 0.06880452036822343
Ni 7.545515682706272 0.7106607759089398 13.087590206334081 -1.017518189843951 1.0928006046270342 -0.6471358670623822
P -0.10882040735505637 9.041176265555443 11.587121811302058 1.2934636364011725 0.1616524548388958 0.8186724137842095
Ni 5.443491152220822 6.490202766303074 1.2287257602697108 -0.17680010911361166 -1.1713308369234536 0.38484117851937594
P 4.120209585000237 7.8504717912364 2.6258271222367693 0.3699704320551305 0.48572303903811836 1.158490747735992
P 3.100723043383086 4.86607067978115 6.8640092346534285 -0.3406858241584003 -0.38784936921808044 0.07658519275490681
P 8.218869470881046 3.115854276083752 13.20726627462055 -0.2830730587409383 -1.6825985571998956 0.18851662621959145
Ni 1.6953761349038223 6.791629182736055 6.597889027855337 -0.07052201727996242 -0.20248311570201255 0.2947456099828601
