# total energy = -381177.55692738073 ev
CRYSTAL
PRIMVEC
9.15414621958618 0.00000000000000 0.00000000000000

0.00000000000000 9.15414621958618 0.00000000000000

0.00000000000000 0.00000000000000 13.39801830764421

PRIMCOORD
 96 1
Ni 8.427407538194082 2.049988617896941 12.095878468877679 -0.3371785823360902 1.4911750417461545 -0.804247239497815
Ni 1.3384643088009045 5.585045193393441 3.1105641770805343 0.11294341966896677 0.3786337641570834 -0.7111812754790655
Ni 8.921786349122595 0.5659175468009208 2.620022784171153 0.23083287048929924 0.3491591517367341 0.029245527128678665
Ni 4.5345794730942215 3.2710693120525036 11.332083985904632 0.1316379107546765 -1.3824027227357418 0.9873712339469253
Ni 3.996745930923297 6.783890466822689 12.554532309478272 -0.08977469486198733 0.8278232270455421 0.4495730714801225
Ni 2.039552891413615 8.515571118686111 9.136376009716308 -0.7462171840372761 -0.5249467604254314 -0.39230663365848567
Ni 7.579477298985728 1.334509717712486 9.41079442257061 0.8670029825687972 0.4754563670047876 0.6070166304439932
Ni 3.045099217104344 3.832007918823354 7.416647010920106 -0.43664016546853834 0.7532419520945415 0.45455844050985583
Ni 7.4407645240718345 5.386455149244955 8.492092564927834 0.11509363324275017 0.038677104855223715 0.4190985570403492
Ni 4.792799624534274 5.397659823995473 10.829497567638443 0.8452771608559313 0.5701907198648954 0.12315866963907177
Ni 7.371559180024515 1.7746959840960084 1.2087784372950874 -0.5449982797596679 0.7486101097494849 -0.9064478188279809
Ni 1.3367524834917974 1.7869533856408972 9.450131618925127 -1.3009193213482693 0.07808568855983326 -0.09642973828465973
Ni 8.88453812889395 7.341954671737605 7.95433591758363 -0.12184946390934498 2.1103519617017654 -2.452890779908505
Ni 6.950770549095525 4.192360877609431 13.070034312389485 -1.4257656631024092 -1.8202155683561427 0.868996101739426
Ni 3.406944301694616 1.384354042889425 10.48421691030394 0.391403662228242 -0.3844686256713056 1.2314175178027051
Ni 5.643659190474789 6.096578873997177 1.574883861451448 -0.8934442074794613 -0.07709349984989304 -2.29873823299108
Ni 1.56996350795602 3.1967559545159774 3.2387295449294387 0.5494694281571441 -1.113731184132114 -0.8650743980875166
Ni 1.8774970441028076 8.357918415619585 0.2503530783349913 1.3963926092569308 -1.1213696745139785 -0.13831686543674887
Ni 2.6849201870929873 4.540914142152521 12.56917619689527 0.12360192782407746 0.13771754128985314 -0.6992485285972215
Ni 6.433121898938403 3.5191558238284855 9.790012245511809 0.18774863770531536 0.18913729052272588 0.4754548243428908
Ni 9.14295967154684 3.7831064706883293 9.956603056769845 -1.0914620883212687 0.09829147408374685 -0.21054815209833416
Ni 2.92129854608636 7.118181571838567 4.7038030167527864 -0.41255612793614105 0.9805714374162725 0.04346089939711224
Ni 9.096346759921317 6.738540827350411 9.923617006936498 0.1647076967254518 -1.2818911010722245 3.118892116416822
Ni 7.696934146799374 2.5162825087808542 3.4427013115336687 -0.4196572577572966 0.676603537504196 0.696384319675549
P 4.2195486913423075 3.3843701775648953 5.55606408245172 0.17116039432933103 -1.0202409880917525 0.0978692989446637
Ni 4.337975878635982 8.841559413245516 3.6036110597605178 2.1572925921173622 0.6097437995671692 1.73700875651966
P 5.174554976757209 8.166065822955069 5.678321364447696 0.030094762502851397 -0.17308229394239225 -0.2875724892731886
Ni 6.694390381009111 2.5623187092059827 5.8519727685448455 0.3796537207811655 -0.5834576121771305 -1.0260794491504008
P 4.8388358249594035 4.657089409520846 13.38936296570624 -0.4466844370784179 -0.3260968706006319 -0.17432825053435136
P 1.6591340445122293 1.4493850963434145 1.7885819082210586 -0.19628290042857163 0.3716326502489019 0.28537471029092143
P 6.3337078729656655 1.798679846715582 11.335500313206015 -0.38373251883622944 0.05268704598107056 0.21238829063086648
Ni 1.0564250693699617 9.050594338023368 11.374341354845273 0.42781922474279876 0.6350329131512612 0.5316185160186522
Ni 8.80244374722512 4.923475059226799 12.116149409864237 2.607277297213606 0.050650989387648254 0.19070360656858124
Ni 7.168913849181191 8.413996714248404 0.01915779682833746 0.326766900084463 0.9575122416039638 2.997882631910269
Ni 8.947445420467124 7.265783022555363 12.39445284229707 -0.2093425618260072 0.37378646336711113 -0.5478254647958178
Ni 8.44838884091319 8.047226699089684 5.920115316237152 -0.01372763399873765 0.06729399726096798 -1.3087622144314557
Ni 4.142882718274013 8.189152579262919 7.778005094941157 0.24801015359953416 0.1535318826142904 -0.8713041810473124
Ni 3.763663064503606 1.0911009745619258 1.8298341519267254 -1.1429916236591284 -1.415772299335123 -1.2052534578128276
Ni 3.7223870200182403 4.531183284914121 2.9377833322715996 -0.616269516500829 -0.07150083625346396 1.310782330185278
Ni 6.868886712785568 0.32407233179365164 4.560297130973393 -0.6553294586167682 -0.5889579731700696 0.3728456967203965
Ni 5.628042217333952 0.30814961017514525 9.315400897537765 -1.1300715731633506 -1.3896321506046454 1.0909604660945018
Ni 6.410859015773974 7.366634249456068 7.346695603970689 0.8403645540456625 -0.4572305880253803 0.7384048870817089
Ni 5.218028016291695 1.9515632396963083 0.05051623949612835 -0.012469850332236588 0.2093559315624459 -0.7109799581015368
Ni 3.2815508092660197 5.751998508834582 1.1691931635829411 -0.4989709051869601 0.7829204529955807 -0.06040524056093467
Ni 5.73475209769898 4.2805244581014605 7.253861578170069 -0.6485797985977604 -1.7618564116909594 1.0541070447115781
Ni 5.398904787856642 1.8689104551191587 7.741093747286712 -0.2599621837550878 2.021748147219428 0.0947775473932174
Ni 2.37747819240658 4.102027764506396 10.107960453606035 1.1282118942467925 0.47460687452029876 -0.8512349211012631
Ni 2.8458958451713103 7.885463784452093 2.3917467598360194 -1.5084824226763505 -1.206466247174006 -0.6675100598433601
Ni 6.930219491240204 0.4661931952774951 7.038916736710083 0.626570641316521 -0.7079486274743807 -0.1961718287720041
Ni 9.204310758293552 1.0052900096016641 7.336111580321546 0.7655629355537396 -0.5873777731671432 0.8411549111574416
Ni 6.4865546493622395 6.498500809941836 12.407087394658724 -0.8870367612912208 -0.18875291060011365 -0.24982689509329878
Ni 4.945435855571975 8.467044990538644 0.8773306100386149 0.018446636740961777 -0.30435767915132744 0.3222103910620322
Ni 9.070211672982813 1.0914579862574079 5.004012320654566 -0.21399111634161208 0.7460040395852056 0.40999633762876486
Ni 4.160962156699074 7.6363062375896655 10.192166696765835 -0.3648109993413782 0.5216318371195856 0.0278455614573585
Ni 7.585152869529291 -0.09486533080645256 11.378521137926224 1.8626392847379922 -0.05455906619280282 -1.7466028279659984
Ni 5.435109435436953 8.923937573441528 11.838984753198533 -1.2990971805378662 0.18882592992989414 0.3395177719922282
P 7.383303949391275 5.402218588722399 10.767397671745822 -0.9896764850413342 -0.6865418796638306 -1.6377865430915277
Ni 4.08273082465828 0.8583824431545478 5.934383883666591 -0.3400343066173305 0.6276949847289512 -0.5910374814069176
P 1.3236162839272598 2.9881055038717226 11.66363159335292 -0.4328513878500675 -0.3084758150847591 -0.3743083973088521
Ni 6.626219455464086 7.187844623187787 9.933692060065924 -0.7360600409986162 0.946639560555518 -0.5428388102145039
P 4.356586257531246 3.392984228986658 9.049423522745107 -0.014450628207691241 -0.045374314369741216 0.5543504103985292
P 9.035911087778407 8.991623329246536 9.627065699791505 0.1007939287906264 -0.40153817955908266 -1.4439539039756617
P 0.7196238975104637 3.0898080663539615 7.3062873725297255 0.5779850190983336 -0.10116185365300642 0.04597183874442405
Ni 3.328877744282507 1.148662244848903 8.351225819451198 -0.3500850059851132 0.8960402503414117 -2.360674308374244
Ni 1.0493031437523936 6.013779623083419 0.4302402867132293 0.7642313612265096 -0.32990544571344477 1.0447867957519166
Ni 6.631327468953294 6.508963998863277 4.958633387914967 0.7044182457236191 2.5897277183656175 0.6169200056006343
Ni 0.19896719496525242 0.758516202367533 0.25101492309353907 0.30391622073853464 -0.35500866853897567 0.4738944218343064
Ni 4.59190273558421 2.3934704855349755 3.3517686018651434 0.12707317420212952 -0.799196821558101 2.7463405538980767
Ni 1.8014077822349075 8.679476103496595 6.323636481494653 -0.19255634350660386 0.33723797481911594 0.1244074544445083
Ni 7.79098384319384 2.920914071952764 7.906733442771398 0.36412580034889547 1.3858438872068068 -1.5780114799154243
Ni 1.9142967111755889 6.578416504853623 11.194673845971947 0.7302136095201681 0.17035461059858403 1.5265637056580934
Ni 7.824634484029548 6.080980209148415 1.0436989755479267 0.8625760571456952 -0.761118783739457 -0.9545529018653237
Ni 0.13665858454296567 7.667100784861516 3.5966044763830287 0.5759610466897693 -0.8621996476428828 0.3255649093565619
Ni 0.6376860517388823 5.896771328425635 5.4526982116343765 -0.49734236844460156 1.8595706731149972 0.2812393479663092
Ni 0.6513147443602645 5.200580213943257 7.902552744275842 0.15297703855208494 -1.1021671334435985 0.06748657288774829
Ni 3.082969919263571 3.1786124370686504 1.130479364573613 0.24725733459390967 0.3291857939386008 -0.17526130387158204
Ni 2.5170148404638946 6.5106117451501175 7.091343446484342 -0.6683379550612941 -0.11165941075022058 -0.9199993322601704
Ni 5.843210419957266 4.277183194797589 4.507307441217796 -0.32084744927623454 0.2615711801134205 -0.3928622490516395
Ni 4.79566487224417 6.001183518135123 6.369725775966802 -1.9215563707891745 1.1595806383660612 -2.515701030366506
Ni 2.6490450887700447 4.85958827402756 4.951559063856796 0.37514683404974747 -0.8680373373705824 1.018210587925285
Ni 4.928491531255626 6.3758901779087935 3.576507464171192 -1.376670962458287 0.6298472551852636 0.6962956166164846
Ni 0.15272777249808014 3.7430296193339423 4.911820915905815 -0.4539172073814312 -0.860342539829486 0.4512972532600808
Ni 6.979972274956762 7.664995331272774 2.555926369027644 0.6097710532606788 0.44083877693091816 1.0796123880715343
Ni 2.0768011116422587 2.5759583868026104 5.652101143951038 0.07696031670613843 -1.2982371465304157 -0.15192417180753834
Ni 4.304453395844806 5.938166376809495 8.609740734393675 0.4410336665505436 -1.4735264754264557 0.3379339724448761
Ni 7.637185035609313 4.828967655530433 6.011757472223623 1.0779583974078788 0.282316640190888 1.0739454195937441
Ni 0.7294289033317712 3.5543992860748053 0.34612558501381013 -0.7539793444811983 -0.7433511753433908 1.1674441002745377
Ni 7.871641023934705 5.450698946139676 3.4001226320670948 0.9146630076489215 -0.6355399346946667 0.45035365839988883
P 6.2394659395044005 0.45724410211074107 2.54834307444976 -0.9747723142359921 1.6104829701805683 -1.3071745582293615
Ni 2.5976537129126833 1.3846561297086792 12.74494495497101 -0.3810161483463309 1.847143245984922 1.523163421727293
P 9.021218683387408 7.812798173202407 1.239389901646177 0.7418154554251547 0.8578246585036388 0.9406095523113542
Ni 5.7443914134769996 3.7848640667276268 2.081998835762638 1.1985927579632003 -0.1745128557413317 -1.8170610818875608
P 7.948014064329783 4.028657284011783 1.7930299077809253 0.8073022242740548 -1.2265529906215522 -0.6533905897228425
P 3.2856244042529323 8.806196947100702 11.824930392786383 -0.6517836502470389 -1.5707594263387012 0.07152294774065102
P 2.2009679485017624 6.276283914869258 9.173381645074944 -0.10225894337192712 -0.4647850033338705 -0.29990067182123836
Ni 1.985671587833916 0.6724553292204339 4.181494906262319 1.0057386807105195 -0.629190081217239 -1.5822669127576687
