# total energy = -381167.7164011627 ev
CRYSTAL
PRIMVEC
9.28978586754833 0.00000000000000 0.00000000000000

0.00000000000000 9.28978586754833 0.00000000000000

0.00000000000000 0.00000000000000 13.59654064310011

PRIMCOORD
 96 1
Ni 6.970302790473349 5.621862512477486 4.641586664436787 0.42451021497422375 -0.6135084088159241 -0.9741308239972513
Ni 8.548293675547798 1.9756773253183624 7.163554488523247 -0.12897656187242948 -0.5899259935102937 0.30152792301201614
Ni 4.51449217595023 8.437587298188207 5.019693023153403 1.0184779826540589 -0.2930150004449986 0.9683065040059904
Ni 8.920414625274502 4.942184624322992 9.974816461136415 -0.5957138038366644 0.8968935994806425 -0.1410211517417894
Ni 2.2892447551577204 6.144468702352551 8.669153788785046 1.6646504573619074 -1.3440848009921498 0.42977583424853727
Ni 2.486141765154912 1.322939815979242 7.52322433834435 0.0397327998132477 0.08118283942791825 0.7147489382256658
Ni 0.6255323716284917 8.57123015668406 12.37962336469055 1.9311941509892547 -1.9487172474746826 -0.3185026031931418
Ni 7.161049962271997 4.922072238069446 11.58415758634474 -0.6443930142099225 0.5690429794136974 0.5988076122706397
Ni 0.9897616483194509 3.2353165408672737 6.504503640755531 1.316304802665404 0.7342607830063483 -0.9463587960903056
Ni 4.961646725570651 2.604484346440792 7.825597576296629 -0.18502686789877812 -1.4390176430163089 -0.45819449460054634
Ni 7.061101156866959 9.269552644935953 6.3919783233366125 0.7628159689362217 -0.49828004976752255 1.3533916802153725
Ni 7.296021260137022 0.561234977181992 11.1658738330286 -1.0115704569009483 -0.1772179133773206 0.786324079360491
Ni 0.21927796194270843 6.952587168955792 8.528403315174833 -1.8174475186927022 1.6927235614490395 -0.528850723465528
Ni 1.7257263486264804 4.296953261908983 10.568740336585833 -0.13879303374221905 1.4240337680129669 1.3045013822725728
Ni 2.914679584035329 3.1248981468674333 0.1565124531743657 1.3314439722996876 -0.6506508221941762 -0.348552885611303
Ni 6.9294091533887725 9.28569829265358 1.5324254147118517 -1.495998945497359 0.29685854256080485 -0.025654210232994527
Ni 8.005407883274815 5.0044633483154985 6.811785601523688 1.1835389489538712 0.9682429977579067 -0.34138362155637336
Ni 1.1830170622836675 5.785725044175551 6.10533640865535 -0.9761285711535704 -0.8947451856790719 2.2369595091213865
Ni 1.3612044436828716 1.4310450533152794 -0.04315755788364954 -2.039350176571907 0.1556892952769254 0.7344528444124965
Ni 6.033492921204807 2.9124035865147198 10.929184954542523 1.410018170460165 -0.2850636068084058 -1.0202975523613007
Ni 0.028959049269367525 4.078559687574283 12.405198144993559 -0.37348513007660833 -0.443299836876901 -0.5730837251419743
Ni 6.401935115755343 6.841908660953596 6.63758632516774 0.3625494570007111 0.45465717087124924 0.3050091966923973
Ni 0.006731378789524176 8.11725690428761 5.72865789001595 -1.0083678908032505 -0.9014171983826089 -0.1443162775532934
Ni 5.102275502986903 4.572126007043534 8.946877509099838 -0.20626546556258024 1.3851450613675693 0.9976273644572948
P 8.891356175297092 6.347116089758955 4.111974118112565 0.6187118073937345 1.7150469075365882 -0.3033914585833162
Ni 0.11960227624014344 0.16733226669376788 10.11717220973259 1.0052473428963977 0.1051169816460125 -1.1141237915848425
P 8.64525116992575 0.7031968388603161 12.838424518766432 -1.715760131553529 1.0355303101506554 0.9839928043929959
Ni 2.2527916356847797 6.804275738684257 4.620906672270958 0.933654718260076 1.146814339839328 -1.8599555672582422
P 1.7213880186586255 1.7449469154433803 4.8544268048212 -0.2111312782953138 0.5453137541175576 -0.3602637462903279
P 0.8006504077999027 6.2083917184313755 11.722896821329597 3.0074281095068596 -1.9429230093904086 2.1185136715769515
P 1.7147736911701612 8.200669890971488 1.687711616160828 3.0848005740497513 -1.4081744323832073 -0.16466373086139383
Ni 5.5990746679139995 4.26796913021796 6.128273818770192 1.2168100523021754 -0.23276659717690235 0.47861368168684676
Ni 7.305608319080976 7.946687147243098 13.1146655892678 0.8098728132147085 0.8748217072822675 -0.7057585618015975
Ni 5.453745258883753 7.421359050129101 2.584797432376812 -0.07556909278556662 0.3548184069050405 -0.08218736943303265
Ni 3.9618335290173254 2.5862392071327243 11.58903843980322 -1.4360187082889848 -1.280756473247149 0.06501471430848801
Ni 8.649152879961079 7.180623540949236 10.884289277735991 -2.990510250705598 1.9209117952266404 -1.5511884461853092
Ni 6.965128379783639 8.423782676491777 9.005940109248936 0.46646907590451275 -0.3099158899653953 -0.163744304370918
Ni 1.5199390136202158 2.2508407806671147 2.380659034349764 0.14478139011517 -0.59808436095137 1.3360187361545637
Ni 0.9427832015369175 2.624559573551145 8.877698332216276 -0.286651520120816 0.051741908458981856 -0.5424161208547884
Ni 5.5548831568709875 5.164461329121425 1.9183630628565236 -0.5985813551924466 -0.24526884340897115 0.9638363840497788
Ni 3.6123889464245273 2.509106115648569 5.882067554733648 -1.0911234740349274 -0.9264137204269466 0.6557734881327222
Ni 8.598718632861539 2.788440684820805 10.436976801756998 -1.3607278088654695 -1.02333865318047 1.475928399999729
Ni 5.892046642638294 2.8859462765608628 1.5966419880219052 0.251454917615025 -0.9321663066400077 0.4721969795272255
Ni 3.1292922155500786 3.323792460811281 9.152905449558283 0.7638397822150459 -1.0082761024203926 -0.9486712462735661
Ni 4.7364994769605095 6.087466576693539 4.357718679794929 -1.2527802997491972 0.08443142827220297 0.37091659801848376
Ni 5.438658646747144 1.3692493981842901 5.540589892441561 0.8808460590994764 -0.1685124151835227 0.04954052993228888
Ni 0.7007657019168736 5.077109473259024 2.3781572950342533 0.6896094628455608 0.8529652735288085 -0.9227146743088044
Ni 2.482639515908913 8.278471847033128 7.792952340022455 -0.05124337155600853 -0.45973201429099536 0.3309973932260429
Ni 8.496976898797408 1.3333165067160604 4.887792928473332 1.4611538127937158 -0.03209713764486085 -0.23583957967527125
Ni 9.302234111374739 6.359192811296882 0.38699668372568996 -1.499642198676901 2.6288280268011888 -0.6622179582064853
Ni 2.0633729032553045 9.051261258245034 5.563989933889164 1.4733267007108237 0.3572290732290622 -0.14902191055907885
Ni 7.6019060371211 4.687728101518885 0.6404759210638057 0.08912266310028523 -0.38160004587425894 -0.2575126937733307
Ni 2.8971497582337387 6.249322514659148 2.233041551077371 0.5255761664793142 0.04570187291248903 -0.5118529033559508
Ni 4.807557048532509 7.075035835564567 9.34982382606281 -0.6875227555198612 0.7625763421215899 -1.2039571075989073
Ni 3.357672309618064 8.557555591988807 3.1010577695729866 -2.1829439741368795 -0.4385872618925802 -0.7194388875021674
Ni 7.033046003755777 6.131202888232429 9.239624671007812 -0.026421941636954493 -1.149601158555846 -0.545982498049808
P 4.358135791177277 6.806700372777642 7.036032669889964 -0.9624521021077423 1.1552092487712426 0.2676780643421068
Ni 3.5883376909924576 4.882711415641603 7.057705740157642 -0.9040597782117785 -0.5329783724806564 1.1780154480324807
P 3.8782068772600846 4.513015100008284 10.860848361230877 0.7828325212674647 0.1985999785975225 -1.1642489903760078
Ni 8.504111454290584 1.456731311047869 2.4638295576243032 0.344034171805343 0.5930884503986754 -0.5980861607235829
P 0.35392690424052825 3.278040265754137 0.9590059544766719 -1.1975638024780535 0.7694938951770297 -0.2986979097623888
P 7.6938563369537105 3.209871817565442 5.631442139592802 -0.962678873406568 0.7559475239511626 -1.097285379871265
P 2.5922311189726956 0.3452065823115656 9.620028393752374 0.06212890812026073 1.1084239129865878 0.18215674543983468
Ni 0.211691922859731 4.375851412694836 4.416686524128884 0.7102708478496541 -1.1870415627904911 2.933169765112916
Ni 0.795535451739301 9.208992531316152 3.4319023430402185 0.48119506926077776 0.08198630916582009 0.9626891578192129
Ni 4.176260364816107 6.484493442145767 11.497900996227969 0.9632380883441475 -0.04533677626358644 1.3741296840936723
Ni 5.144897040229985 1.481460720843223 13.375556217715882 0.08683181018357948 -0.6907595172896039 -0.5930732808900238
Ni 7.50237527207699 2.4828346014106795 13.037641188277485 -0.24134508287453274 0.2500197278303952 0.058904230535375975
Ni 5.775134688365369 6.374938998225178 13.56012939787291 -0.3695004343972475 -0.961205631295151 -0.44479467625487273
Ni 7.632998950188361 6.76367008495943 2.2199754673519148 0.9863543626466369 -0.2952233209502271 -0.0024032101248539256
Ni 2.4430464488361117 7.771017297795262 10.670714315294925 -1.0781779696178528 -0.2063433699883672 0.05279426098289618
Ni 2.886986732570284 0.45666636129940713 12.177999711679133 0.3663888853514593 -0.8499758518831813 0.4118012520479875
Ni 4.864837867765473 9.036954988115491 11.38106614717717 0.9446577542387988 -1.06343192165693 0.32605007652309653
Ni 8.097701905181967 3.802541571932077 2.843757643335987 -1.907545144111747 -0.45146180386240314 -1.400402501747272
Ni 3.3523121032123844 3.6422463179806006 2.4387025449967776 -0.6824337710327278 2.99842384912572 -1.7990247932111405
Ni 5.23729324978092 0.9278173566156873 9.478855234888334 -0.9293378360522769 0.15674061935957523 -0.11111073733560217
Ni 1.5859893906468743 4.968539746633066 0.14813678229852387 2.6182247973640456 0.3186941503786576 0.2071455541746884
Ni 3.2844037690260444 0.9782330241436306 1.2614014879148685 0.5478707162114564 -0.7131214299245717 0.30455205455032064
Ni 2.7728988731800737 7.273502819361688 13.321305726610358 -0.7679360637716064 -0.14702904849876616 0.4070665655764796
Ni 4.8518135880761095 8.965488665968362 7.370372060774556 0.05046201330529374 0.1946736469599228 0.39295917964082
Ni 7.289629887507719 8.76207022634069 4.086317587694531 -0.45256686400112384 -0.514054796103276 -0.8512914853708113
Ni 6.639001159544836 2.088901234629321 3.638760790349039 -0.505454970249407 -0.6903203728696563 0.5562723100115904
Ni 5.0335682472219005 3.7616479348474985 3.981760119554904 2.6678339757507405 2.6248507873209954 0.010881679909510292
Ni 3.0753557192045395 4.340968267021825 4.973641696993551 -2.019426955285419 2.1013962951703746 -2.2903338109774682
Ni 5.358478505521112 3.8150363338309314 13.177427382121822 0.3156839027974241 1.013924044734789 -0.9554648721566319
Ni -0.07463971297586383 8.869692394815212 1.2395324031668435 -2.0181527165586854 -0.06945089570297071 -1.4723028874319997
Ni 4.096266019306042 1.9954181201399726 3.5089676190880454 -1.2941156681628745 -4.739089999892309 0.5883146831591158
Ni 1.4779120226682323 2.0867552941098895 11.245222538425676 -0.0068995553333106975 -0.7202328441583725 -0.517895767115921
P 6.313942264672852 7.197503081744938 11.06583027180842 0.20961895541584544 0.26499768929646617 0.5066513045503532
Ni 4.795322400636009 8.464165375357442 0.4055233035434488 0.05521418327829846 0.6514509494979683 -0.22460874395645833
P 3.877082813178478 5.206785593218958 0.32562928772000715 -0.8727527405683807 0.7533195994100123 0.9833664836629066
Ni 7.020356156355156 3.5374946933177873 8.18645001584987 0.3994892674498539 -0.29549894320911685 1.2989984501764724
P 9.093836346559124 9.205926902002677 7.673683567092475 -0.5004636876824026 -0.8495109964316209 0.5773121614010251
P 5.188113123764165 0.2439061130728596 2.940347262196322 1.6930920005320518 0.7042963754337742 -0.051362670742692185
P 0.5710403460922083 4.847280172606488 8.097949942462785 0.8118859869899954 -0.866304928060508 -0.7326265898370351
Ni 7.487214341653992 1.318471429010209 8.987367969480767 -0.20424097893338372 0.6694147330652407 -0.18342121397455508
