# total energy = -340893.5535734082 ev
CRYSTAL
PRIMVEC
9.05297620285810 0.00000000000000 0.00000000000000

0.00000000000000 9.05297620285810 0.00000000000000

0.00000000000000 0.00000000000000 13.24994576174591

PRIMCOORD
 96 1
Ni 6.367048797970833 2.0797493102709153 11.429178046857492 0.31522573221408295 0.09608418201978292 0.5301694422769515
Ni 4.46805121353957 0.5849354345294258 6.131147245493769 0.3087822905815843 -0.6845227923512727 -0.6657655663484277
Ni 2.665612674876398 1.687547215782723 4.67040696214511 0.5230868243985572 -1.463815418786279 0.6925256080510912
Ni 3.1636531158932577 4.159706838997921 4.860026983618967 0.10116391053553545 0.54148358173819 -0.35102937217625346
Ni 5.149133783413082 4.656072479389702 2.4967266851410255 -0.7611087564371279 -0.20247051729652224 0.22160646679502477
Ni 7.183654423830501 5.9595652794008345 2.5059091190546368 0.6940682699478626 0.6573315766484614 -0.3530937109044499
Ni 5.060785787196055 4.521445668062372 11.339952817231977 0.8719675256629242 0.4557889704828473 0.05775957540797149
Ni 5.469446192691784 7.768187000912272 12.33303625879562 0.5565443327260544 0.9011384907999255 0.8684697969223107
Ni 1.8836890014204022 6.393094210934906 0.5175432679715004 -0.7213764708445125 -0.6802514186694284 0.04495548166476773
Ni 2.663068788521548 1.308136976879597 0.5288268976963598 0.20113045832886006 0.07294039691346793 -0.6180078393481744
Ni 0.5531377603914315 8.987106895845072 5.052734070028781 1.289222087515999 0.8420180304886853 -0.37360828591803397
Ni 8.51321074275841 2.1086645167385023 1.3350641497403333 0.25285102663160325 0.850445078210116 0.5473330985404317
Ni 6.647202204153036 0.9003103505058667 4.972611608124981 -0.1751317202722532 -0.31877282613539293 -0.4466379001111986
Ni 0.8561182464446496 7.364867851464093 2.9910291522222345 0.49429946785321965 -0.5628273375212887 -1.495776802184224
Ni 7.595954125819646 3.701571917739711 3.7765260354442787 0.0006877700956439768 -0.09815931938125676 -0.26926546343388463
Ni 7.615101170803662 3.80660454937307 12.831618973095951 1.467628364774466 -1.0021301374236549 -1.9843157134045828
Ni 7.980144336236512 8.858047664974087 6.918936342328083 -0.9151286344314304 0.8462420958723619 -0.17969851370732925
Ni 6.750822571475517 0.5589334758518414 0.2767051274898101 -0.3185614814555352 0.29779159589803555 0.39849219364390726
Ni 1.967510509461539 6.588059109646854 9.212581230160156 -0.489865343341266 -0.019009965443599522 -0.47067514356606033
Ni 9.02228676194809 4.657394213937062 1.5347945352038583 0.9677200353749011 -0.34231616067297177 -0.5428169558376329
Ni 6.3025010765826375 2.2381673434507245 7.233198647510891 0.6316210592562347 0.037085849108703876 -0.6752493374691467
Ni 3.35818347174032 4.185770357914698 0.20272963652886983 -0.7424952551009987 0.3530389464071146 0.2521084920386239
Ni 6.164053909234856 5.591815274038803 4.628603938543129 -0.8205017536834643 1.04085429346673 0.36623256227925316
Ni 5.258357943097315 2.9163982257734253 9.430145979036686 0.3118051365683082 0.16642005143086822 -1.0421208188839794
P 0.21128469918130252 5.516702729248078 12.559464776818182 0.18078866144771444 0.07976539025510133 -0.5762618657596398
P 4.121385590100834 6.021306578119979 12.628563429418417 -0.9170047684082206 0.5330732461873078 0.9746368170993924
P 2.1784086465526205 8.302375976501791 1.4580642235390713 0.8490844504171635 0.8214484338674498 0.13747020116573744
P 6.392822621644353 7.845291200500387 5.614386154679062 -0.4206029095000176 0.018650011001019495 0.23121185109527276
P 4.626903789584264 1.0203609646091945 12.676435568366633 0.4957297725418431 -0.2686149743340793 -0.2988177231697047
P 4.022843942511702 6.362105872882761 8.219763040803617 0.5223651157411843 -0.07048962138013021 -0.4794606030681742
P 4.555883190104545 0.9926226450673385 3.666684462772854 0.6767745158644215 0.8176876812734369 1.800881386803905
P 0.18395195298000647 5.348760964946196 3.620044433906115 0.35018013680208077 1.0211269902411317 0.3340233245365602
Ni 1.1798744079275691 0.9897256926347688 2.676846513231323 0.7705418768255697 0.27668361027482674 -0.10259421522415878
Ni 1.9794604382458894 6.380646368451207 5.012958007831962 -0.4170673855429333 0.5708790041811717 -0.5280899340401035
Ni 6.019287764393532 5.824974679978912 8.985530772662226 0.039465405084473965 -1.3355207134722225 1.1774253798569658
Ni 8.76847751694957 2.359685445020676 10.40253250606489 -0.2369860345748886 0.7129728201618496 -0.6963652935121556
Ni 2.6702749576975653 5.212975372645838 7.020006486212267 -1.7733816387217394 -0.1966243429283904 0.2380137045084546
Ni 0.6268661050979681 -0.009204161056855363 9.220623894351078 0.11800515046259032 1.082166779062272 0.7113597100384588
Ni 1.4823796127223188 1.0658069058951332 11.495759066734298 0.5720681393932665 -0.40160014314526965 -0.12331139316685213
Ni 4.023975564555674 6.904297679567254 1.7679539411439684 0.4025149416500552 -0.40925328881515327 -0.4441740119517382
Ni 5.75617205970538 7.9091599486622 7.965284780852699 -0.7935370521691625 1.1835916565686777 -0.5426282368655946
Ni 5.112025633347133 2.9192408603478848 4.961110706967679 0.34568199182141107 -0.694590718110236 -0.6983892659207197
Ni 0.8632882037152599 7.6867011607698945 7.206804694957274 1.1037028533618347 -0.6638557509202244 -0.9091047968348538
Ni 5.016878851889919 4.791414475848821 6.77745371200955 0.6423271328198292 -0.2121288663218927 0.5884033862181801
Ni 8.162326432339746 7.376917362988313 8.914789004854143 -0.4328956108244416 -1.0545217636514936 0.9394456139102402
Ni 4.859248427652714 0.39579159961167315 10.23197895808552 -0.7059727346949326 -1.1803070722801348 1.424002400554399
Ni 8.223750876886577 7.279244801128953 4.502358372722277 -1.3942591078536954 -1.2824719132763591 0.8856223974421973
Ni 7.29743223061968 6.29295923950786 6.902717935193868 0.34077041345240666 -0.41105280391773724 -1.202549428618103
Ni 2.3142757156401443 4.990380790108256 2.641323539324571 -0.029975720426483856 0.524930048254883 -0.146966827802263
Ni 2.2871439455138574 5.4278206074262965 11.414404494749022 -0.2309241446515249 -0.4159283868424837 0.9839478100876731
Ni 1.019265554470629 3.2330079677242494 3.948219353146339 -0.5122424254848856 -0.020868101698260835 -1.194877256784826
Ni 3.6736615916471713 2.7444278869950005 2.61592360357438 0.16849364613044532 -0.16361574921285368 0.2978309337764032
Ni 1.3593949289833789 3.381712157278598 8.249972822889509 -1.0245357588123645 0.6518448425022775 0.45958289030764077
Ni 3.696067708117828 2.7610491515768696 7.109668974595573 -0.41411267378998357 0.13052667996836875 0.3695019770591443
Ni 4.227350678298427 6.990717391821352 5.886765770067991 0.9371691591712377 0.37977173441626855 0.01847337621383915
Ni 0.7018338022670635 7.453215847681121 11.164179323088169 -0.27744182859708993 -0.19553008142294714 0.6987026833960807
P 0.35931172610453793 5.649365044707071 7.6599523315432885 0.4383342653415096 0.5160787685118403 1.4364429403105972
P 8.580863635035268 1.7691326386649702 8.03369359665493 -0.6003752138680757 -0.3970402916887291 1.1905277215668786
P 1.9099969506986767 3.356907002074719 10.465469702960105 -0.4514697742822031 -0.4274916662000509 0.5451193787185644
P 3.999623058169384 6.021288472167275 3.8863947670447585 -0.2165766176806012 0.1363970227062167 -0.37275699366133225
P 7.0212530810559075 4.056855974665342 10.402771504640578 0.22944781721631455 -0.5205725426171357 -0.8987630485892134
P 6.390477900769241 7.672125868843527 10.241466477302184 -0.3110911412204191 1.0104471419297822 -0.8174765937038954
P 2.6167356555531347 8.493728737649379 5.9264757455374415 -1.9609089044448682 0.17335328821559176 -0.7366585938145636
P 6.948322303565964 3.792699177696735 1.582269248490231 -0.501364088009485 0.14979735527252266 0.8392294119999547
Ni 5.190044183546777 2.937545978531185 0.6444270686251521 0.671009074135554 -1.3305577130399924 -0.879405469998208
Ni 1.4951805212837366 1.120160975911224 7.21817342265984 0.3701378108709303 0.23951214343085206 -0.8259185538236614
Ni 6.914319324388676 0.7760890301972737 9.142436053493654 0.8575001852846845 -0.005916879705067229 0.03607000624967981
Ni 2.7961475408927234 1.530776824298938 9.436399775100497 -0.3741834416952136 0.5725039413791043 -0.779649752664109
Ni 6.349132957770659 1.7487906008025191 2.5404914887184384 0.422729211814401 0.7271246861821994 0.5811528753033539
Ni 4.248072941167652 6.722957510264736 10.554231420196407 -0.24248742400909207 1.0872321094003212 -1.2169738315735492
Ni 8.050214373199294 7.273686273648959 -0.02612145796542782 0.3431445701115381 -0.8326378748253659 0.16926292019630207
Ni 7.772948866473309 4.301204859376253 8.150372882364854 0.06043737935045076 -1.6350586026374034 0.2226552197745133
Ni 2.9620433325391033 8.070167133078618 12.402903509088123 0.37502110710516057 0.5915689284303555 0.23062101158880927
Ni 0.22953549950649227 5.015330792933764 10.223604954960122 -0.7502170492252886 -0.5980666203395572 -0.4740605150985254
Ni 8.612404204644871 2.1487873079295943 5.861987773793168 -0.17736189515435258 0.5578442824844005 -0.17703870748697895
Ni 3.8697128475213325 2.6355567933884867 11.339979070863397 -1.5483748879959138 -1.0489147018773612 1.039306746473952
Ni 1.0728139095914113 3.227838718227382 12.681523341076335 0.3555982224938586 0.8191277561540731 -0.18029089587568947
Ni 3.143383501841621 8.467746695519768 8.138686395192341 0.9169106660325175 -0.37895335228003124 -0.7361176337094291
Ni 5.967224097394441 8.181736013637963 3.2651315490109076 -1.1363995722639075 -0.8928327991477075 1.4351303921467606
Ni 2.92323322291902 8.451614291660896 3.566210004732617 0.9910489399088286 -0.3167105442897255 0.8133440595927605
Ni 3.3811146608393803 4.605602136228525 9.383148357604053 0.8945289559032078 -1.1660181664612888 -0.33425703781392113
Ni 7.22223820904179 6.0296986871980796 11.349267424600324 0.7037754699332975 -0.5448918360887907 -0.4166292695642503
Ni 0.4297239655734173 8.99457560133529 0.3113907010840224 0.8321113128979347 -0.1427874996135928 0.2965096438618184
Ni 4.594783829488146 0.34780086667324883 1.7002068979130533 -0.649684601626165 -0.8296211994862293 -2.0052159538923595
Ni 6.149677782788228 5.422253026969951 0.13910622402619077 -1.5213104276789542 1.6260998507822189 1.651612907451659
Ni 7.763877784168824 8.963686846023014 11.437909642548783 0.48312776750711633 -0.4178461726904868 -0.9984251777682418
Ni 9.154912865501677 4.633421932557547 5.728018208548977 -0.6152343903680952 0.4198290074484705 0.6829847584401916
Ni 8.041695522452269 8.800905278241647 2.4879154232578373 0.5876569949704589 -0.22055719959490405 -0.91014506517391
P 8.325614966796813 1.5322524594442781 3.637096620162329 0.504955147794853 -0.009248000960829235 0.6614006045115126
P 1.8625412486626427 3.0884047764572573 1.5709131949545574 -1.2866237306612036 0.00646735289189854 -0.00016635037453519738
P 4.620946931144793 1.0665945148377383 8.210911945824481 1.2932407217570887 0.9788855650734175 0.13928205756349563
P 8.619266360719521 1.598574564197423 12.513249332542342 -0.9640713828787204 0.4343909644230454 -0.882780557118028
P 6.401133253935287 7.605269638485628 1.2197926018531107 -1.0626253665952343 0.055939234369781085 0.6282873668973116
P 1.715367012111745 3.0617799730066704 6.097585146264812 0.25975546706092034 0.01969670709797898 -0.1956493806096308
P 6.821969912624161 3.9318615301763065 5.870349102751672 0.8771673246963088 0.047489818050847246 1.0141060788386083
P 2.613395107279328 8.520398805981724 10.240604633953497 -1.0756366912532378 -0.06659517142173046 1.38679802358996
