# total energy = -340862.03338568524 ev
CRYSTAL
PRIMVEC
9.25909672633480 0.00000000000000 0.00000000000000
0.00000000000000 9.25909672633480 0.00000000000000
0.00000000000000 0.00000000000000 13.55162398283336
PRIMCOORD
 96 1
Ni 4.177945165471171 2.438475705696231 4.771621779205118 -2.359909662294078 -0.8102186265899014 0.2700241959767801
Ni 2.3080335514516666 8.605598909720143 0.4563105069805739 -0.048120766766626806 -0.45242005401061436 0.9924167667906327
Ni 1.782218709217526 3.8202847783218927 11.601937969042247 -0.16521986047517997 -0.49586475545781056 -0.4857068410882022
Ni 0.6930044994433436 6.279917519967076 10.049965217348825 0.43497280506844443 -1.0252037314136666 -0.26443975991046714
Ni 7.00928434395253 0.061246146910954063 11.370923506492424 0.14836653636326708 -0.4592208789825317 0.30823156028443693
Ni 6.461997656481794 3.4316527127265557 11.156835598611433 -1.0507661532638033 -1.1433225246359857 -0.5421281573007244
Ni 4.744685215098907 8.781697669769644 9.559247907048206 0.8288128446523209 0.6428493238718864 0.8846975716350828
Ni 8.043395817473145 4.384311912617881 6.8279449351734405 -0.2868222413707254 0.8727560830024904 -1.741359577289188
Ni 7.816436839275902 2.5978803144039557 2.0771653826296324 -1.730250868970536 3.2322615678796143 0.8395122333476962
Ni 7.066885184494511 8.079987767613302 5.241239459956296 -0.46251857589719697 3.5874990645999443 -1.264678079628048
Ni 8.686449342064233 1.1999511544316315 9.4561876794609 -0.1454457631720463 -0.7929307860437311 -0.5148348688024101
Ni 5.124789652637795 3.0873809793988016 1.1486872396679706 -0.8518231895045651 0.18635484268158228 1.4965877281212936
Ni 5.786935434614765 4.966635021983949 7.2785907267957795 -1.4123573601163033 -0.29138646370264015 1.8792902630311121
Ni 0.0868142165255864 7.64527317776504 5.2342331014868995 1.491214122514206 0.48410555803935335 -0.0691621608179583
Ni 8.898815983869552 4.84550751901494 1.4044225644847965 -1.8756259268056472 1.648250161627013 -0.13173998355017955
Ni 1.5175289119865942 1.6959054098231598 10.10158375551592 1.6659419224798213 1.6179435402236715 0.4742325219000155
Ni 7.744484398856075 6.856435175705137 12.115450249497231 -1.165093083543858 -0.2556666417035275 0.8320084687714833
Ni 2.96194799646644 7.187929355593261 10.734268017717847 0.27475142624912036 -0.0834703499105143 -0.8128555499921162
Ni 7.972017441048433 6.707493346263195 3.6568922766674663 0.027622646813275007 0.4535073735375222 -2.07805324956906
Ni 8.78457724884191 2.815385754875212 5.0518557479682595 -1.6007292332279142 -0.11625654320259979 0.1107394700391125
Ni 2.8068951632055454 4.41672801014842 4.208090932492001 -0.08920648106334314 -0.18003944198651572 -0.8229396737009957
Ni 5.94104384001273 7.394055366225891 7.046451283997469 -1.0102658791569117 -1.3999361036338147 0.8294216818809136
Ni 2.4174297789076244 1.569509480834478 1.3685241206871248 -0.29555319348582004 0.22395928329791753 2.9238011794138226
Ni 0.5928831091471519 3.2741739961314713 7.497910024309662 -0.07265166202845552 -1.3961324136170086 -0.08808856540881603
P 4.98947721353146 8.758707332675007 5.4361934445162765 -1.3755062527262247 -0.01572846647885033 -0.7695545732116359
P 2.176665487537564 5.791787201283146 5.797547285337345 -1.6295584987547806 0.18412055403442482 1.1523661228954927
P 7.976526621139085 4.683528881425898 3.5506876598424078 1.4324605586240813 -2.9854405494921745 1.3689609954085389
P 6.566708781009887 1.3320784642747558 9.708017517291612 -1.0203803418830943 0.12267375958285326 0.1020617397594565
P 8.435814853616893 8.446481333009976 2.4628178709083945 -0.5867866765503637 0.40600547130181686 -0.2965037303245474
P 6.89838814283192 6.328796291422005 0.563896581032584 -0.3271278829683076 1.041342288846742 -0.026659768679373443
P 7.8433159969826 6.49002494217872 6.4128050016488904 0.32664811511841163 -1.2808454334165296 0.25012719994253696
P 4.027244107657108 0.2332144239246446 11.323113234796143 -0.7319221075708428 1.0184448154232781 1.7016231779315145
Ni 4.574725236158446 7.350398725307158 1.253107628559829 -0.26915979109395577 -0.19566069346354045 -0.3746752937299676
Ni 0.35243825661308226 0.7640236229162751 6.314880794998514 0.29369351456926196 0.2261490918603847 -0.2029669973169666
Ni 2.547001578062823 4.018059083735287 1.0524352258807796 0.6405553856313871 -0.031690646235061556 -0.024947413973957035
Ni 5.942099377036004 8.53767417636281 2.8882715122419333 1.6566296439399597 1.3283581342855122 1.0656284150876163
Ni 2.4532902604088447 7.692207538913939 4.8937622273526005 1.293908694358391 1.3200352162421136 1.2667030804778765
Ni 6.3049911538181735 5.779074461520384 5.0499724477004175 2.0260285197623364 -0.4412964332936271 -0.3875017560706746
Ni 4.140445823854868 5.826434741117271 5.652639644325582 1.0763694556542043 0.34448205797603904 2.0959527555573003
Ni 0.4330109160563106 4.971116424784514 5.100641928456236 -1.9121394483506484 -0.3605069726493855 1.3114790991419865
Ni 2.616454062374895 1.9873910328905318 7.75101391384566 -0.815922361842898 -0.11851422888852492 0.2113117697372361
Ni 4.069289665750844 8.603747090381066 7.5033719654502695 -1.373093529519674 0.7920954346266293 -1.8273292965827885
Ni 4.135964421054301 1.912577531591832 9.54794532771215 -0.14834391065544775 0.5324032167034767 1.6985514809847264
Ni 8.92096374316491 2.2748119125086306 11.523705083333942 0.029567429244471664 -0.3557712577366131 0.78238720619993
Ni 9.114756636999289 7.562635739758742 7.561440390375368 1.4746186800493701 1.9317963033496277 2.376685853311152
Ni 7.788446589965757 0.04453532919512569 7.674894879912911 -2.2686231587732544 1.3362894733174469 -0.7461179394552505
Ni 7.297168178405397 3.0538537902648177 8.498073945706324 0.9164926046584926 0.7925854868891705 1.2057977603520718
Ni 3.3935515298250523 1.7983480556608844 13.036661853372356 0.24373980835895442 0.3920832047937699 -2.5448159454545918
Ni 2.8816068144405964 0.7588264919411564 5.789456686644918 0.41603791583715444 -1.1604206177688532 -0.8852591005655076
Ni 6.535959320884518 4.868146010435153 2.1291089150907347 -1.3109566509796133 0.038680190179017256 -1.0349700667718111
Ni 3.5898906752506616 0.2329135032820446 3.435688752976074 1.1699180157363271 1.1902947796204661 0.008784431060849387
Ni 1.3096251547884508 6.277871259597395 3.497565444371983 -0.6828209791688176 -0.02458334576631895 0.14200742691445864
Ni 7.352889422318216 3.211786202597976 13.27007534787595 0.9167479152024082 1.451500605974668 1.3180050731859625
Ni 2.2227572708871834 4.4788935853612255 8.989835682114181 0.638811663467403 -1.000233177511258 0.7584150116550487
Ni 6.723854170123938 7.676217078921011 9.195779288541912 0.9414058229604045 1.2900530680577265 2.1090576683703746
Ni 0.863795945267051 5.624780874188511 7.492191606190593 -0.885233646644211 -1.8709660594361328 -0.6006912024465977
P 4.174047085762415 3.450041278763588 7.8766376341699464 0.37101198594576745 0.7407911279256985 0.3706337766707423
P 8.776799607617786 7.8599916301309865 10.624445871813903 -0.386134957630135 2.3820142075026007 -1.8476129865324888
P 3.71511069895903 7.487396320012054 12.734231052101372 -0.4924151063463133 1.4023269724634946 1.8137191619985218
P 6.731937361539008 5.509995852455841 10.661347075783684 -0.18164098214568072 -0.19968549835221738 -0.2616210595147494
P 4.542568393335378 6.650494347006414 8.860797206928638 0.06637019989511794 0.021377180124195445 -0.5081111769253314
P 1.913271963843986 8.993258770162464 7.454382084834994 -0.8912520849241489 0.14318267816948244 0.35053880569308016
P 4.938737363640757 0.8598997173776335 1.4495226985783407 -0.6323836484538722 0.11345378364648201 1.12526798112712
P 2.721507773480718 7.696846346358326 2.709904273502063 1.315096898400232 -1.1352842277125414 -1.694394007172927
Ni 1.650508058725694 6.274213916402719 1.3476494871873825 3.2129456411598216 0.0501172283713653 -0.014943765794025876
Ni 4.161038054905401 5.075059044286891 2.3210407304893415 0.31321718642448637 0.050693155479493344 0.09699563809045876
Ni 5.79262051998573 1.843328747407058 3.4118789858238947 0.8104551680807396 -0.2051141255669564 -1.2805286735070591
Ni 8.578090133438158 4.680065979261825 11.494351894990237 1.0932975988681106 -0.2344370429007898 -0.0473041844026024
Ni 6.101735463161113 3.26364640318882 5.74292046665392 2.2960576008351232 -1.5883552850435936 1.1489576114345759
Ni 1.1983122943165487 9.075146221336437 3.2244600541546173 -1.1888235943915786 1.2869350912540352 0.25939576972865647
Ni 3.227304448659439 5.543337859655917 12.172787205783393 -1.5715598107528095 -0.9129393400895955 1.6860389503400126
Ni 0.6014042558359135 3.324765700475047 0.113607264633018 -0.4346789279771094 -1.539129458138246 -0.4664605912640805
Ni 9.033656209044423 7.146587488848374 0.5768315391160348 -1.7252847832145124 1.8028696208785273 0.002190065672783325
Ni 1.7583765352269132 2.8078858865519516 5.5486442479720415 0.6654997142815505 -0.4044617809637809 -0.42365506606278003
Ni 6.526940960703215 8.838539264382604 0.6816685873591856 1.5869113535082153 -0.9316122339087504 -1.3115847714819153
Ni 2.325662871559677 7.014710174616024 8.40693943466267 1.7125501092566635 -0.9357077441343628 -1.1810511495350111
Ni 4.6904546857540454 6.901045503583496 3.743500941246415 -0.76945867106372 0.9110269535582312 -0.4192032009390135
Ni 0.9970010139655179 8.536174202698158 12.045225556520762 0.08365624066907529 0.15111221742920428 -0.46632278013463563
Ni 4.4741899642399705 4.757592395892272 10.337015733099108 0.15652310403213046 0.059467816348329844 -2.150969735223128
Ni 5.253342951156502 6.976534918940958 11.33037699615367 1.3121869238422885 0.19670301868512574 -0.12323091763790389
Ni 5.626993798298709 1.7105533007952567 7.816129437265615 -0.3999091285960919 -1.2796354722688283 -2.2048682850137964
Ni 1.8863279924604195 8.746763097937963 9.690387271273933 -1.6252202763907428 2.4135973816255203 -0.3552218129910463
Ni 5.725242073333424 1.6656281636292554 13.10436622022834 -0.0041759857545605504 -1.71844179215075 -2.2495314322491256
Ni 8.050516062831894 0.9655756397813858 3.7956065078996866 0.17177540220551063 -1.6851457491017818 -0.44574906974834194
Ni 7.630745655049982 5.742917688924911 8.737991955638426 1.6625935748328788 -1.7475183978017323 -0.37250271155868103
Ni 5.130030301367383 5.091882822982402 -0.04493717399170534 0.7562468003591363 0.7422610276030055 0.15200079068174469
Ni 0.6855888889000109 3.8243495217711656 3.0604712666730083 1.240483227549399 -1.1637810496006538 -0.3353160752060548
Ni 9.058303924447534 1.086906842877693 1.3906672504341346 2.149909155169097 -2.6192601806070956 0.3695176607884281
P 0.9133941485352123 5.5021904339416325 13.15675696705983 -0.12810367234917291 -1.5575064179835367 -2.5859029453028883
P 7.341259996868813 1.2579779134216007 5.809784107529963 -0.26205634727995514 0.1855950816974223 0.9828746316281525
P 0.035622522716149414 3.532067616387991 9.503875731080804 0.4763459686985926 0.07995333789619134 1.5318254682776649
P 1.9761319713089454 2.126897842799877 3.4231537878698632 0.9753909216565976 -0.9327843998399806 1.0071522732285945
P 5.040772609223885 4.29967450972538 4.317126981086508 -1.763223467241815 0.10406282934988528 -2.7245301428912043
P 1.1316653163031773 1.2336635254995232 13.164413314117242 0.7373808166925688 -0.5536947790924013 -1.2919567128383427
P 7.890898494900177 1.1085731291448906 13.202195058182754 -1.4953844518418118 0.38315247796304336 -0.9677262060224883
P 4.202129926039514 3.6308158826442574 12.119840913150181 0.38041913819228035 -1.8213507104018503 0.6043005170644109
