# total energy = -340873.02883528074 ev
CRYSTAL
PRIMVEC
9.18298832416136 0.00000000000000 0.00000000000000

0.00000000000000 9.18298832416136 0.00000000000000

0.00000000000000 0.00000000000000 13.44023164309776

PRIMCOORD
 96 1
Ni 2.166726092350746 9.097118188858547 13.20028306585275 0.22253514925688125 -0.5296073991258944 -0.28569301286228865
Ni 5.887480113849296 2.9487952919907174 2.906987901100083 2.129923713186106 -1.5883609414705484 -2.6249302344086796
Ni 7.3295674154668795 4.202548686305816 9.714088278224496 0.8305385690941761 -0.6859687807691799 1.348534095012755
Ni 3.841060351381522 5.240694698030096 8.034436150661913 -1.0410556108442586 -0.9859208746536439 0.9262093177256243
Ni 2.238426865095288 2.19243845962594 0.5845973006676484 -0.1680907542650718 0.4363174920217969 0.9460757176322481
Ni 1.0317822008236708 1.4536303179264831 10.425574274797567 -0.29189219969446506 0.5812366932664119 -2.079964350548843
Ni 8.982101260243615 4.452876947706457 5.382490138863312 -2.37126802472969 -0.2220065304469209 0.20633308557572208
Ni 6.250217335184099 0.09395758151771616 1.8171324821877235 -0.014297133348962474 -0.31087902520961297 0.16155655269097982
Ni 6.619263269489638 8.170251629505982 10.460195977333616 0.47507738639881403 2.054812533873564 1.5905870025875897
Ni 9.013598910155729 8.244468541048168 9.748912006503422 -0.06455680083546302 0.34912598450595356 0.7914806838607659
Ni 5.183062263380412 1.4193685885322869 4.784870442469609 0.5320157514570709 -0.34109051579598676 0.05118449329361507
Ni 5.770993907104354 2.3873933015017883 9.43609075473925 -0.7681340387150255 -0.1674045268313246 0.3336559138948124
Ni 1.2835705573660108 2.643359917726347 6.621411170455947 0.5417085532648025 1.1817430333957133 -0.07915218215113465
Ni 1.3885688457319292 4.792114901949395 0.21607846989125137 0.006347796594898744 -1.2401186451211288 -0.6559200410129155
Ni 9.015049822309114 3.082811823424355 0.7324379027070279 -0.801610058985284 0.8915493044495936 -0.49205977988942345
Ni 7.577526465882878 6.378549596852257 8.916289537903925 -1.432917186545526 1.5594501719734692 -1.3401646400021372
Ni 8.753389753330763 4.354260836217774 7.7335766594736945 1.537317858850804 1.2149981959044172 0.8763990790717164
Ni 5.59149403455856 5.49352991524007 0.10494502703370542 1.2443668788745215 -0.01304166367530657 -1.4270859245757292
Ni 3.879077922995559 8.853870011446897 1.5437448188353888 -0.9920822662693495 -0.02205749402067169 0.3125808383920681
Ni 0.9521197772121314 6.804447411800912 8.183232701784629 1.1241487799210124 -0.7698499929648678 -1.195900812953334
Ni 0.33484848582953003 0.6588289049911342 5.366455722970735 -0.9518681559443091 0.7840090580740691 -0.24306335111722008
Ni 0.38826501054491486 1.4955690255499876 12.597650376139214 -0.42942667843923465 -0.690687526401088 0.42337892958325796
Ni 4.537397172135345 0.1751572373727797 9.361658961270553 0.4679086365645167 0.004045373713967226 -1.1356945757770829
Ni 6.387576474363512 3.954488623018379 7.696010890884636 -2.470206902589449 0.24024850737624429 -1.304477728123489
P 5.838323577412113 7.605341737481651 8.662336751016312 -1.9508322369351565 0.18457383952175954 -2.3213878520697957
P 2.522824013135562 0.37547586272199945 8.316439293649099 -1.1437264449426239 0.4548736577574295 0.9463559678768282
P 7.743233489983194 1.7104234030991734 2.2237671425531023 -1.7164095922120697 -0.3589018329457948 -1.1519534608381063
P 1.5815309791439494 9.04055098085312 1.9616148654011962 -0.16174450033206983 0.2651758667455433 -0.14394552447743597
P 1.5297389250610582 5.325315935330424 6.418234799143856 0.44172580752156176 0.600375728088708 2.482073315009732
P 5.4313059864341 0.9813308630344146 11.231262120377467 2.7250250802497518 2.141063274742693 0.034883185030430246
P 1.691322787409029 5.593514291987326 2.1400614491875385 -0.2413941909449133 0.525761800127559 1.843139781252484
P 6.546488087112525 8.961081399996145 4.089015728602195 -0.032377387889441014 -0.3806554225728025 0.2092530874359945
Ni 7.387319228964628 4.732379562976131 1.6001935662915843 0.6373232518473346 -0.8540304815685293 -3.4343297075313948
Ni 1.5502720869279634 7.603321480052886 3.6929056911418523 1.2184601863110884 -0.038711557637584944 -0.9103381550213224
Ni 2.5221169230354934 6.0588071267969035 10.111234156766496 -1.4358855251452303 -0.8800605870837038 -0.24401748750037333
Ni 4.260695368301005 8.57393579572653 11.683324105626294 0.9438182890566391 -1.3700609133409372 2.599485826193646
Ni 7.713710182558282 2.203705986285463 4.3832496937228935 0.7557341223887759 -0.5840103993568071 -0.3504135929691255
Ni 7.10454746985568 0.2757596292334711 6.254613231689326 0.8429513409362321 -0.1091718684416765 -1.5727579448259688
Ni 4.569675376054027 6.816725067174818 10.359313504329391 1.1698483388406564 -1.1465513159859286 -0.8700962767821402
Ni 3.601540467224775 2.3938489422855245 8.193017175831672 -0.08913937527083358 -0.032394614280621625 -0.18748150008685777
Ni 3.313231366163346 1.3139203337390524 11.150298467322035 -1.1135514640211404 1.997787522638772 -0.10367459277253112
Ni 2.337942909438602 3.561438357263784 2.7297240862084 -1.498630469582935 -0.2486393025431008 0.400525164913536
Ni 3.4388179143260453 7.613790086729216 7.979949807808112 0.14580134673925213 -0.11856590806206677 0.3677623686602182
Ni -0.09534145785642037 4.3556566504412855 2.882230564609396 1.5875718699103496 -0.5150986639867581 0.9913045075630604
Ni 5.750424013284198 5.450737189703497 2.7548983303684778 -2.2169920648605235 -0.08352717129037872 0.33387214367067664
Ni 8.863043816771153 3.6625338755968606 11.613301064846459 0.8951370218008519 0.7319005103042879 0.2147364791480689
Ni 3.8469741958548167 1.8817687820234055 2.5835887650986646 1.1027206919542234 -0.7203164050111143 -1.0082704459934377
Ni 1.7160709409114037 8.240675966875076 6.206968215128392 -0.3553701656434525 -1.7211656188398163 0.5478902565954822
Ni 8.65966817461268 -0.11911805119532501 0.8442885369517854 0.4605244282853036 1.3838980763343456 0.1733250060808176
Ni 0.7465429727551344 6.306545785493401 11.848357098384467 -0.9552715251989031 0.5126041796996784 -1.0819297233508012
Ni 0.5431801867802979 1.8329520161537867 2.4864290755563556 2.3639699484063805 -1.0232661480713217 0.7852424162605379
Ni 5.059257214950351 8.397861177821326 6.31518881409319 0.2588818062067154 -0.0793720114714246 0.6191316685399724
Ni 7.342313403244726 5.916397344045578 6.637955242199873 -0.41652308300368907 0.8640513561396409 -0.8424715730863361
Ni 3.469461546325089 2.966472544492414 5.542966532820787 0.17093053770671207 1.2874598534092536 -0.4101727153056291
Ni 7.025674783239021 1.821151876172135 13.48418157762765 1.1289271751462622 -2.559609301713682 0.2696750401674775
Ni 5.936627467298168 6.822032834419482 4.78677866744096 0.746048776780212 -0.136409621111707 -0.1240133043298832
P 4.296711048462902 3.9180780743590415 3.683147847760916 -1.4434108869879982 0.8972275857812936 0.8355357651984513
P 2.7469532088804423 7.195183564500739 12.100146373225638 -0.6159874664840359 -1.6513719950854462 0.7264060628486199
P 0.04271926163007277 5.662147946635469 9.724558721498488 2.3778971000104336 -1.2975154378730427 2.8747159918513976
P 8.61367058615502 7.908564011562691 7.070058920650163 -0.5747454291151134 0.8552993209786238 0.5496064679556405
P 8.2173879085144 5.4210761374538965 12.999526411961021 0.46440576561758085 -0.5258710720119136 1.3575782074928942
P 7.648364037726038 5.794428893278031 3.6922867577295855 0.6356507492409181 -1.0994322510109389 2.517475862878742
P 3.545781362190853 8.358089655439588 4.644218283681308 -0.5208882740853416 1.8083352719787886 -0.19459702808571647
P 5.294718218272942 4.726557548385963 10.401959302052964 0.7822334542308851 0.48056412054499825 -0.0932215157600072
Ni 2.3885044430876095 1.0708374501170284 4.125036000258248 -0.7164312110240951 -0.45998475373174974 -0.2710559796754041
Ni 2.1490396568607375 8.386529370243615 10.289693596736477 0.16148739001594126 0.6328611023109231 -0.6072629421268445
Ni 7.865009097996175 2.5001512149918277 6.790663746343745 0.01135759110466431 -1.0596248892060138 -0.8268541782640535
Ni 6.354701376204513 3.280907247303102 11.87949844835005 -1.0468807021664681 1.0033619529482267 -1.7752624006842201
Ni 7.673644804550542 1.4299933060099295 10.838336743263921 -0.3016217682774031 0.03943018097116435 0.19456488929620042
Ni 6.973744984331441 5.9993289114963915 11.352211259442319 -0.35724835650277187 -1.1400968186098366 -0.21699673593715532
Ni 0.9070046739313092 7.153364235725299 0.7290760106857962 -0.9299469303911856 -0.15437957532656638 0.6519330313407095
Ni 0.26634247471893113 0.869008223190391 7.748871844807111 1.7407707946652538 -1.4374595545005695 0.694104779612753
Ni 6.417412003391051 4.123657633712532 4.8395321804001785 -0.49890945582140533 1.2011962570243184 1.5090858605883042
Ni 1.4446860873100404 4.073839922116843 9.2702386394236 -0.1208783582453273 -1.138572154435194 -0.26748728848753933
Ni 3.9336248735722212 4.273918871471105 1.2271365026911154 0.3487405761420769 -1.3805368731715966 0.3293380032457489
Ni 3.4843839023330148 3.7475499813946276 10.453167318079174 -0.5048204219892015 -1.444506434045022 -1.4159252799732194
Ni 4.4230506016672315 1.4008832330590846 13.57638153518234 1.0885040341342094 0.9433079250791238 -1.0030194820071434
Ni 7.177267554302917 7.805833921309978 12.885539814634758 -1.125965521414777 -1.18442829353736 1.465875386639101
Ni 3.2448181032347043 0.7318942697989237 6.312137307076923 0.5933072512777008 1.084756908386951 0.6742910873209355
Ni 4.223476716670161 7.045960004421486 3.1074626372506167 -1.2737602444349738 0.6128512348478994 -0.1501143722923092
Ni 8.617848845837239 8.886341058120141 3.400607499957444 -0.1974769207366728 0.7193674108342837 -0.5360287292712059
Ni 7.745134368563895 7.102012965081411 2.156283198041692 -0.3641227150251019 0.8523610642859063 -2.01645758824445
Ni 7.2994655797782775 0.5792169878153139 8.52931841041225 -1.4685526763609482 -0.2983868062798732 0.8087294436388847
Ni 8.966545278042123 7.051947312801282 5.1459152390584055 -0.4074542879332015 -0.41904584942554285 -0.511317599677771
Ni 3.463162016342667 4.989549150669637 12.340162138751264 -0.07333506124872533 0.9973167751954116 -0.16433745787022666
Ni 3.1955330049611446 6.493814466151628 0.908172750044668 0.9781957380952443 0.7459713865750571 -1.0055260504790813
Ni 3.6030740262729735 6.546286061369649 5.607318160018779 -1.5131710864012715 -1.748000222534157 1.1154592225668145
Ni 1.7173932912284136 5.134484255206919 4.4023209238504375 1.8292943907289594 0.7892921608498793 -1.4715228147328656
P 5.197516286984396 5.355491234925527 6.464751226441177 1.3688856620859136 -0.151603555243326 -0.6613918627607641
P 2.1262474798689404 2.9244420069857835 12.032663347013058 -0.8555271207187137 0.7694309031495781 -0.43802521874152306
P 0.7303496911647496 2.794833309942179 4.444482778089937 0.9610253969635448 -0.8261152432154999 0.3651760959902807
P 5.274488095020352 7.389532329147958 0.758292606301067 0.3446646063004903 1.883159259068215 1.4446499016014216
P -0.5754051293667664 8.846615450679966 11.831261129042955 0.9592263960815931 0.6640935779626433 -0.3509069876657763
P 5.584211924826692 1.7578535377335944 7.091200914642191 -0.29226269566000634 0.2863383597557714 0.39365054928088977
P 5.802032407600839 3.3805243045178544 0.4698733093798877 -1.6362212554869366 0.5426724598399687 1.7848924675748163
P 8.559151184543294 2.459507308720396 8.98405540015653 0.6119361792327978 -0.11181162005736872 0.5189699740167062
