# total energy = -340859.39790628606 ev
CRYSTAL
PRIMVEC
9.38182730210634 0.00000000000000 0.00000000000000
0.00000000000000 9.38182730210634 0.00000000000000
0.00000000000000 0.00000000000000 13.73125258627239
PRIMCOORD
 96 1
Ni 8.020402090535457 8.190128726008775 8.378330055560586 0.9699635799934392 -2.4333126006662606 -2.301283368010437
Ni 7.771605415607766 -0.01730853296029635 10.15390370719857 1.1077757378796276 0.997849764880746 2.723475476374445
Ni 8.971616166263946 7.506287343019994 11.860438369000669 -0.5403402121623662 0.7208023435085974 -3.3357942357576422
Ni 4.367653351654943 -0.0056075181041623555 13.473791785090281 2.1930532946567394 0.8513156537405274 -0.640491365162671
Ni 6.9686335911154655 5.185861263483966 1.1005033388777161 1.7980670572835613 2.2016220101623567 -1.1365139863545846
Ni 6.281133295527349 8.757682361128904 1.5509445635202683 0.8011917405009427 0.04079620808075554 0.09626930144739548
Ni 6.003637611262811 7.076946785882999 13.662321478593316 -0.7528529441862389 -1.6248631501616402 -1.0166111046486492
Ni 4.124232463700122 5.650993491304213 10.350096477140418 0.3154923556119083 -0.32962956634423873 1.2932003554374567
Ni 0.6453899643006269 2.291004669506492 1.0321839351863649 -1.8307547773245698 -0.18207858390373155 -0.27778352820722485
Ni 6.195777431863858 3.6603104915858102 2.433425496978864 2.0729035870473207 -0.8034699950121582 0.28608921985944274
Ni 0.8390862300304671 6.7496335993044205 9.759995496763917 -0.5958369596780899 0.9833510570439388 0.2873305484657116
Ni 6.264077133718136 9.211622069126053 11.907879454490574 -1.1545268779922375 -1.9945577028475652 -1.3451042433955995
Ni 3.8591207913102608 8.931058527374379 7.272771788199479 0.2571676517290862 0.25457803662503903 0.06293109230658195
Ni 8.914940548282944 0.5926640955614727 5.4487119155239805 1.8252842411283017 0.5677515142957835 0.3592707862494393
Ni 7.846622505721338 3.023472062757735 10.099253625705252 -1.946192681280616 -1.1033629535239127 0.8077210569790283
Ni 2.727953888484671 4.914520057848056 8.598015858938327 -0.45297541229345206 -0.06810543741866981 -0.4533595351057483
Ni 2.1001407774016254 1.1913513241710834 12.894812960833045 -0.6810767427842012 0.12231611913311836 -1.9830605008412425
Ni 2.032150675844214 5.5159514709071695 3.8172881621072334 -0.17491549049638908 0.9175650117870648 2.1752309217633377
Ni 8.564801376180814 8.113732507300067 3.8611453896152272 0.1474028868984171 -1.43759633718875 1.036121920988067
Ni 1.227443213324024 4.392862321281652 2.1762658613048944 -1.4198192157109872 -1.5335936159216814 -1.771617090622149
Ni 3.2613858181591953 6.268148846713294 6.728423164420883 -0.08490631102609249 0.5088449697675623 -0.3528707962603665
Ni 1.8836551152742265 8.622293213126282 11.367155968733476 2.1426738137629227 1.027611569524211 0.5002047775940611
Ni 9.184996443595498 0.18763841992114427 12.765601746026995 -0.4062618102869971 1.0649311319102757 1.4245870694132754
Ni 1.987737105984578 6.804263978960665 1.6073527994267032 0.40742523446747897 -0.10068439979595563 2.1154442886230087
P 5.3175258260970075 5.230706397393781 12.226060370494297 -0.1696593843037723 -0.2124559106440083 0.22782005180490442
P 4.216324479277263 8.201508882375428 11.006615164839335 -0.3816738365349879 0.2927324362075733 0.7344495019783868
P 1.685426488834798 3.1014538102594873 11.749283418780983 -0.29766304073997124 -1.0451043269923355 0.5640221291603383
P 7.15730213566073 8.896552167014484 5.8680645794475055 -0.6842373999003699 -0.7757396189764253 0.4270188403286904
P 3.414628583281143 4.7545786681211695 1.72073218087024 -1.5158224079811893 0.25817346728578117 0.709322625003772
P 3.850986747147121 6.424356269223422 4.267467633771525 1.9653975363438412 -1.0731339794360422 0.21494216740097175
P 0.12509353085771988 5.9508554515605905 5.432069492293307 -0.5946362545017695 -0.8570651546297949 0.3114300126170766
P 5.4017464886719875 1.7112171317465301 1.4738306350324606 1.2293310675873215 1.610498396799536 -3.4075570674232405
Ni 5.230481233541514 6.0980750836343995 1.9009411318492961 -3.2020817018621237 -0.37607011719496525 0.18543824440458384
Ni 7.754708744860575 1.3161577711171633 1.0020795281382868 -0.730635013328303 0.5816812370029982 -0.37284955337513853
Ni 8.887733249467367 4.798607583066517 11.651571688724347 0.6977652591834757 0.30815519852054674 -1.1428658967145415
Ni 1.5888311962123192 8.31987001405037 13.793592004464891 -1.8785649548293133 -1.1354660047060445 -1.4788748842225627
Ni 4.9278516342676895 2.172118155509595 7.573266083607639 -0.898754306838465 -0.429251586313951 -0.5201490819264719
Ni 0.8065781988594406 6.225977533549148 7.5143866744225765 0.6410377245844444 -0.34384699549520137 -1.319166440483915
Ni 4.009567771933228 8.22954178198265 2.0582875081788066 -0.9796119017164806 -0.8891869748650042 0.24757023784863816
Ni 3.1250866329203286 7.383291588719226 9.21084150110486 0.7675632538132199 0.44971422504367703 -0.05197150797128469
Ni 4.337687795649096 3.204522563634638 9.659812593428653 -0.17378497643637167 -0.12666925389549155 0.16092380420298738
Ni 7.100166808148018 3.976027739772645 12.868270833564372 0.31927599102405657 0.22022295618393686 -0.0933528991315489
Ni 5.2399193516823654 7.331316266154295 6.055578221067186 0.7733199537913391 1.043325380715042 -0.0281522940644999
Ni 1.7289018759766557 9.07971357900639 3.5705517364277837 -0.8350282294344136 -1.5092002746789814 0.0623947601871377
Ni 6.398696971892179 4.906742523117672 10.09444825382479 -0.5241857138896908 0.2843766080437102 0.49620388396478415
Ni 1.3085866365846903 7.690143010223054 5.487708418371164 0.6964920488980069 0.372490627373823 -0.05651027638190268
Ni 1.6361156051883576 8.415330105584335 7.833638056907284 -1.881222704167134 -0.25973104158088817 0.07671169103044206
Ni 1.7312848600798132 4.827785065589429 10.662757126032734 1.1132275050228184 0.7051111580255857 0.9691989339132727
Ni 6.817520500762876 5.00392887085235 4.311997538288167 0.19661405851574523 -1.034739953038876 -1.5016031790580138
Ni 6.173495592316617 7.086469340468451 3.5298514937651144 -0.20945980413016183 2.0454025534135742 1.7575467285720119
Ni 6.95726281657599 0.8558271624465075 8.255668294307346 -2.25787723311066 1.2704437784672313 -0.9769456677382271
Ni 4.874281401082534 4.028809899474866 0.43492743522136607 0.7480195273533377 -0.6946945906779519 -0.9794272965095003
Ni 5.727014436925808 7.909715293491945 9.505129717834915 0.3415461152761667 -0.5099538865610249 -0.65515333805022
Ni 4.398406981143724 4.3247502559709305 5.227377725111102 0.282454708430649 0.49612083733267465 0.184446827025592
Ni 5.02863122181146 0.6131952861573383 3.0306106950573115 -1.5988788102827365 -0.9630956492290123 3.5737377491497937
Ni 6.023086139002361 1.8773036182748657 12.5891004931486 -1.6807051968319247 1.4131757422525404 1.1548847755522884
P 1.290939419663276 3.1845580354003102 4.2840406314810835 -0.3101089798128079 0.3554362429946975 -0.23815305829979633
P 0.051650711344579936 6.4837244716044475 2.524779162757114 -0.2645598304280992 0.4197845273637803 -0.39424550255241136
P 2.071197840558157 0.361074629860557 6.223772804162369 -0.131600886869154 -0.903332927348083 -1.0351451588970948
P 6.45528815342858 2.999379530565182 4.775770339350351 -1.096881202454311 -1.4656015641524243 -0.10345193523876377
P 5.951427743018435 1.6108128172898701 10.234026387662293 -0.26471949593441507 0.14870309376707938 -0.5973073735760293
P 8.079610801854463 2.0579319369287687 12.307761074289324 0.5254051881190887 0.5259042392426942 0.17624783615456746
P 5.794413483371018 5.9076615192340665 7.470171999299108 -1.0182203581172982 1.581847822942379 1.3352162948579263
P 7.519750265020115 6.774298422954819 10.28300515462664 0.41953487324681943 0.5647482086930854 -0.05258445896493524
Ni 8.884402700819253 6.332723963177991 13.561135657932747 0.045236760350612415 -1.5355399410147748 3.6404118534385757
Ni 3.716076072330566 7.227365621024433 13.080898688356266 -0.42600916811725337 -1.1931330204002097 -1.1338184418002926
Ni 3.727728301685376 3.456330805086399 12.104058151691657 0.30360383170443844 0.5169395738502387 0.06350419120123257
Ni 2.544445348887188 0.7945994819188441 9.109545913066311 -0.08094372683391865 1.1405272212790358 0.4893781192922023
Ni 7.291546700747663 6.375805313578382 5.835809857610279 2.296837416423941 1.552607952240655 1.685894454342348
Ni 1.699940175478832 4.315921956596634 6.124633160009275 0.507776676404048 1.8871267283563953 -0.4227166134089107
Ni 8.473384852160471 3.4044399189660677 5.5601548878380225 0.8805560386628836 0.03444635460332777 0.37951205299697865
Ni 8.329824132686 5.573368253235216 8.702607282864433 -0.5085850312379563 -1.2588419325622449 -0.3768651022924348
Ni 9.217091674370701 1.010141332232158 7.920008096088694 -0.027509775384494558 -0.7322033862566873 1.5299071682090297
Ni 3.0808982269129594 2.0221308844183397 5.203334916602592 0.632011352716118 0.2500724354452016 -0.28545030072386324
Ni 7.222824816670384 0.7395356618469859 3.8237419210228323 -0.118448408647596 0.5773802956347992 -0.1382829268750199
Ni 8.989798147334493 8.676923592782527 1.662511375953057 0.060641524941456845 -1.104679358342491 -1.4865905076992656
Ni 6.415011969354347 4.05942280155598 7.073174353174811 0.8891147268661719 -1.9322639870146656 -0.7578905066101463
Ni 0.40725292141233466 1.5066839174436297 11.017791735556232 0.16217798832506264 0.4640046735244202 -1.3516806110615367
Ni 1.228278195942847 2.263168788270003 6.774478554036632 -1.3957961133235124 -0.6864575474801403 -0.6452502200038951
Ni 2.3916622932969522 1.6452722685138763 2.8407759893938476 -0.26110683888249225 0.6167222877675314 0.2782180446414821
Ni 2.7786532825534236 2.535645194994425 0.768719711648923 3.2822795516689536 2.519720178828228 0.1307079427412394
Ni 3.8016758635006807 8.379285125567284 4.693630566043405 -1.3248341802926538 2.5601605462314616 -0.37720140258593104
Ni 8.406895842951506 2.857226085167377 3.09120697861591 0.47844373176788574 0.018170243151123547 1.1942982443529044
Ni 3.992577282914259 1.1679061380537978 11.29851383018721 0.3561522952251157 -0.7265988955857164 -0.8698674486007859
Ni 4.326307639282443 2.9681099005816227 3.069759183504775 -2.371479112299232 -0.010335577598053168 0.75259917630422
Ni 0.4900456698908556 3.32999512031034 9.348223349200044 1.9943610134557268 0.31888209801974754 -1.4078779841887108
Ni 2.0917721875590405 5.336139371217733 13.676121208189121 -0.18263702751036287 -1.7239843192355342 -1.512786706478659
Ni 5.286875396707182 0.7058520877305828 5.61830626723409 0.900697546607765 0.34455559152645177 -0.07598149773263689
P 7.4838647760650865 8.447369045396472 13.433421782744272 1.9925913231498134 0.15989330605594398 1.3475894717112984
P 2.786093071505407 0.24798983779040243 0.934431863272865 -0.40716349616566005 1.5938638735666486 3.4118500383716404
P 8.297184755934483 3.247022240750006 7.831771073298904 0.6231153357780688 -0.7455193866393032 0.09634772009381472
P 0.5657251170031796 8.972010203005413 9.88945439180746 -1.2862462927171265 0.7814338411477252 -2.9936099726768446
P 8.465663608393154 3.8460237605700724 1.2187603322709837 1.2044335330146934 -0.4810616290067069 -0.9943972875557713
P 1.665311851365626 6.630315521257345 11.939474633877204 -0.3626996094253302 -1.4383517272975357 0.9071422737918442
P 2.8389409039978726 2.9230020755108304 7.858149018591965 1.5796302464657697 0.13894678571126393 0.8466992380144385
P 0.14244615840575184 1.0350313197348227 2.7399616890895184 -0.5705547880725336 -0.8982729963266723 0.9587597408578198
