# total energy = -340889.3709672415 ev
CRYSTAL
PRIMVEC
9.06853403339614 0.00000000000000 0.00000000000000

0.00000000000000 9.06853403339614 0.00000000000000

0.00000000000000 0.00000000000000 13.27271621934113

PRIMCOORD
 96 1
Ni 6.49570033468855 2.0166696954143917 11.453677444032477 -0.9870241350201516 0.15908803654582923 0.4946946464091094
Ni 4.4893778367526656 0.2042460606570284 5.983897658497504 0.7514023277826415 0.8055430754911029 -0.2810868815488449
Ni 2.7215577872696546 1.6058197552182913 4.723959051034018 -0.38900328031686554 -0.2051838024626273 0.6663746606873362
Ni 3.2921952993950185 4.038191056605296 4.817306007427542 0.6613543246546094 0.3840351376783128 0.21975321563636996
Ni 5.118842929985019 4.394593517694512 2.601505811476739 -1.2529687616109197 0.894441281285408 1.433275598326209
Ni 7.464963402960035 6.4821791502534465 2.6307318833730857 -0.5388710838160075 -0.38453290325033773 -0.1687780101400835
Ni 4.99671698042932 4.667846589055045 11.039382367708347 -0.6251534492540202 0.9268099274241007 1.5864891783691322
Ni 5.52002581276474 7.86956512311872 12.43845949481489 -0.09508556555193946 0.14709589718095958 -0.19732599698110534
Ni 1.6047859423238566 6.5002618073718885 0.6292710266012919 1.7792100724780584 0.6239157201921771 -1.2825755287337588
Ni 2.6069949952048197 1.5136108998620623 0.4697210502670649 0.17540734253114307 -0.07547601885112808 -0.8301757864381185
Ni 0.6135942515959503 9.218164975374375 4.718384623084817 -0.056288904399715955 -0.9252415544957161 0.6631556395294063
Ni 8.791535785736906 2.3000251138310643 1.336456178159715 -0.700093135985704 0.7650433156048436 -0.3283417007707507
Ni 6.869623203778183 0.876487429530149 5.016994222814896 -0.6858186283445608 -2.0680755695310573 -2.167585489402938
Ni 0.7142205203610749 7.622692417634592 2.6517563729735856 0.4685858651371994 -0.7629854046345504 0.2922338993045999
Ni 7.8437742119628275 4.177601632273206 3.8767874718884165 -0.08369994942281714 -1.0767070414992812 -0.6467080354963443
Ni 7.543324606651339 3.7936943070715343 12.909429282236024 1.133491654588493 -0.6074056383522959 -0.4363781700564033
Ni 8.009093589730732 9.036531304649563 6.898746801238502 -0.37781641046211056 -0.6369589265293804 0.22019364560789817
Ni 6.660031242232829 1.1132079110202475 0.386786584798013 1.1585681379411468 -1.1353965849206897 -0.039961370884286015
Ni 1.861298499621879 6.407826238661618 9.22452473838198 1.3006652963559342 1.076728638765836 0.36518200952755175
Ni 0.1803631690887589 5.01319450700114 1.5841251009432413 -2.0001624506288525 -1.1716087731751887 0.8904792113138663
Ni 6.350912118262748 1.8486660315346222 7.00848513312931 1.1820639070702417 1.3594720820814974 1.2404485176567217
Ni 3.4716978645918313 4.43417766931036 0.5602404377089679 -0.6894158587775159 0.9869683420815517 -0.4753200985372395
Ni 6.136078543971928 5.495631455869749 4.6598916708883955 -1.5243278743490394 1.2795089739932932 1.0422349758643406
Ni 5.418766560315128 2.9169937669885853 9.530633109010374 0.061107665944597996 -0.39062744618384987 -1.1453914913498726
P 0.11271371794926283 5.3956780723394235 12.682120125498942 1.0225925190430647 -0.48776603761007614 -1.0414263639201162
P 3.899233907645472 6.16489834553783 12.473805013563558 0.1431564529172373 -0.547288104235109 0.572231147333692
P 2.3654908619444215 8.540137881706087 1.159956204623843 0.8170755016107347 -0.6830750041611526 1.506572350137831
P 6.325275372187606 7.800562646682297 5.960630520398815 0.20791020025485485 0.3798938618164296 -0.4526308844698398
P 4.671410522980595 1.2559557072596652 12.599113111756598 0.08344849553364339 -0.886705346093731 0.8403763811202043
P 4.001690206604429 6.042980972267852 8.262956321346703 -0.22521578141283793 -0.10572941841903082 0.5595304119375718
P 4.741084070944984 1.268588175346922 3.908257099136369 -0.44759486470782917 -0.9403264738532967 -0.5516155279658693
P 0.3447176548218578 5.678425898967262 3.831540927541999 0.5567461643242154 -0.17174094942314938 -1.0056528058649326
Ni 1.2916313206518173 0.9929319424335379 2.549423406079228 0.309849298393518 0.550823113971561 -0.4233329068366709
Ni 2.1136304626713547 6.710796896470061 4.601889326390123 0.23363383027320409 0.5485145204430425 0.654093529327138
Ni 5.976608370738325 5.592782662344109 9.175482105635473 0.42699261507644526 0.33048985746200504 0.4054316010762179
Ni 8.44321338858577 2.264503665519661 10.34434361080611 2.0585092659988615 0.6311461765023452 -0.6186007357371669
Ni 2.43962612871637 5.486626401447175 6.7249537851499 -0.4190836446420137 -0.5281485551921807 1.2440730017831865
Ni 0.6014669008615006 9.239566715996004 9.191501671232126 -0.745691393440793 -1.644155936952981 1.3011268093733852
Ni 1.8326237946025636 1.1179054117160112 11.40005520153431 -0.7118970705991675 0.04935901004910209 -0.3247285294981956
Ni 4.044675058530916 6.7783484074406095 1.6375741344389216 0.4016772762401082 0.4963370671085387 -0.03248974509758921
Ni 5.656344018283508 7.732766285289381 8.162003585351759 -0.20665498769151508 1.3106203506861172 0.13329010164611882
Ni 5.6270345158728725 2.921636856479379 4.967128167166505 -0.7574382495640761 1.3811575374747311 -0.019320554705482853
Ni 0.7017086637781689 7.589093498565471 7.155759034768835 0.5809615852281543 -0.9258838160654054 -0.4108175479784796
Ni 5.025990208703308 4.247447482386668 7.276740535313325 0.5002911666602803 0.572975224588568 -0.534283464445325
Ni 8.09758434608066 7.1986024175624 9.136247999438268 0.5334082609292232 0.12422182079626347 0.41468088758862776
Ni 4.789310535616938 0.5366713174226935 10.580319565641535 -0.4535233143771221 -0.4068259103205832 -1.1355122845629475
Ni 8.138156967920136 7.034779347931177 4.9471792057175845 0.508412510215834 1.155089435363927 0.10632540013181688
Ni 7.328917253466119 6.10015808015741 7.080396795324808 -0.0762162394512623 -0.07271722515906831 -0.2070519660196176
Ni 2.38127011138579 4.992618002988229 2.647004461072852 0.20580832342050362 1.4281804431914888 1.0845838731441966
Ni 2.2542471533827713 5.143491205836535 11.24277417244734 0.6912161452110483 0.732612448769648 1.847083082170948
Ni 1.0757367278640773 3.29252176662484 3.8654400150918735 -0.14625566066785137 -0.16277448425848096 -0.041681181788870154
Ni 3.4385433036966337 2.619709080099532 2.4079361360882876 -0.14921602884775592 -0.20351592784190112 1.8137392166031796
Ni 1.1194651995918248 3.1718467825350154 8.411862559135336 -1.6600389267318247 1.0857825214379881 -0.38625605658903156
Ni 3.6595344126832527 2.331311556688951 6.932910689985899 -0.5950648573987558 1.2217131460307478 -1.2354166116597691
Ni 4.325092271879196 6.9363313410716945 6.296151774727286 -0.05176273439458827 -1.2321024596848715 -1.9258567979367416
Ni 0.525045456627386 7.044246897595999 11.303098061691012 1.3812680949106662 0.35508297342033684 -0.0058852551361834125
P 0.37769537930090247 5.570492205374634 8.081757033408236 -1.5773463355275996 -0.1977016351529692 -0.44975716246647063
P 8.527251494662302 1.675157767418697 8.134569455805764 -0.9115383459770108 0.9696697029021042 -0.3424442016104038
P 1.888268320218793 3.1314101887079673 10.560901113441073 0.6868681526549977 -0.2713891946451068 -2.7305226130292137
P 4.071608604991184 5.9657351982784395 3.8741866162908387 0.29912548421811064 0.3636663442139737 -0.13294737359471942
P 7.1062575341937455 4.093917199028981 10.684749177634078 -1.3335175669992647 -1.801588954393891 -1.5306954684382799
P 6.276468521329303 7.689309869586485 10.359992273355552 0.5791037060838091 0.10728262183876362 -0.7702729394348992
P 2.418958939361841 8.523288545233637 5.9585338753006285 -0.6925412917803749 -0.023811243486984796 -1.7031216168539118
P 6.893509722760117 4.010087669238168 1.6819056636884224 1.6061822859226855 0.3914337441352291 -0.1066313614080099
Ni 5.12650584135166 2.8263356309740084 0.8366266876223694 0.5107748398004235 0.3537822523310423 -1.4311428682539225
Ni 1.3428594701312957 1.0409407622856106 7.18042000656818 0.49060839215487756 0.6860461709743346 -2.2085315927979963
Ni 7.0648687442797184 0.556515083875339 9.29191029517737 -1.4792986020235426 -0.094542805674592 -0.48906290204462866
Ni 2.696882305815652 1.5813256444475228 9.0541034032947 1.525119259902083 -0.8042999471126212 1.262196965077407
Ni 6.462328128973471 2.0846564960247034 2.7703347119652237 0.6985854410919259 -0.21616858360890512 -0.264929297952376
Ni 4.111564566507662 7.158029795722926 10.439974024101554 0.18967825062786042 -1.3422672881674367 -1.753522180793651
Ni 8.139598864851846 7.09289051483939 0.31236837976021936 -0.014946851117819418 0.37954033513175284 0.07744548387267307
Ni 7.662729995958524 3.955304654367301 8.350675345439472 0.4543236987912304 -0.7795175979616188 0.04672157242625502
Ni 3.046574051625206 8.31192821952675 12.166700917884206 0.15991927419787294 -0.5612489372905753 2.486506925301053
Ni 0.10946627586595582 4.751685187380018 10.23494988321345 0.3514983413928721 -0.23151729815083352 -0.357520636327552
Ni 8.562364858936428 2.2612389932214465 5.732831662817003 1.0353845286014105 1.2898635777547398 0.7722614306198378
Ni 3.6622277673292793 3.001838972605509 11.955784043497829 -0.3216046391572332 -0.32447604716775735 -0.8315266440390582
Ni 1.058243525466146 3.0577102115757806 12.36808766972005 -2.209994036276136 1.443878827763352 3.2042118608312493
Ni 3.055696996991882 8.290662506917549 7.94552588581742 0.7504813586302688 0.08689711620387615 1.7697491841754747
Ni 5.822035205952043 8.418093548957843 3.13214836738873 0.4261667767410402 -1.0177529315625764 2.1393056686216383
Ni 3.1058731965086026 8.771176926543877 3.253062760780424 0.4818432443677379 -0.9445646803043604 0.5610267939774404
Ni 3.168101477926231 4.122301710955121 9.140960009788689 1.4381956613356457 0.5409300232275652 -0.6729533423461185
Ni 7.432670352810199 5.970079026141897 11.449389841080823 -1.2580891135566203 1.3885767127569375 0.3881298765729767
Ni 0.6762632637738373 8.773135729922805 13.200353299264055 -0.4272492111719416 0.8592104831075719 -0.1893172677440159
Ni 4.718811751043833 0.4749028106870638 1.5650920614446524 -1.741925477094987 0.07688241228035146 -1.3906487647946177
Ni 5.943499152513936 5.481747530068178 0.19460892940338323 -0.8531689048991824 0.9152656742299269 0.5960727298379798
Ni 8.00955608497298 8.735891260120678 11.339783909788776 -0.41257643965111523 -0.0921110563046478 0.07951496480719208
Ni 9.253078831896946 4.808290977617389 5.995312222446843 -0.379880749190307 -0.10381420367418895 -0.18997521304298892
Ni 8.02874510325915 -0.0030896495888933103 2.1808536927052504 -0.4099168905410811 -0.13129466848264484 -0.14927747821331064
P 8.51975181691057 1.683582435654922 3.57983741390993 -0.2782131595454757 0.11850497291714429 0.23918895576347843
P 1.6445877387595853 3.40014713005597 1.4444170773548277 0.4287311950341068 -1.426991307979394 -0.47518948649664616
P 4.808064264263346 1.2047819689851569 8.199339647348918 -0.17957458653495526 -1.9606204266701717 2.353504530098682
P 8.503292427407075 1.4234333961580556 12.430044801966243 0.39496206900346176 0.6922962656491044 0.8175773809478177
P 6.313486277777387 7.818735989142357 1.1108537195518686 -0.17796738994883543 0.13418407421529796 1.6929107377591814
P 1.7868004914834623 3.2999126219666306 6.309252179177287 0.2184085286830174 -0.6698577341399302 -1.54247240646855
P 7.082434494950943 4.0849393502088915 6.211233113983653 -0.6971055141122897 -0.46421190443921984 -0.8186685571294674
P 2.398046899584947 8.568404502688125 10.176032523618261 -0.052937471428979796 -0.6618567182123246 -1.2006578680223452
