# total energy = -381168.2853988185 ev
CRYSTAL
PRIMVEC
9.28269133357709 0.00000000000000 0.00000000000000

0.00000000000000 9.28269133357709 0.00000000000000

0.00000000000000 0.00000000000000 13.58615707550335

PRIMCOORD
 96 1
Ni 3.948606169605906 6.1434242232998635 0.4026404403879043 0.25958526003164323 1.754923689126868 -1.4227896111932206
Ni 8.377424516209535 5.8939704648435916 12.907949596333873 -0.9010973531493448 0.7991757385121785 -0.26741504048870723
Ni 3.213184965657776 1.4732837556607075 0.14553217483443345 -0.18636178466011774 0.3698444480002276 -1.567407736257649
Ni 8.29525413441908 4.096544417978532 0.8828702544987551 0.8115697413011572 -0.83869642231462 0.8191843204236214
Ni 1.1014748455573513 4.119110640090213 9.71509372422796 -0.6536297023168421 0.25938342843348233 0.878853197039164
Ni 6.519206125202396 6.6676642042777186 9.926086508568508 -4.623093395219316 -0.0055641243513388046 -2.8427168132369816
Ni 8.542331523948741 3.8846762758654103 7.43071719488148 -0.9638744363765659 0.4067624040724995 0.6031244944784386
Ni 0.6448017167006396 4.297821009524223 12.117493173276022 -1.0674767811502648 -1.438276651085226 -0.4569169134397034
Ni 5.3285803141326715 0.629939199949092 9.161797991776732 -0.2596420814115077 -0.07882385227743845 -1.6663689827149106
Ni 8.9509927177968 6.248578548302381 8.794210849594556 0.1882785420668564 0.5662042244133216 -0.5240944397274652
Ni 7.969143912697379 8.379596665931516 12.617966680180437 1.3016739401261066 -1.1931649020794095 -0.056073188844484076
Ni 5.788240612991661 7.351455080218787 12.393183529912653 -0.3992267578170866 -1.137684609623918 1.196376724148488
Ni 0.4630559072705298 2.0878721693053626 6.421497446746888 0.17798101679559022 -0.3033919728039484 1.4210420323744946
Ni 6.160040240403898 2.2153328010682123 3.652610854414322 -2.023701928511689 -0.5469734012081677 -1.2615187080634598
Ni 4.384233581156323 5.233739058963999 2.327743405718899 -0.272617153514937 -0.1671476736255121 1.6230844609946626
Ni 1.9805828253453437 3.1879731765770174 7.8243088679660255 0.15674061935957523 0.6484808111260509 0.38613572896108334
Ni 2.3493377300703604 1.5966135898753477 9.760648530897262 -0.4972377245459372 2.1034842880476545 0.10284129823795836
Ni 7.340928508489192 8.390281043410143 8.18294192629426 -0.8569916210793822 0.12019135948063173 -0.13206188566597257
Ni 5.374390394807761 4.363282547299447 4.71167958213013 -1.1933155687246608 -0.1533418780906714 -0.9685849544783577
Ni 8.137439102695229 7.30275808260551 6.307563552483479 0.7295872887900791 0.6285149095270853 -1.0078559841638384
Ni 5.8990480968859975 4.150913139865868 8.677015945940843 0.5070032885731333 -0.37365713687809843 -0.12613523576889243
Ni 5.506984354759735 2.297001917538211 12.993243603686064 -0.9088826535217186 -0.3718864181309208 0.09835112367708868
Ni 8.198491362188657 7.157669620406592 10.793155766243526 3.2850350029269033 0.07001036775086651 1.9259408730101153
Ni 3.0620349061577774 8.769228342984452 9.466440133746195 1.4438433465397262 -1.8803559852914649 1.1216771784520683
P 3.70967898287923 6.567615359390967 10.254477487498287 1.5976282257050873 0.01938868893925693 0.28334045346971204
Ni 7.535159537475126 1.141344003915915 12.296911812042454 -1.0136823610376284 0.9994240513464014 0.21813110665191468
P 7.213421463270744 0.3290816111490761 5.91042681966037 -0.07474916798743256 0.20017272240128106 0.2827460144188227
Ni 3.3674168786094727 3.924712522664126 0.36021947024057 -0.23122367816981468 -0.4806137428360109 0.9625847710308647
P 8.93296573164259 5.592654311102269 2.729241146829984 0.12416319964418616 0.4664824456409515 -0.8973540840568287
P 0.8988160613039567 0.17675450641511553 8.97059961797956 0.20023828553189385 0.4616438866017275 -1.1836595336921356
P 6.327490705509866 4.036745321786246 6.433235409667588 1.1242631940116896 -1.376512582503552 2.2413614948438236
Ni 7.852042764223972 4.748189334572521 9.992713024079238 0.6058604053523631 -1.4827330816263882 1.0864060139546
Ni 2.0190967108004503 6.155937290929046 2.40923336625029 -0.5432489011687289 -1.2754620576174291 -0.06094157268037892
Ni 6.9673001909264 8.328068447526768 0.9963622926648723 0.04790505121139491 -0.17427682847112566 1.7584350447142363
Ni 0.041708987738463085 -0.08225392601053179 5.387889284233844 -0.6020436027094341 0.1450654970144921 0.14541670970632375
Ni 7.8440689325522595 5.156015086219819 5.282569727329397 -0.9475376468897553 0.8561477850218481 0.37088137390517417
Ni 5.545377565230286 4.864687108123156 10.97094343618025 -0.9912798249727123 0.8675115467740995 1.074437271628498
Ni 1.6362878117204005 0.5783775638563147 12.107426094756846 0.21678307726445245 -0.5212292023645282 -0.8712838693323383
Ni 5.213614184616765 1.621704703971552 5.928904016333879 1.3549896208301115 -0.39370094290285096 -0.5771380977170061
Ni 0.6742250627423484 5.5968315221060765 6.833741759367102 0.1390743124280637 -0.13352072959968617 -0.9140670259361355
Ni 0.17754724823672702 7.4880870108077735 1.479287800276847 -0.6098047347120917 -2.53493982399146 -0.881620732481972
Ni 5.918142592518958 8.942814666920457 10.954708009412117 0.48609559188618867 0.8191763500038215 0.9506995895575048
Ni 9.039308241108412 1.981121221430279 8.849533832128985 1.5314176913162851 0.9497853052733514 -1.2246442036346135
Ni 3.809625718163667 0.8775057873007542 4.018037914372972 0.2733267779874518 0.9846633480974589 -0.6519327742303933
Ni 6.876803235201687 1.9261119938556925 7.715822985120694 -0.0040062929459156816 -0.1075764989300986 -0.4224541037761434
Ni 1.3870382724687595 3.74571438980541 2.205848675551345 -0.7769513798963393 1.7777635698395189 -0.10723274243743468
Ni 4.927735146207292 9.379880895594408 0.5385167599197584 0.8105880941141781 -0.5924384755195022 0.1359823037663013
Ni 2.323346194935558 6.095571950578467 8.734091500558645 -0.653469522589894 -0.7023392517074034 1.3201000080417782
Ni 2.6857238908614285 8.44201348101952 0.8659562630097821 -0.6807576688818856 -0.6187442032935666 0.04181359360167638
Ni 7.741281693785234 2.5815628138087052 5.25013971763406 -0.47047588307106075 0.111776138833743 1.0781399172910657
Ni 0.5771067634420453 2.1224594764168896 4.219656108951862 2.157198746851975 0.5341410253301897 -1.0837693476627013
Ni 3.6044039828921584 3.280215278232209 3.5739743931330876 -0.9491610414257912 0.7606814390917223 0.5306818631369958
Ni 4.412657181364454 2.3896803056760225 8.03482637852125 -0.8847132553643667 0.0629503755802916 -0.24521022225689382
Ni 6.48784919460048 6.054607434667794 7.245687169333267 -0.5960233646572832 0.2571568530958087 0.32316067079044347
Ni 3.040461931995891 6.550098921248333 6.73761949282393 0.057008299064243755 2.1426532449376325 -1.3584241004329571
Ni 6.801622719824269 5.9419805433140205 1.5791194301914013 -0.07022839729894356 0.5600981115155839 -1.1034791673868027
P 4.9501528452610595 7.726550062978472 6.056463972891708 -0.2118200768322223 -0.6481311410961161 -0.19226940839380435
Ni 3.2341916956613685 0.3325097089795342 7.41838142665268 0.08371486182115259 -0.013098742165487119 -1.7894271222203761
P 2.0942122473400304 0.17150328804877335 4.95465402218494 -0.34272933695099034 -0.13738638320267954 0.44452445331262147
Ni 4.7667175860471875 7.47711486990444 8.187031880001545 0.030427977472554046 0.3958575842345376 0.8103955184873979
P 6.164737282110401 5.385446079931172 13.034762296256575 0.05468916401276388 -1.4411326324767826 0.9163069710102476
P 2.031925389927699 4.275960271937629 5.869830826587143 1.530200273969416 -0.2812506608202188 0.20620427330734165
P 3.806571712785327 0.901024413521303 11.26801832834904 0.17183350913695566 -0.6239311468111448 0.6252208121568459
Ni 0.5249204022369207 9.207259971534837 2.777758060235542 2.7275645588421544 -1.3048232843883656 0.9381397506146231
Ni 5.741984963142832 3.519578751441505 1.4438149244325127 -0.39733905387607055 -0.2662215344012383 -0.6269763613953718
Ni -0.1083874863194642 2.268921776901504 11.217926142260492 0.9880055250968146 0.1527880624697304 -0.4133326010908494
Ni 2.0305515516420023 1.6161072412264499 2.1938248057441627 0.45170477311114465 -1.887650462070349 0.5839574346316846
Ni 1.351940417345656 5.651534420873717 0.17342851818697272 0.9977644042557914 0.39041635861430823 0.6502916390825446
Ni 5.8382000565972 9.06582888963703 3.819068999839608 0.9915266508761957 -0.9203649431297053 0.674006209090665
Ni 7.411486243689062 3.5035939573336012 12.282578408684723 -0.24727970319141282 1.3728420756305002 -0.3636082372825286
Ni 0.957871613937565 7.8089989255025145 7.556429895906515 0.4256301875112799 1.3965743862504334 -0.25141995061203154
Ni 7.996082282326378 7.6539594184234145 3.580468563840341 0.5052068587943428 -0.5970255806695525 0.034233210151257173
Ni 3.604301873289843 3.9081243536334505 9.626879382249552 -1.933496059649554 2.7082974830824256 -1.6504422841823254
Ni 5.90984386665806 6.373662811138619 3.723911204903758 -0.28552434849490826 1.4643499511335103 1.0455900083795024
Ni 8.272919979585389 0.10817862576927381 10.060385698879147 -0.4228593096343621 0.38169080581585235 1.021729656822137
Ni 7.199330338151232 1.5110735912084872 1.236601123646744 -0.3284607428471182 0.24252496211524682 -0.5977783996751769
Ni 4.975197545901667 2.643014229020275 10.645690935118 2.5352804951603303 -2.2570992172940545 0.25972615648488173
Ni 1.863017542315958 6.013048826525467 11.31491819696157 0.7041390239203034 -1.1821004167351319 -0.12302111561994297
Ni 1.107601421696269 2.4678034341383444 13.534991668384547 -0.5177183609977922 1.0486434504938458 -0.1422128580570454
Ni 2.957372563784597 3.3302304179844655 11.768559598898628 -0.7302940850491164 -0.590908412028221 0.272381383355047
Ni 4.106031328302736 4.555647755370348 6.890436723649003 0.23344433997021732 -0.900048085949224 0.22197619142961772
Ni 0.9738007118987514 7.141164995595991 4.825788919255699 0.4185488551844662 -0.4404654527518995 -0.2360504101344967
Ni 2.7972275765897328 8.021748923271996 3.2768048175148783 0.9877319597204537 0.794332037266632 0.5385011020710984
Ni 0.2671753440726472 0.2336082047151611 0.4672061984700907 -0.29851664698951813 0.7182842050724338 -0.8516339563118945
Ni 3.014386852641012 2.3132559096885825 5.927313891345096 -0.8911577254381298 -0.4950535724104248 -1.133343816156719
Ni 8.141922642505982 0.9244641368673355 3.4367539399271196 -4.038205735463878 0.6420674514005393 0.5840163128940781
Ni 1.1045752643912885 7.927408933423781 10.353697388068063 -0.9902552403629399 -0.48564667727422817 0.43207979979136557
Ni 3.277606842027609 7.86773051221605 12.065472043972825 0.5656843473541097 0.6591431759359035 -0.24320219068792956
P 5.02505487990489 7.796420879035494 2.192384132082405 -0.5433149785199739 -0.3147156253468838 -0.3630793613622521
Ni 3.194034773878098 5.737872730976861 4.59626509863315 0.18606122270056344 -0.6222987534140444 -1.0363790313041956
P 7.257384288413039 2.6045653224030065 9.855452655301457 -0.9110310673232891 -0.19059742000802013 0.8077038305878477
Ni 0.5291133938156316 4.5784367620688995 4.423299786733044 0.8571474299309562 -0.15604667861634416 -0.5495198217791052
P 4.086769744229623 2.001533859202219 2.0118784901858704 2.5258309197116566 -0.0018028575366936693 -0.7027873949884155
P 0.9800850937867018 7.59066074767905 12.655410271349455 -0.225365933837457 0.5255869651125916 0.6792743994681398
P 9.221016919774044 2.001979428375958 1.759257477519601 -0.5703280167737081 0.9179583905707417 0.35087716286910536
Ni 7.133970909978323 4.243322329961212 3.1707639955104416 1.2322266439675618 0.12583647358155103 0.07156974181818641
