# total energy = -340873.42394498264 ev
CRYSTAL
PRIMVEC
9.18214101232347 0.00000000000000 0.00000000000000

0.00000000000000 9.18214101232347 0.00000000000000

0.00000000000000 0.00000000000000 13.43899151657302

PRIMCOORD
 96 1
Ni 1.484834855117068 7.685195000631027 7.437313001285128 0.954425118038208 1.2955837680679687 1.9256837626939867
Ni 0.8835065348425246 6.804710308424466 5.564831104284771 -0.39194462233337657 -0.9605039772424361 -1.8627482995120304
Ni 4.0993852583141654 6.3709184164438355 0.696965829114233 -1.5934057029833075 -0.23505667876265968 -2.0362941633544027
Ni 3.782803397473233 3.9019692246672006 12.614281283370765 0.5008364976407891 1.0492654003485606 0.01454961567940075
Ni 4.039572791189685 3.148390904601788 9.937905687720098 -0.05548697732371089 1.0455876943866573 1.3900679525904835
Ni 6.634243858905587 3.876396961704094 10.506899098111488 -0.6203817388969897 1.290521523053713 0.31821798207318747
Ni 1.2060007763376555 0.9138966672407273 11.779907467339475 0.009178838285790643 2.590686996955093 -0.2859344394491334
Ni 0.6612886198707315 2.660571294389589 7.728508996627281 -0.0470298476952932 2.1076124512834156 -0.5558923009643524
Ni 1.3996521321336781 9.32969810733354 5.447280415710269 -0.4323803617509198 -0.5173591778861606 -1.7831726566702322
Ni 8.557581044387511 1.4881036973486177 6.044307821093638 2.082003749576376 0.43284624564374485 -1.2718936235398803
Ni 0.028449027769692548 3.8278693459913398 5.652789588522649 -0.5058635185417352 0.8833040337216659 2.1045651798166594
Ni 7.677684009211342 2.170428602479126 2.00825546280164 0.7136148246212226 0.15923921741171285 -0.859626744709384
Ni 4.013422053337287 0.46045407509228975 4.322597599167072 0.09788215446047013 0.6964359988490909 0.5724085534518206
Ni 4.466266888100123 5.443200790419601 8.950785118064436 0.5315470393507684 -1.986851849562875 0.7348644780286183
Ni 5.998821330513158 0.16287832811395547 2.435104737896666 0.29381615619005524 -0.20731473276270102 2.013400289475365
Ni 4.843331512365825 7.132338285008528 2.8018412898532468 -0.5070673090418494 -1.1019807284644052 1.8615380812540132
Ni 6.317551812371457 1.3799013466278816 5.340601382197999 -0.9673503107403082 -0.06321519920590403 -2.963159369496471
Ni 6.936685222452736 0.8756264213506257 7.33709819510716 -0.9804534237811694 0.8531941017101629 3.3060637985727452
Ni 6.229752179174606 8.451912964610337 11.60387021281531 2.150615951428135 2.1385834457436332 0.6945531800040813
Ni 8.783241344057643 2.623962097824452 11.16489959325436 -0.9199291411438673 -1.1234514967436715 -1.3571388059626304
Ni 7.507079827575966 4.936612883799291 7.771339093787573 -0.2848692314094126 0.525393875265179 -0.12406781171690245
Ni 8.392063768921457 8.868212877795736 1.5610328530342465 -0.15807219368680517 1.6835840610416166 -0.32761407857610675
Ni 4.457883593275953 7.399722233836417 10.944929466423813 -1.7892378890277056 -2.3043465803167926 -2.3018942621215586
Ni 6.216236067475615 0.7955710059573968 0.32295885783478395 -1.058989312504544 0.33737295773508347 -1.5732500539710388
P 7.912939646330825 2.6854640789113065 9.040181525598552 -0.2638329795644037 0.3116215598025924 -0.9291717427880579
P 5.89656900722513 7.831668515455974 4.746638057299653 -0.6170691295839889 0.264923384415105 -0.03798702076673458
P 8.671421229743562 8.568333331615447 6.931657081986454 1.343081813648932 -0.24663949850425265 0.2682038549385897
P 7.488036066934859 3.323062774744402 13.509680527365825 -0.8784199661564871 0.46715633177952454 0.09278571377416923
P 6.153154758119585 6.6743606333708705 8.559240257284257 1.5537009281945178 -0.08234369250523883 1.0700928786168733
P 6.771434229078578 4.165010020754855 5.885942515330264 -0.46575636610820426 -1.1009479163245168 -0.32700292735466907
P 4.415719201345401 8.228887939435866 12.849544266203127 -0.15478580962604954 0.6789496691388693 0.8353868983254129
P 4.828594175900552 1.935650436696836 12.139669264916602 -0.24520765115373253 0.41478913103171794 0.2571691943909829
Ni 7.0777229097465675 6.335805908877976 10.88531441533298 -0.7696707870745261 -0.6761111712488098 -1.8208357184386448
Ni 7.887725486870613 4.142100578710708 3.694714526831737 -2.7693197884020693 -0.6948293164836034 0.17984918035258057
Ni 9.082083308293647 4.449463569887382 1.551491690217383 -0.2655605037784717 2.992807788490523 1.0203173498556428
Ni 4.226557912547209 7.548922844568022 7.962575546474332 -0.47681545213584337 1.0991322032720168 -0.567322654288481
Ni 4.542965312707244 3.6043760316207765 5.684908718089955 1.1404989391442615 -0.6727869919715832 0.308077808315392
Ni 0.38280805352366365 2.7638611996219007 0.30174719368000014 1.9325717480630717 0.055756171824697526 -1.0741482796331694
Ni 2.090975535542048 3.4715747248935185 2.037686979669017 0.6492539418466496 0.28158284734865696 -3.135647224387974
Ni 0.8791505271047516 8.384424227526376 10.486888458012565 0.45434786716094655 -1.022431310874852 -1.927611061623687
Ni 8.266681632202886 7.442970118416752 12.53134910317095 1.173001025537025 0.9520627884536185 -0.393508881496703
Ni 6.157332632320021 7.634876867403801 0.6572503142150136 0.28125606013685756 -0.34702102234780885 0.02516364374982118
Ni 1.8289815035397763 3.2741403269643543 11.586534330418777 -0.11658255908345083 0.8657896789869863 -1.0952938033625332
Ni 6.681642071263059 7.708554367589068 6.765000302809907 0.6321756462081242 1.2779573132354571 0.2614084292833111
Ni 3.4511628252285327 0.4606404725566169 11.01212437499258 0.3704957084309813 0.9453105573314494 1.6778744122513491
Ni 2.269063162173809 8.238924019658013 12.515934124692507 1.0058032153998677 -0.7074202657747366 0.6119919721713977
Ni 5.250954302211857 5.920167109851767 6.484138807275645 0.09918621798387435 -1.6042336468367469 -0.4492349714144134
Ni 7.108354532455697 7.136865080570759 3.1660784630024463 1.014263430352079 -0.9629390690464901 -1.5924273982304382
Ni 3.0982747784787588 2.8788583347565324 3.875522821871387 1.2919106900917556 -1.4287388867981201 0.8234767771513882
Ni 8.306219931778879 1.0626308252044603 12.949220998912642 -1.8192879143355505 -0.7148880349066914 0.10385302733192438
Ni 2.7072808461645708 0.7740140932972582 7.107305013727983 2.1063050453259016 0.4672303795505695 1.5516227055092504
Ni 2.846124001735536 1.7638158481540784 0.07785261974337289 1.522901683425474 -0.06088603685209515 0.3821584894808902
Ni 6.339249211790423 5.243553496485371 12.948522237974945 0.09565892155690622 -0.10487349817663873 0.1340154098479176
Ni 8.715256771354289 4.6506167349619885 12.135006573666093 0.3789937185996634 1.3664420856414274 1.716848222411385
Ni 1.3708293912212213 7.51272684435238 1.0510007252873792 -0.22706826124054444 -0.24467337591681734 -0.6072719409879089
Ni 6.674608551180566 8.796803366462134 9.146792611266683 0.37159742613559227 -1.7730540801789916 1.5401023635744766
P 1.0445144608144388 0.761483225338281 0.42818803126738586 -0.04579263285408242 -2.831427613476407 2.3350920890297657
P 2.61825080606034 8.016780480029128 3.5352877655572192 -1.3871335525525077 -0.24943968695720914 -0.009417179548841845
P 3.084437291841272 5.745008586230861 6.812749272957393 -0.5101863142868052 1.0609135261104503 0.5794893715580021
P 4.879995801777562 1.6804052784029608 6.891098646534267 -0.976797572196137 0.07842096041206494 0.7542387687901719
P 1.891043595233722 2.427280635465477 5.74637856168296 -0.4990830052847921 0.09289370010694324 -0.4469117225978755
P 2.19749755444151 4.287876250812067 9.320316713771813 -0.6527087331644694 -1.022898737429574 1.474116800712287
P 8.109345644456806 6.847104253882514 1.0682815148373133 0.8468787010150964 -2.138032715446486 1.5799902009083497
P 1.6895782373617199 4.789873086882447 -0.010990104682421009 -0.016491827007436115 -0.7331924896428341 0.500498654685396
Ni 6.516326802901201 4.632858474074862 1.9229717362661511 1.0670780030499494 0.7015838615986175 -1.4408744937193896
Ni 2.0473603653177186 1.8089277073776848 9.37651876301583 0.6216125259802973 -0.4825875787329301 0.9477651895195289
Ni 0.38078063676881485 7.584283269943579 3.065528508674332 0.9449308053945276 -1.4343037824804072 1.733023032399035
Ni 2.303294184194083 4.7660362485872145 5.08823115228249 -0.07376443547666006 -0.36751348587420574 0.2600416308427715
Ni 0.5926245687259873 2.911032557170438 3.649196816971517 1.3703835867876786 -0.45052746497359186 -0.26373013543795226
Ni 5.782591089752583 3.2308740781018197 8.264589940460338 0.17016769139875856 -0.6482247292511868 -0.6831567652416816
Ni 2.1956886726448377 6.001337237174519 11.637226176788767 0.9400642213308456 -1.0997348698530223 1.836411718500031
Ni 6.416819939802031 1.6265061101467897 10.604238057696982 0.6041354522414563 -1.121240862245598 0.6188894706221794
Ni 3.634961743624406 8.589140063347728 1.6601586572777722 -1.1626047699043656 1.6538309981489001 -1.6116487083538953
Ni 4.741345471169693 1.0392622761053196 9.200199616759901 -0.38882510286778843 -0.523934260000517 -2.737587747406111
Ni 2.453385462612375 6.45521047174054 9.418771303500941 -1.0988277846577206 1.171863569498472 -0.85062479832109
Ni 0.8722051555768183 5.194934059361619 7.718308556079448 0.8749811156782673 0.2201368242280338 -0.38749532831277134
Ni 2.255868425413312 5.73461440250582 2.7690904289782705 0.35617723492578013 0.7791892680879225 -0.07388681998713727
Ni 3.786191607539081 7.595182471429111 5.343464373792935 -0.561876029351613 -1.2499772830827633 0.8213918695979016
Ni 1.2945074343991947 0.7771507126969699 2.8986430941843984 0.380898391821544 -0.8188624183078284 -0.8508299723533604
Ni -0.032655366607537865 0.7813120590434259 8.632200632249626 -1.0792925428382703 -2.058548860987545 1.2432556480882138
Ni 8.61108538057639 7.11266095663153 8.834093877896882 -0.5075661030551388 -0.21331877286493584 -0.5778063274286243
Ni 5.332904911528097 2.9743617843361645 0.7771112294902406 -0.5796762907578276 -0.47781766814811266 0.17531632547923356
Ni 7.665884957898023 6.003724593860483 5.320093988265574 0.5619775879264838 0.376677411761661 -0.19898847228519279
Ni 2.9987036403918896 3.4496569540881556 7.472496211337457 0.38656073231364396 -0.0356894829818095 -0.019728845887495055
Ni 5.61300612577929 4.951478770239963 3.9994440799409716 -0.4703462994717319 0.8879425609349416 1.2023424548136197
Ni 8.76141539466328 4.691862912782555 9.785803520400936 0.9726853497999763 -0.6036968220421409 -0.9799289187362673
Ni 8.206915075783904 8.422208738152294 4.809062843567042 -0.529210935018424 1.3549631384675505 0.5211839509488896
Ni 5.87311781885609 2.4911607910971942 3.292780991611178 -1.3742973200197879 0.6834293021767779 0.661955448573718
P 0.3293147359041062 5.305973691682212 3.9510101220674363 1.7517743448646088 1.6930398071378778 -0.09159966388586806
P 8.33855943273258 1.3630062070041413 3.8769203437467854 -0.38655893254143103 -1.1607155233014526 0.07864053262203875
P 4.434515044176812 5.024660434805837 2.212636150472847 -0.9084694772436999 -1.7272917863422121 0.48691423113274207
P 4.181611331863401 1.3603250218029828 2.418789909590437 -0.37865073343794786 2.24746837907251 -1.3001726729902319
P 0.30010909970778527 6.367199649298393 10.819759437164649 -0.941970951435255 0.7879888686574236 0.2527615522415905
P 8.266167432301295 0.3567518917245943 10.960935774789087 -0.6536649264301517 -0.8832500405552789 -1.2057972461314392
P 2.9616628831950593 8.839178947637983 9.128246522673187 -1.4563126826513304 -0.22894439521733476 -0.44933807265118103
P 4.9766929297001745 5.19033380667059 11.246044010582033 -0.579283426194783 0.18500321374969428 -0.4199562770549542
