# total energy = -340884.29094024736 ev
CRYSTAL
PRIMVEC
9.16730550569295 0.00000000000000 0.00000000000000

0.00000000000000 9.16730550569295 0.00000000000000

0.00000000000000 0.00000000000000 13.41727825302754

PRIMCOORD
 96 1
Ni 6.578944377829602 2.2546163107069717 11.173748296793216 1.2481155472836762 0.4115050609638074 1.325446617065672
Ni 4.814357221564268 0.7067855120985986 6.332740801070283 0.21253535773169205 -0.6175064742317236 -1.1269445974985948
Ni 2.8816875168144893 1.8438293460171502 4.710431144708596 -0.4030985820676671 -0.9019501880679434 -0.24648214699078197
Ni 3.1610703227927757 4.257525911092844 4.484309467633488 0.13826287227036185 2.3866105686240315 0.43080864638842575
Ni 4.096273005292935 3.1674507675020838 2.7816162919706917 -0.6712319887796375 -1.1953778505703285 -1.3151539768904124
Ni 5.57026574081061 4.956056264483494 2.5895209031535438 -1.072787908950533 -0.00973033991388647 -0.20574481717241985
Ni 5.468746998409916 3.248874775990702 0.5088743845981385 -0.6979475503976109 -0.4486117360081177 -0.8195740996628724
Ni 6.207402648485398 7.917774359332846 12.255717708757581 -0.531304327212343 1.1591242675549327 1.8003429978019319
Ni 2.1442236164691937 6.94658083498104 0.3386778554384565 -0.07605657394494643 -1.18919074792301 -0.9922771558889749
Ni 0.9934059058613662 9.01559587616982 -0.03666372208392038 0.39218604892022135 1.576187539332808 0.45816775512766905
Ni 8.080127341806774 8.806892996497238 7.055382084963737 0.1163807274852899 1.4054434066052892 1.1435557236927145
Ni 9.047837290024185 2.7815347029507023 1.1443144240032534 -0.938443655008287 -1.1964834249296814 0.06370807968192255
Ni 7.194904809529531 0.8094199155928596 5.076413819926759 -1.2091661626036723 0.18134710505434576 -1.0296959628570654
Ni 0.8747828046408049 7.800927881940824 2.250238922274939 0.023638979575178642 -0.5715310359428737 0.32334064801173346
Ni 7.646312105407493 4.302977412341051 3.590798774348076 1.2752982783460554 -0.39419536604076627 1.2829380542795001
Ni 7.741688753044917 4.199221847369853 12.636942863024835 1.2372454373383919 -1.0518899824556014 -0.39116197853108114
Ni 8.689789834547945 7.569050053668913 9.340988472308378 1.0051601824992302 -1.8045817184736275 -1.814513632875359
Ni 7.174580892977035 0.9789215629867866 -0.03476792328236147 0.03382106231450305 0.6473970911435688 0.3579407545841061
Ni 2.3502221409848145 6.7399956029059425 9.159681168741107 -0.4292065920086286 0.21551526629562237 0.12937688263464173
Ni 9.125328524403187 5.390724060305138 0.9414181157083652 -0.5758132082579954 0.2996044807370582 1.3298617154142323
Ni 6.483274376412441 2.538161073435295 6.955221937255457 1.470985454172157 0.09673492822990436 1.0793303380547412
Ni 3.4324225690507246 4.85254821676395 0.44764595038338023 1.8522566559520877 -0.3838425620515325 -0.5100832130500376
Ni 6.220869420436511 6.1180030841101445 4.820036367393889 -0.26054222462827387 -0.4688578878516635 -0.4331534924715185
Ni 5.65572336377063 3.3729084209863123 9.305298318080965 1.1317386764531285 -0.03849044276571436 -1.303206060499917
P 0.5732545384839605 5.851032809937037 12.344419641175396 0.36821462570628843 0.6394906918122986 0.19358787009491177
P 4.523231097090831 6.3476624244227855 12.5783766143612 -0.23800290587517722 -0.2503565423445237 0.7082579311846835
P 2.9403307708453035 8.718300155016264 1.3068535027812036 -1.9053291102970347 0.7589953096385509 -0.21576569174353163
P 6.562434060413706 7.943451982365565 5.800343110259377 -0.40075862108058075 1.3115521184717671 -0.5465535400619297
P 5.153235840995732 1.3798536741385237 12.553366371177386 -0.9515213141278516 0.12025666550092837 -0.3752170251660506
P 4.356459473309594 6.324239958571803 8.478391767024016 -0.06587809075004783 -0.7034833926141756 -1.5104068933925732
P 4.9011349365331105 1.2558200291429138 3.918704128956204 0.1603825869875367 -1.05004778704054 -1.1049336404451422
P 0.2977724210456323 5.8301038512138295 3.1779629168528944 -0.058071193111119336 0.5670478033605395 1.4311665224030061
Ni 0.4571726143803823 0.24559211747467796 5.177728131412198 0.31367458567687917 2.7838483210355474 -1.7976214851057106
Ni 2.063844680820893 6.762070474831251 4.622695446302795 0.1466022453739927 0.2508946742361808 -0.9286855471802586
Ni 6.470861844607264 5.71801520543694 8.93777278532749 0.4202190437980376 -0.5452739020185577 1.358699465581531
Ni 9.038935836270252 2.597913571445745 10.049796292026048 0.14264120384371565 0.06866182414277207 0.5127584458893557
Ni 2.7061152796411023 5.406757677828962 6.8999293334275915 -0.8844090938603865 -0.10025836800213056 0.2466137874726398
Ni 0.7698382401311046 0.23254795831250105 9.104160299003382 0.9619880179871303 0.7215801022148863 -0.09447390010986956
Ni 1.8301150568143836 1.0196610691479462 11.27270111035176 -0.34262443594200986 0.5716665330794735 -0.7492690834897224
Ni 4.273009490279658 6.997844407990312 1.7264144956768859 0.5774144913068443 0.4691335101105534 -1.0349582396972692
Ni 5.898427779976009 7.831766698035816 7.871501467501371 0.30210025057571843 0.6432676423562277 0.7260486795092013
Ni 5.127191525738339 2.8453391500437877 5.180558995386672 0.2369245852093339 1.8434390576604573 -0.5267892129508089
Ni 0.9439666266698418 7.756448115088001 6.734695983528857 0.9153132396384107 -0.9779895356217092 1.0443332531542657
Ni 5.281183925489725 4.873339665902904 6.78829721947042 -0.3335042188082966 0.6009100033256232 0.7828394632460002
Ni 1.3338062980252237 7.664087510998513 11.282683389437919 -0.27630848632359506 0.32167585871480087 -0.2981973159768864
Ni 5.26267513544936 0.361203758800113 10.460056136642903 -1.7132077974453204 0.26477683153491177 -0.30876429285945534
Ni 8.669658431413403 7.586165413255521 4.714469342832806 -1.4493125971844139 -2.3451350750880646 -0.9864741760539525
Ni 7.650813252465354 6.361422550153636 6.915493584903833 0.8922381029865021 -0.3843511262568348 0.09543883512630016
Ni 2.2570181447785793 5.426577392572532 2.296823502497385 0.026980642353901917 0.022372968378561467 1.235616386375401
Ni 2.633684397962587 5.472707274436384 11.53172149709396 0.7711509711644783 -0.15431298375468908 0.03734938718273568
Ni 0.8822394910295285 3.548856517689989 3.2245474970753403 0.7248101791164098 0.15875816401023626 0.6088223161941644
Ni 1.2783165971265964 1.0507474024945918 2.517322871037696 1.1913360764007868 1.1829157135475759 0.1573304304247742
Ni 1.6949614701055675 3.720211794279637 8.261957181794203 -2.1451109624495057 -0.40906688383596007 -0.2734242227972646
Ni 3.7821552783325076 3.16290378391614 7.342216076947377 1.1417947751375497 -0.5642046774847895 -1.282911829027255
Ni 4.020468555147429 7.0441943051889675 5.980402743532198 1.3730205101898934 0.9855979440965864 -0.6914940814627833
Ni 8.333199980664778 7.642131814046222 0.11562080863105191 -0.11987022869578709 -0.23649623942266365 0.5413568263523386
P 0.5121095267503152 5.999689837819432 7.891989478824408 0.6068255974791098 -0.9113375428201144 0.7106552277722663
P 8.855736400823668 1.7125260276673997 7.865771901490858 -0.5370402012548557 0.7760921172198376 -0.13749976885209225
P 2.0171005894807146 3.1336967482209435 10.447780197691415 -0.6531455635915719 0.859464508099907 0.40459727810038065
P 4.319020197170491 6.352108567646944 3.734900568069472 -1.9058991238678917 -0.5593884870430689 1.0630573119263305
P 7.464460263886584 4.25667335167048 10.490513592824234 -0.0218039832489689 0.4149634518260531 -1.6528269823644182
P 7.0083134710047235 8.32153916792018 10.133882486065792 -2.8228203314233706 -0.8898274366624804 -0.927462730516751
P 2.4713130808774246 8.857304010084146 5.645775920445816 1.7710370497489631 -0.8344664433936725 0.05548723443402702
P 7.2075006874470455 4.022925393052737 1.481710690116478 0.5714891269613448 0.36358406891281253 -0.9896299480741151
Ni 2.867184839328676 1.7520921187096061 13.249146532882989 0.9100913291178391 -0.2874961275092984 0.4005184800453167
Ni 1.6292685580554167 1.2682600628649419 6.89960756100044 0.536023072844251 0.8335277336294871 0.8376458695629188
Ni 7.146226416704203 1.1989643997073798 9.123346552928831 -0.1538051908803351 -0.6631001037011225 -0.7165739072495465
Ni 2.9492413919048555 1.6657636017159876 8.955792041247918 -0.6229551560511207 -1.064466019348399 1.2795033175663382
Ni 6.396771680612104 2.276727851854748 2.6395010533764607 1.316786113177197 -0.9209848361018913 0.40482430650952217
Ni 4.944716307435486 7.012099568224471 10.538131328389696 -0.7683263572314896 -0.0006826278893214051 -1.2573470931842732
Ni 7.922110494889602 6.644435609156184 11.349595553135106 -0.11772824265211984 -1.8699538161215346 0.16590763057082394
Ni 8.477383363406165 4.137626720930422 7.991706845671397 -1.1040175563887762 -0.3113292253731541 -0.142397977484658
Ni 3.5210337451429323 8.50751629696866 12.44598788702642 0.9026945224331356 0.33882126014583586 -0.4823564365587305
Ni 0.5274574298139997 5.248236629102864 10.209555843740977 -0.42901195949931925 -0.9897230220085537 -0.6502515298732285
Ni 8.889967119996884 2.7046210088255602 5.793661061195276 0.1697365173986109 0.7213268485534996 0.5089380437020009
Ni 4.059887969299766 2.7706072746554495 10.98703319964258 -0.11601485950543891 -1.9818520823554386 1.9655194066336856
Ni 1.4001867579966365 3.872645752076164 13.153119006546772 0.10246925961052031 -0.6050471654224483 -1.9164709858464672
Ni 3.629978005093252 8.53495404267981 7.859493213873896 -1.3201262332940231 0.33220606882216336 0.7892209412923117
Ni 5.5936607047447415 8.17901506749544 3.6018820468388144 0.6343052909566173 1.1666794541943712 0.11085414124010586
Ni 3.162995456972308 9.002339952247896 3.522531682880721 0.7175426989207191 -1.153018411767511 -0.5616888530414713
Ni 3.5704913589456906 4.2784915390385185 9.409564501975021 0.1956072145177857 2.9404819825036133 -0.3110764859323997
Ni 5.466931871897785 4.577538215564889 11.43121299177224 0.06059138842981178 1.2217054327212638 0.7106313165128664
Ni 8.314828700208666 0.3313962645870143 2.139908565715355 -0.7201153447439017 0.20016680886401012 0.5520765267626879
Ni 4.766329707437734 0.7876273966805488 1.1877647024353075 0.5379763399158799 -0.6517365990591872 0.8351536992686843
Ni 6.53195276923777 5.7978532700538485 0.32131864552244116 -1.2466122232652723 1.2440789153204574 0.02516364374982118
Ni 8.274061692130656 0.14004067733314401 11.380965156225312 1.6913716754068353 0.43603312801215877 0.4671069665988278
Ni 0.3716141510585768 5.247622419626539 5.528898274214698 -0.25934563321701143 -0.7583900719543842 0.09072214637692118
Ni 7.3276840640835905 6.586910766410622 2.7412572289926302 1.194847431988155 1.031934879489913 -1.429222768413074
P 8.603268804136373 1.9852442024622559 3.758997747613852 -0.2597490393030172 -0.9657454281470335 -1.2626278819672383
P 2.346463545681918 2.999212374822155 1.4706008324394508 -0.4492007757423684 0.7137387517935966 1.5146301874453012
P 4.9669103543338124 1.4886604245045914 8.334611745729768 1.2879655894010786 -0.34182713685169513 -0.22904929622631517
P 9.295372876289631 1.783526809669691 12.469468106902786 -0.5318938811672258 0.5994974392488126 0.9609012126808548
P 6.666253796524221 8.446608718450491 1.2776895534224055 -0.9001031075568756 -1.1556023704446032 0.47464158441297616
P 2.048837801526154 3.3197197137975074 5.9718294793193465 -1.486853017332033 0.9458229781914936 1.0234867487225596
P 7.180072109041512 4.500056148491504 5.878297293572028 1.115912508054149 -1.9539532990626414 0.33614859840967914
P 3.058946538221371 8.818077109349762 10.025189410289373 -0.9516282720193611 -0.9432930126807884 0.48798509559941766
