# total energy = -381169.35366904066 ev
CRYSTAL
PRIMVEC
9.25788225687025 0.00000000000000 0.00000000000000
0.00000000000000 9.25788225687025 0.00000000000000
0.00000000000000 0.00000000000000 13.54984648400739
PRIMCOORD
 96 1
Ni 3.585253763230134 4.673258599097903 10.517918888801105 -0.19648910290210678 -0.26533424670027855 -0.8566645767572666
Ni 2.1100472608204948 3.0575637337920116 11.79119801865883 -0.11715257265430791 -1.3649012235168687 2.099953649186577
Ni 8.292220311540904 6.131004735614803 4.152120372916563 -0.6234809466476038 0.14738128963186228 -0.3546096333283441
Ni 4.415482126183027 3.13166382319047 12.255565059406733 0.028187518177809522 1.7588011698044033 0.3579063018017449
Ni 5.716908921184062 1.899032351067988 2.131769955693626 0.7509945508212614 -2.666135247892079 -1.002240951969906
Ni 7.619959193141471 3.2421751634140326 2.4447178519919577 0.436769491957551 0.4629410081465963 0.054770925093292774
Ni 3.076236882257365 4.625349058538555 7.571572871647088 0.3310938095945911 0.17556546537556217 0.5170110505181225
Ni 8.253531621686312 7.404426436858924 0.31012331642883295 -0.13805229892145257 -0.5987057965854528 0.46390465761144617
Ni 4.844631257125748 6.384781803404725 7.836052051299157 0.45994541585338206 -0.6915141360674413 -0.7762790364196631
Ni 5.255542360068098 0.6593250795542966 4.358335070730902 0.49417142691578764 0.6558282526300576 0.045976466730114365
Ni 1.001702857685307 5.612313367707827 0.018108417649098527 -0.5098590128543735 0.16405206541932393 -0.8321611922992636
Ni 5.4506892596720595 3.9697243545130645 1.1204851898964492 -0.766395458757364 1.1474447743344753 0.29781807826059675
Ni 3.0095893880570275 4.524160405724318 0.6195467369607989 1.0016763377156879 0.7763517986391275 -0.5806743930050386
Ni 4.7678371239972845 3.125211079273588 3.7018854893983897 -0.7584270958399068 0.6251873878157491 0.053721657893172
Ni 9.36953229342876 8.480220126060455 12.137071573121283 0.15546509508126127 0.0046791506432242 0.16489461592527732
Ni 6.483535633191501 7.528657958552817 8.835312679651217 0.7024714064098934 0.42135367162311305 1.436958446494435
Ni 1.1981273450375176 1.281170548673721 5.122397349359609 -0.07786431657764654 0.45288130991774905 0.5792983385931185
Ni 8.438485592950979 2.3722582593253096 6.853092701984179 0.49675744247540904 1.4224900776749307 0.3640455819302634
Ni 4.031807712772193 8.220925360459253 3.3240889054177263 1.8365585284905401 -0.9406373202254962 -0.4738244878283194
Ni 4.9046778812934635 5.565959151363739 12.35549556602541 -1.360882846386095 -0.7121930045730315 1.8839455024149363
Ni 6.070485959453168 1.199432706432468 9.023439327157371 -0.8749050110246932 0.6169716847741762 0.882286648200745
Ni 2.4751318467060774 7.3990568651633835 7.199318055971513 -0.4467841958810757 0.6162579465366032 -1.2503356948634465
Ni 3.7407028638160305 -0.03888773432261675 1.2069741773000322 0.3011728536654426 0.5161091075291434 -1.1652499208366964
Ni 6.4987000442902865 7.7713903728379465 6.506839574350146 -1.0181301123963369 0.32109401806940185 0.8779499684986041
P 4.594233316351121 9.295839550848585 7.0139289642418605 -0.1211120715226882 -0.3040218930784635 -0.8113686810339445
Ni 3.624423862960878 2.432777035486944 1.34915673264505 -0.28956715110571424 0.1204970636465086 -0.8698489366580244
P 1.3258213146868099 0.4536797414973306 10.08364644583026 -0.18386087261513495 1.0425563637595012 0.37295908236980924
Ni 7.4506047534405715 3.6817764433985904 9.065782103129601 -0.048142878253813866 -0.38072741346131855 0.5972677785873456
P 8.608654726288442 6.427423608973103 10.230919910615585 -0.9451169532634046 0.7245898355754875 -0.4500831783473216
P 0.01634849423647397 3.7284917171497924 12.548444644387093 0.4533453940383612 -0.023472886310959576 1.0236973220714694
P 2.5251058950035388 5.849602147239548 11.867863467224243 -0.09915922140068084 1.2064253666337417 2.0977214174219485
Ni 8.804708898351306 1.2459628225389963 0.7764817276452026 0.0566732843223282 -0.26099628144655695 0.504543257068415
Ni 7.313791769791095 4.3133954587921215 11.798867248301217 0.37649126389278387 -0.5767555175666067 -0.7201515972984759
Ni 4.507227739118899 5.5448419219886915 3.383505067805328 0.6044126171622429 0.6549983005295945 -0.3620018120273572
Ni 2.334569420751955 4.509107089212337 3.242912090839835 1.6941764918454822 -0.5649626386967367 -0.2445823588649078
Ni 5.404242464505634 9.016316312566769 10.856245417666655 0.8817924821731458 1.0401258999411376 0.32461205852498937
Ni 7.500625091149201 5.550887319087291 7.571816353949834 -0.6995647742860597 -0.20154054928308518 0.34991017097014576
Ni 2.743749299716606 8.343333079353108 12.410317967248655 0.3890539310491429 -1.6017751579939254 0.7715777742892519
Ni 1.1034840149625 4.652678326892409 10.700774098163397 -2.017871694983157 1.7649774738184443 -1.3452873059406831
Ni 3.506293285658988 6.860118508811327 1.279151404558553 -0.2157654346332155 0.023258970527940587 -0.5200837759061753
Ni 6.665601145199257 2.071395602494837 11.168935019050666 0.19571802906403715 -0.4042504362839231 0.5842554254880777
Ni 3.5837354705438083 1.9365915792900703 5.455317275000681 -0.33790260498630836 0.7694036494560684 0.1911257817076644
Ni 5.078837161873648 4.079346938042193 6.53345135683089 0.5277677748139944 -0.9056116960799306 -0.00514194921225566
Ni 9.560892719199142 1.5315036842727106 2.806782516692911 -2.4236928181883095 -1.572898584168891 0.615697703157759
Ni 0.5551026187320797 8.409545453088462 4.260668116318361 -1.2773703303837356 -0.701746869539043 1.4349126197089996
Ni 1.430490931220914 1.531707357681852 7.661706687286075 -0.8173493240974117 -0.8848556944795019 -0.7564396330962327
Ni 7.521547904997342 0.7313190007445904 5.453149078981551 0.8055163360182256 -0.7977904281288777 -2.6760147117893203
Ni 7.188338207642356 0.26125003032895766 13.153553714004453 -0.8801366917372777 -0.8362237924044115 -1.2004066712434875
Ni 1.3056113577706638 5.55640501689857 5.1895642107532565 0.6406561728753095 1.5010228810745117 -0.33116965713784896
Ni 3.9011419629258857 2.0488526592558007 7.774563049079432 0.31273561880237755 0.42326657237510973 0.11063379769918366
Ni 7.00223625898071 2.6526424806548583 0.0573423967672553 0.2573617700177632 -1.1482844966269514 -0.8630051742633137
Ni 5.065663195455107 4.132450150534642 8.89966144169293 0.8548732891847987 -0.8405671569747717 -0.870063623771992
Ni 2.3235988303050323 2.0874302545235888 3.076289652186097 1.781464929950506 0.525480007221082 1.491115906373445
Ni 3.2566637491097583 0.856198574194841 11.244841321272919 -0.16578910271508865 1.579520460360783 -0.7092357217169205
Ni 2.4512372526609223 2.4865097839712833 9.443578687110264 -0.5492058900831123 0.9413058070474305 1.6840322043226286
Ni 7.526278682818758 9.492939863603855 7.727802411705285 1.9271410639658035 -1.067418931329136 0.29538067246369776
P 4.691394790393703 2.462902184275373 10.28380463708732 -0.5259258365092491 -0.4300244599242336 -0.9830191276258168
Ni 2.9810936265417283 8.91695146255257 5.320862273956124 -0.13057604514906546 0.415765121791742 0.5957397719785934
P 2.2875578947692756 7.205622673772655 3.982245640234131 0.8495400498973433 -0.707035371631492 1.1653404236679739
Ni 4.274882668699969 6.904028644245722 5.498880239851312 -0.14854137137823448 -0.22553485531515355 -0.3558347639846968
P 8.665248160382994 4.691774363565284 5.861013412880793 -0.9928165733322128 -0.36013827645605717 0.27835482732966255
P 0.3913991903466248 3.5766717063995026 8.712903109180914 0.39405652647005684 -0.5516314688054693 -0.7147980462960465
P 6.567856424575954 5.358675168151409 2.5708398332379696 0.8034188300592486 -0.19748591959773729 0.29941550465470373
Ni 1.062573433371822 5.655769866912769 7.994870095229893 -1.2161047987050346 -0.35443119876895085 1.1116650456317048
Ni 8.219323746832826 8.177246672080702 2.5618291364599184 0.9823329001920694 -0.38138613009123995 -0.5879457298554713
Ni 6.528056788853318 7.834686513669688 4.314244406592951 -0.4228847635556588 0.11077957924842856 -1.8565159454490738
Ni 5.650168848161387 6.446976256250657 0.8207918035920918 1.616978605207241 -1.0222464485575558 0.21700650612916822
Ni 9.556819251016318 4.87519152637916 2.686853132873015 -2.565760666027059 -0.1662588432626556 -1.1604771820384014
Ni 9.347961427824263 3.23138047272955 4.29615450470832 -0.412761816189044 0.6049299231182936 0.6037983806170117
Ni 6.0394257645591365 5.550989155791862 10.489884169821044 0.700793247376522 0.3659129741563053 -3.155716227223707
Ni 7.982905208231072 8.789609292428157 10.24028333270674 -0.4062201584157843 -0.1381685127843427 0.33431591607631456
Ni 4.9314239030665945 1.2856698794392944 13.227252011313968 0.7602996302722712 -1.7519198693035378 0.2854127626177084
Ni 6.83549254206971 3.404512128381795 4.895396854354189 1.0480325563827242 -1.00782333115369 0.47285106817145667
Ni 1.318405751017624 8.375374609763911 0.6076392488318262 -1.5925166155101347 -0.8746635844378484 -0.4021393034781912
Ni 0.5299091438095378 8.382623531552891 8.555657979441683 -0.9846870022465429 0.6688418912809061 -2.3602019967235157
Ni 4.10226945445281 7.179135872702067 10.715448767292019 -0.32319358091090794 -0.4394336690532754 -0.40278722147483537
Ni 8.711657924020484 1.7503229887482183 9.760252881007656 0.6300735122634568 -0.26874995725004686 -0.9743874200927478
Ni 7.6642211281007455 4.809858651456006 0.4195274139372465 1.013641480497364 1.57278442718853 1.203900800439675
Ni 1.106474310923982 3.289751420212968 1.1516055610249996 -0.7059002295857844 -0.22627481880497158 -0.43231968371631346
Ni 9.040646027076908 1.5698776061313577 12.108508229065675 0.21991056714984064 0.7527423867503036 -0.8274370473507169
Ni 1.979603700147796 9.05823600332092 2.600120663166686 -0.3750586452113153 0.630929689616165 0.8183865071126745
Ni 5.984359881033145 1.7877988960301974 6.739232785756691 -0.29517909797585296 0.4897159622475952 -0.7330199686207118
Ni 1.4154931620023357 7.503550581935047 10.360741341602179 1.275535848278158 -1.740505971039641 1.3431023824742223
Ni 1.8365138723438763 1.2461850117126048 0.05451226216841613 0.9298412580512566 0.4314002572258377 -0.3392568050213577
Ni 6.583909592369173 7.237738267241328 11.959798866745906 1.5503397250317685 0.19164694431845705 0.1745467943030607
Ni 6.266299426577955 5.601102072322828 5.391660076761825 0.6775180788986654 0.8990373852965227 -0.3781953910680842
Ni 8.946919227343026 7.029843263801575 6.540808595842004 0.20722731525521731 0.5459516448118725 -0.8184011624006938
Ni 1.612723085108877 3.514940147665255 6.129584576480154 -0.12057291118976654 -1.2114238482895976 0.7725324248930373
P 7.2313132969711456 0.694885531002125 3.089866336481804 0.06930331438151291 0.3508478522930667 0.7664635929911381
Ni 6.034611665797618 8.519880893549585 1.5804001150781701 -0.11935112296752348 1.5675794859488228 0.42667276984318137
P 3.5235870096715214 4.224445726290823 5.1082383442714026 -1.086992225475373 0.4534225271331998 0.17415238707811945
Ni 1.4784930506025993 6.66911914044806 2.115998227520311 -1.1105900673999711 0.11347255269955941 0.5663870298480891
P 0.10129604424814746 9.134669079042268 6.374918455672951 0.3197490740057332 0.6038096934709213 0.8208593941331992
P 4.984332700032136 8.180616541213766 13.002690042488902 -0.45176930780049296 0.6662653888029816 0.7237105182943278
P 3.0869482520017453 6.550608989974588 8.954036687204287 -0.8327132081479918 -0.9183258012124894 0.604186617194366
Ni 3.3158493902297415 9.18600403602808 8.877859129032588 -0.022890017224296063 -0.7518702685579954 0.2206908969592909
