# total energy = -340889.712044659 ev
CRYSTAL
PRIMVEC
9.07687760374345 0.00000000000000 0.00000000000000

0.00000000000000 9.07687760374345 0.00000000000000

0.00000000000000 0.00000000000000 13.28492787793042

PRIMCOORD
 96 1
Ni 6.618750295396357 1.9699184594489896 11.090484078251176 -0.5123169874765628 -0.19724834966563448 0.6437780063337428
Ni 4.755240073209818 0.6626629025238873 5.768992974370288 -0.8320974289408638 -0.36609886491486626 -0.1829167635343108
Ni 2.6115538670959517 1.726494753323903 4.356048068896476 0.4677178607099493 -0.05555768266064626 0.7649507558910374
Ni 3.3333744123336744 4.168837466359751 4.3654535295679215 -0.16608220847547528 0.20056481563337716 0.2868872902807059
Ni 3.619867903139331 2.967921162426588 2.3595361731656888 0.3430111298574673 -1.4135745203528558 0.0431456821495386
Ni 5.106497086396058 4.820992975259565 2.493806794212223 0.8126688879026068 -0.6103050713872779 0.2194122873571834
Ni 5.405988666066325 4.513241436883435 11.325028782611344 -0.9149160041999921 1.434457534449452 0.5305749052454862
Ni 5.535198020108036 8.206023898576827 12.13987370894471 0.8985416766070267 0.03640630654317601 0.9579866101372212
Ni 1.9811284034069463 6.474781938216479 0.44692458106775923 0.6528871677238627 1.7784490259423176 -0.48255955370847214
Ni 2.6961322134929073 1.7483427979447952 0.20932278429865128 0.41794516016219635 -0.6472004017517305 0.0010153286383918
Ni 8.514801124132916 8.982587093215713 6.768445254716378 -0.9072075798121408 -0.4013504890283088 -0.18953606862304131
Ni 8.580690179348146 2.4062348935502196 1.1992924505128562 0.24288980165383328 1.3380895026406632 0.4006645187048777
Ni 6.876343007609193 0.38708344946320794 4.606973814439581 0.7691488531327851 1.8993613227493742 -0.6816457279137937
Ni 0.602080190011348 7.663389995990135 2.5418852000069636 1.2739029406604254 -0.9315091326719829 -0.16749760076576314
Ni 7.405543131201735 3.959860511101422 3.746748130363543 0.6584579769434208 -0.23114217419960192 -0.7284004675708294
Ni 7.484366737137682 3.9148755052264157 12.266731243974675 1.4126021291372577 0.0922861484299314 1.079392044530612
Ni 8.255656265833593 7.406723125302572 8.726351374218842 0.7583412209943199 0.8066759035439655 0.928048170706576
Ni 6.701594958152852 1.0709263384093592 0.009418168300223346 0.43215307623146215 -0.9005173122761588 0.5529676711183896
Ni 2.228800088295048 6.589495518573284 9.140322350801288 0.5401586922791795 0.21872554570280398 0.47493803260747236
Ni 0.16014789167790147 5.247061614438906 1.6014053940696549 -0.1906943505972006 -1.4938844702575176 -0.5557215797144429
Ni 6.37903903225006 2.281772746544955 6.868280924837163 1.543144235724594 -1.2067953483786504 0.45108770835243606
Ni 3.403692983865893 4.539246691490355 0.5128889743678875 0.35048969762269966 -0.2828555434134935 -0.7301842989441295
Ni 5.923797308146935 5.5183785657322515 4.942949904019974 0.09095740231617884 0.6848601210860334 0.04347478335418319
Ni 5.176497967208821 2.8494769853355955 9.540265920588086 -0.16104027517619363 -0.8033039017479391 -1.3324258765969825
P 0.4227446865660582 5.643122095946178 12.571261398455519 -0.8437260143187276 -0.44441903808300876 -1.1630518847441131
P 4.1252956840388455 6.192618118073125 12.50334910720124 -0.42856407332862323 0.5604207849623252 -0.13012353099267912
P 2.7355440164608815 8.667800974623052 1.3860700859833512 -2.1370582673483582 -0.19871002181282552 -0.17311854649696634
P 6.348486261916065 7.740897454659764 5.612098235659619 1.6044383066483852 -0.7352493721718628 0.16820079748037484
P 4.676824926770314 1.277978995595553 12.182425203908682 0.03092368616204997 -0.06399707167725106 0.3929113571220201
P 4.425104954428569 6.174182979466963 7.8391700864408245 -1.1902330731445954 1.613341779785602 1.3267046578424895
P 4.846335617794476 1.3003625760006714 3.516892541022548 -1.0543610697039132 -0.06209034157284145 1.5173403872876126
P -0.012028678326383938 5.510899218508482 3.766662800034601 0.7921304016296229 1.2882352981226974 0.5159648686417952
Ni 0.6885837421682086 0.10406912587948218 4.4167605807601085 0.744381673490434 0.10240318225927525 0.9819004406403411
Ni 1.795351947546623 6.475589780331667 4.834956843911323 -0.3128451477970483 0.5501440856266654 -1.1575561517368644
Ni 6.437121972644363 5.9921008128300315 9.291957038885531 -0.6260636197731153 -0.6048689879733712 -0.9846605198839817
Ni 8.716852421707099 2.4489779106336345 10.11600773458097 0.5420217136298472 0.9158359449111001 -0.5633251030933136
Ni 2.882834510878503 5.216608689759598 6.483974999949772 0.08586713227746502 0.10989717664347524 1.8099396403514314
Ni 0.6673175254078064 0.2532911798713979 8.9319889461718 0.4233084813566387 -0.4323875608397715 0.30237201617986637
Ni 1.632040763990707 1.4079689611193564 11.198557014883576 -0.0582830520116093 -0.9546022670460205 0.2248008053626064
Ni 4.3385478486932865 6.988959829217588 1.5737327170294748 -1.0888570465982537 1.0701389013634601 -0.6388687419575836
Ni 5.950655789257537 7.8951317605169296 7.7207222785987515 0.3847331921866019 -0.05686071774278595 0.4190173101804526
Ni 5.40842126928959 3.0498127530247143 4.787144390633156 -0.3156648766340306 -0.6087685801380934 -0.14281783863089598
Ni 1.413433241494004 7.5175154944935185 7.061165483623378 -0.9668394325421608 0.1532662876577296 -0.4123607240958833
Ni 5.495504833931401 4.5017864172276125 7.4425622692083175 1.7703289679383447 -0.28125528880590916 -0.4201208276572765
Ni 0.6353968696046111 7.449919986270925 11.343814288696679 1.6294847080940518 -0.18792475827186345 -0.25201721787639825
Ni 4.73764908422964 0.3598410164259485 10.082901638550316 0.0989044250773974 -0.6822314252139348 1.027313578667818
Ni 8.376378739226974 7.435160983132756 4.799419052345176 0.03513001093391369 -0.6303812733118628 -1.1667115929838874
Ni 7.8386372737199075 6.240380648523949 6.650753550786611 -0.7726897764065079 -0.7971962461883044 0.9990553551530729
Ni 2.4984650478472212 5.5828334742710775 2.5460433176807613 -0.8988216697412907 -0.623743713390687 0.4134318456728751
Ni 2.472704868938168 5.375562972020115 11.343986749372954 0.17993942607354171 0.1671345609993896 0.38442954490325404
Ni 0.7712287136153303 3.45238135584199 3.425704412285363 0.5758700296378598 -0.3414815805868184 0.15984702619904084
Ni 1.3449028148684392 1.1048284766141916 2.3231614934757165 0.43732742134355007 0.3214357176795367 -0.5384087994676083
Ni 1.2645542934791012 3.348305876148119 8.198620797125727 0.4630276543231316 0.22523994978255402 -0.4400648748793712
Ni 4.043676399771683 2.8044556719497935 7.111130064603918 -1.6246960284561567 -0.45540870432529307 -0.39214465415932465
Ni 4.321746548072899 7.222099432909991 5.7919229828128715 -0.9591384643534772 -0.7530671170795741 -0.7813006580039705
Ni 0.7066113289656966 0.06963962108035229 0.06371151225529846 0.26921121315718155 0.3038750830879541 -0.1028793505647454
P 0.5185320692332006 5.763218264778343 8.114872077350437 -0.2969521307158757 -0.5386944490288271 -0.7194075200435998
P 8.527218292824806 1.7864384536464502 7.912741810940275 0.8418197984349503 0.5453188963238802 -0.6304265247275014
P 1.883379507469104 3.380882790208934 10.283836480167553 0.6519695410055998 -0.11067750645292553 -0.45999940901976916
P 4.083968659876436 6.2374760476603495 3.799807926639358 -0.334140823951031 -0.21102946261012687 0.4235537645982254
P 6.969099620812722 4.092628001201043 9.991408526722452 0.9870475320589194 -1.369042756489068 0.7487535773058847
P 6.598045937365507 7.913385361569117 10.226791026894217 0.219059532003455 0.8248834276909277 -0.41660201587074064
P 2.5912761223169434 8.59925239424209 5.518200658929357 -0.9383644650309194 1.0160279784516697 0.7782772977966145
P 6.920148019383362 4.2258311814302045 1.300366206751751 0.8267870724715439 -0.8288239003959146 0.7732407638139714
Ni 5.355058305298638 2.9955148706307893 0.2935997783560083 -0.9910569103286286 0.7496632336043476 -0.4705722994396089
Ni 1.573104597092721 1.2640641420833687 6.7346084700309765 0.5492724816549895 -0.6424896265396226 0.10600864022234646
Ni 6.947233422436432 0.7438991425521629 8.8945785947364 0.24369147161952226 -0.3561276126347673 0.5961303225487926
Ni 2.9368328563083685 1.3386669998893976 8.8625344933965 -0.7741676465036151 0.9872200530810418 0.7541469804073141
Ni 6.352643471902094 2.065625057904613 2.3114450597421694 1.5369432491202046 1.1031289831362359 0.5016422813715361
Ni 4.509474532638453 6.9772869644969955 10.435682659502177 -1.5316380348572072 -0.8557675188642939 -0.8740817437924494
Ni 8.444119477492748 7.216480845614464 0.3373085752265707 -0.8198237537798333 0.38027901306999023 1.0298502290467424
Ni 8.055057268691213 4.076335005731787 8.105758892140893 -0.4591123784291254 0.2198187787669827 -0.04790710809392395
Ni 3.1875089877147564 8.437084897276215 12.51497386447003 -0.5952659176659685 0.15683163641148473 -0.7410394964910786
Ni 0.31066158536634936 5.018278912041904 10.305145358253139 -0.9179861584848836 -0.20925977230421378 -0.6376657227884179
Ni 8.691881931157837 2.078614069891525 5.5521164124507365 -0.5031692595390238 0.48477275930970704 -0.28592415503648827
Ni 3.612706246635017 3.1047641706129485 11.621376131846766 -0.4182596060788216 -0.36927494865000277 -0.37552607176603714
Ni 1.0839516579070658 3.5057080123221485 12.395090094576014 -0.7568111575030386 0.10123564431373533 0.9458314628319258
Ni 3.6043282885190706 8.337829239640381 7.7293834352988995 -0.7988715770081983 0.0929878024826463 0.7723167093378054
Ni 5.548668106612982 7.891564547581321 3.3824884898738428 2.5835892095680473 -0.17861942171053752 0.26756210758953275
Ni 3.4912031617595454 8.515654350636598 3.5296591695058406 -2.898876391147685 0.7921062332599068 -0.1326558104962296
Ni 3.612860553555896 4.461140158892608 9.156331239998574 -0.6001489567898826 0.7065198654476542 0.08445971040697713
Ni 7.482306285900066 6.4005330786407 11.614680119168398 -0.34359785559887274 -0.3741628728699234 -0.6973693092966378
Ni 7.867202207837876 0.005589541286890454 2.0714387980706626 -0.043323345377983456 -0.6525048446837795 -0.36591323126662145
Ni 4.646453693990295 0.654813218690008 1.4284881508451515 -0.04089442422151667 -0.8863021971180415 -0.7398678447804806
Ni 5.940925376364477 5.862746228745141 0.3571152300530138 1.1758336098898137 0.28931235478243084 -1.17684199654967
Ni 8.303164643708854 0.10065621986475205 10.937879979628706 -0.5278287099589168 0.32799383051302866 0.6061324280668271
Ni 0.2545973425722481 4.403465677994749 5.889978677216932 1.8382528854738278 1.155835569501332 -0.22005403470624038
Ni 7.36991638623414 6.501331805485322 2.6941298542725627 -0.32690933919959825 -0.6688120664842352 -0.7287203128040933
P 8.42086451682855 1.5440585884567204 3.3941395700879586 0.1961358333277461 1.6005081183560435 0.3579497534451706
P 1.730270734446583 3.3065431618561685 1.4127987677428617 -0.6118793578529333 0.34777332713280107 0.07163684761069597
P 4.9887881363986635 1.0153304625045134 8.021625312751175 -0.7463884195078178 0.12110178711004306 -0.3519832514490906
P 8.568835777073577 1.8069885047564211 12.430215795894638 0.6791227043816239 -0.5285475904028122 -1.5626103148690056
P 6.357263602650757 8.114374664452546 0.8710262608497806 0.10284026979669386 -1.063480001286046 1.286181243807146
P 2.154342460532199 3.2353078256763754 6.034904644994029 0.05451330055653192 -0.5045666541071827 -0.862359827369831
P 7.281416828671324 3.997538630428935 5.990838219142135 -1.7002553510497105 0.7038135222600846 -0.8113126309850285
P 2.370871378035888 8.558733212194868 10.2528425735774 0.7189933153243165 0.22579299407254663 -0.30596693261997626
