# total energy = -340856.1442060145 ev
CRYSTAL
PRIMVEC
9.47114761856721 0.00000000000000 0.00000000000000

0.00000000000000 9.47114761856721 0.00000000000000

0.00000000000000 0.00000000000000 13.86198189804200

PRIMCOORD
 96 1
Ni 1.9613609992703125 1.060853763459343 12.262143166090189 1.2620907785168458 -5.033800128651544 -1.8515259484336501
Ni 6.710516388805726 6.582172868654332 8.672915425845103 -1.2607162667668221 -0.18823046243774036 -1.001061072729192
Ni 5.839426537216603 1.0800517794985192 3.4001220731280597 -0.4109718141681567 0.6911891486278549 -1.9474291247908784
Ni 9.372524468751983 8.907566894309339 6.005482272594832 -1.2454225738325453 0.3119984835260369 -1.0560693106442716
Ni 2.158502935064813 2.0826390433658486 8.279414818156665 1.1249000562647402 -1.0263072488904905 -0.2904955764572545
Ni 8.341192272137294 1.7450494608792193 5.54185350015036 0.1783718244761057 0.6720349442969071 0.3458581123879592
Ni 3.116642103583423 0.9559323911445952 3.6313677169412415 1.8068000662811852 -1.125175935633946 -0.8717469250116858
Ni 4.310423422597694 7.185627033398344 6.775445840683661 0.16049468708536876 -0.6077036292086888 0.5736377978732314
Ni 1.9569474445222828 5.8053019926733604 13.456559999103588 0.42600736834504044 -0.48363890281558 1.1492484032021175
Ni 3.5928229878467 4.749799427567315 9.789469955031135 1.3411434589756386 1.6127568538164097 0.6705257067412324
Ni 2.840065653471916 5.130871048354812 6.31162385682962 1.665935237611602 -2.743936058221642 2.1413718071220473
Ni 5.144784164073386 7.69488116482926 1.440481981363578 0.7213674719834479 -0.010149686839492198 0.7829705895072259
Ni 4.7304404020201645 3.3470845940862333 8.241516968438283 0.30409336974634726 -1.5515491719588377 0.15861212535067523
Ni 2.0564418493035093 3.61404782945686 4.144635720694507 0.6242738748625442 -0.5544247152798902 0.2851929332974185
Ni 7.987596450328411 7.975814342803628 13.130193726437591 -1.1705183683244873 -0.1426543164698382 -0.14540205441830442
Ni 0.8405330883196642 8.986177418791414 2.135355450506477 2.454722948021237 -2.128680070586992 0.527289292515679
Ni 6.030800544166575 1.9203698727692988 12.081215834863558 0.05589552561603923 0.46537172907527596 1.1507021049295085
Ni 0.5666606508273905 5.288139453056598 2.2890011412788187 0.29358424268490724 -0.5818085066094818 1.0537067239493658
Ni 4.438236558487523 4.524755491155443 13.657739485089257 0.05218079576861336 1.220382600144782 0.08516804932791137
Ni 6.930275424896997 8.603202097350797 4.013210289137514 0.6003708429927016 -0.09847119419472074 -0.3871687982112881
Ni 5.6002042929553735 4.091346309128435 2.5840539059878704 1.0573605186518693 -0.3426216077285325 -0.19503694383661246
Ni 8.877732779596263 4.881012705419683 9.001443961491733 -0.5875130131934269 0.16557467271143742 1.8963986405766244
Ni 0.8535691757771493 3.430373865447119 6.452489181127731 -0.14466209092848634 -1.3426113017704167 0.19088615489303257
Ni 3.6112538409361115 -0.012269871622473005 9.665737936611105 -0.08105891225554428 0.14493025698820847 -0.0002609669708705183
P 6.463319438325954 3.1222679652150314 4.63794138680309 -0.38041142488279645 -0.34020142832281414 0.5172388502582125
P 8.959771859483459 9.156856968392791 3.781077198800962 0.3912589091202616 -0.26198024262638103 0.5899815293385775
P 0.36932455650856666 5.701734994455111 7.402118523592469 0.5456639383681248 0.6258651306090641 -2.6183201852913296
P 7.443819986158078 3.237228753909418 8.903453574937945 -1.9471457892225046 -1.3483129801408844 1.0860185487081944
P 3.7383187561712314 7.044241743100948 13.95499523871331 -0.5133845095091287 -0.13072568335305226 -1.3734144031942024
P 8.182228532028002 1.5339944093661446 13.172681294248022 -0.7323645944249 -0.32797866100437706 -0.31090576468249037
P 4.29302492458883 1.3311603139073396 7.393897567538199 0.739132766386669 -0.9822130867847536 1.170816102070564
P 4.060669262285371 1.5463447857426051 11.300800855477624 3.563405771096166 -4.695029519237985 1.8128478151371616
Ni 1.225850624543945 7.710319135299835 3.9600212717352394 -0.9724151268577254 -1.1400608231655784 0.21300818360305254
Ni 8.089117680680621 1.556270548351908 3.250260105793139 0.6440939949122649 1.1381566641643301 -0.7263109320316524
Ni 3.484956088650756 2.4069500770182763 13.37885018075142 0.11540010873957546 0.3776914548484721 -1.1897314509178283
Ni 1.9771115176093108 9.348600350096355 6.644006202405376 1.671191858024851 0.7168986375788169 0.6794487202624749
Ni 6.602658960757311 1.5732902004596534 6.975182870900823 -1.1035264756849705 -0.00674966001900773 1.1303680213578469
Ni 3.3727324615919505 8.057446163347121 4.690589601681516 -0.14073884461468017 0.53126601777524 -0.16082970182728432
Ni 4.00424963646131 8.836126028505932 12.383310397759647 0.20977245027457422 0.5394279847607419 0.06636120103405346
Ni 9.4427151430817 7.916685968786569 8.180759557046416 0.743291525750049 -0.9522116553266569 0.4139908035001386
Ni 7.510345326394474 7.619670782309724 1.6729749753061918 0.5914208328882653 1.0328761603572598 0.7123187315176184
Ni 1.0398183447997424 2.7919711663249327 12.673663579065327 -2.688992097885595 3.8505121193662144 0.7875720928349791
Ni 4.055232823604323 6.536938668060792 11.670513729034836 -2.6168716257702607 -1.8673228062565908 3.1690898203171356
Ni 7.798107201736503 3.8132355331173997 6.93266783676256 0.5981159855202538 0.00663653147991115 -0.780211795815166
Ni 7.372426476092312 5.349171527726776 1.4472604816493395 -0.06647510090409842 -1.3904405054385538 -0.5492112893997508
Ni 6.042052267429793 6.284229509719746 3.363290674621327 0.26894741797283356 0.43079630509325156 0.10192907083633414
Ni 1.3848427780958206 1.6106254640148743 2.594602870104514 -1.4720110672231939 2.4491523959119945 -3.966107117725415
Ni 1.7765126129671045 4.357835987122664 8.390186518299434 -0.20017992149013267 0.743279698675507 1.478829375696608
Ni 1.5741710171797536 7.779288031598444 12.230343788265062 0.24085580194294004 1.466892772160022 -0.720339802049882
Ni 7.861753313124398 9.32033844587292 9.39088239400543 0.14958883880614235 -0.1034730182846863 0.1209853161368368
Ni 4.629620036585023 1.2068988583404958 5.180832298679557 0.016836097720732295 0.8806748236289349 3.181468653597463
Ni 4.50382425511865 4.516818669527012 4.349154733298536 -1.299119292025053 0.230234574783668 1.501201572744221
Ni 2.466248931690838 6.982745582201899 1.8756234362734487 0.014211001393059398 0.0026639199854083155 0.1189654574933306
Ni 8.955623496866211 0.08028975893878071 11.61473245855416 -0.15789093091393455 0.32317275497530146 1.1811498798964046
Ni 1.7077994376517502 6.998221437262586 6.20069967121165 -1.5836941321224982 1.377334821294531 1.0216946898191435
Ni 8.134598131109888 2.804331013848921 11.074698044772123 1.6465992562871514 -2.137405880495764 -1.6600844352577795
P 7.577609416138051 8.888586714663306 7.29465983085498 0.4182650053954603 0.13842793709331644 -0.8335534446611
P 4.794560070784457 5.380861987355332 8.008218926955793 -0.20083066770025412 1.6514074763090723 -0.7590385041716605
P 8.276826353537272 6.309972088700744 3.521927660140903 0.0626950650363759 0.1505799990748181 -0.06849213133412721
P 5.386923521773228 7.618827850179735 4.982162666788796 0.29678937988576626 -0.8927479527433851 0.5361020057113025
P 0.7984309962136208 3.3887008163240924 10.51352308259293 -1.6856867092069163 0.47819819141598285 -1.4642625336260267
P 1.4329467363903328 2.8658934727806655 0.9606812245151146 3.185384700822417 0.9955519699855049 -1.048000674703524
P 4.52356212656692 0.23121060056732787 1.807270164564157 -0.33050656963255337 0.8299544144559319 0.2745459951065336
P 8.214799808376657 6.943875992747148 10.059820072757761 1.038764757927553 0.11985531629745165 1.4396071969711917
Ni 7.882798202931527 6.917546202619418 5.7984391991746005 1.4674501873253887 1.1948885696387355 0.21377848611017375
Ni 9.16707633657546 2.036059939823338 8.203798123408179 -1.1001752998245504 0.17083052179373803 -0.42689491315631645
Ni 6.228927479303984 4.048034751483072 10.759337245533619 -0.6378217887503079 0.613976092480962 -0.6298670526796055
Ni 8.679889978884693 0.33712644337251163 1.0854171845731089 -2.905790858879331 1.7285778521434874 -1.5436358306490319
Ni 1.2667186261270955 5.951129251161371 10.832390100646286 1.1556874739592418 -0.24278901440991088 -1.2020238951319364
Ni 8.8632135104359 3.0933999075498075 1.168645840589816 -0.591782072882426 -0.2834921485562279 1.1564582906869956
Ni 6.276131678583339 6.737082957621657 11.493467674065164 2.1573578981376587 -0.3706528028341358 -0.9074464352958242
Ni 5.623711681119771 8.870184275016479 8.085998831799664 -0.9954930917231113 0.41472151101857613 0.6777677330156263
Ni 0.9878880429039342 1.1595336495531647 4.555324566916688 -0.40661945073673195 -0.5319738424755419 3.8891933379864954
Ni 2.9355442917012877 6.933770278334815 8.91971364101395 0.5009180016110019 -0.10083763754436828 -0.8928646808269074
Ni 6.489895478289411 9.071607169493618 11.302463988983533 -0.6328148224540198 0.23076859291026705 0.7084319948687026
Ni 2.5277735060324704 0.41847412949016555 0.6162913581034098 0.2876848464813368 -0.28973375859056555 0.48159101914761576
Ni 3.1595464018850845 4.424001423752998 2.0023634911483597 -1.4771314191688947 1.1537236653646517 -0.008179964707631075
Ni 7.742918825091076 3.6558629457928062 13.134588338890564 -1.0191652385290706 0.2928712757782827 0.4881100512130562
Ni 4.094216066829408 2.4280423225630448 1.677424520414828 -0.06432334466841826 -1.583023845528351 0.8836878994236459
Ni 9.384789604800693 6.445977767202257 0.4692641052236073 -0.7500378433349469 -0.39796614593710816 -0.6489893753313533
Ni 6.1455719099104025 2.91050257763736 0.8388093394695754 0.7603106860158648 -0.7776093251953125 -1.2451114703500297
Ni 0.38897813474383774 5.06200633467901 4.973305249620648 -1.3703131385610594 1.9100031187339366 -0.34550612836517913
Ni 6.0668761451005775 1.4895747274600093 9.7868502356249 -0.2153553436789904 0.8038644022370993 -0.9712509313462949
Ni 6.251876069764233 0.4894802696220393 0.2377485337058791 -0.12123908401885573 -0.763426091716395 0.20271297232463154
Ni 8.81913478984077 5.033905439963552 11.638727610816249 -0.3283201035041958 1.0847795340947706 -0.3932880237351485
Ni 0.6822465352586222 0.7262494866735273 9.836448740999325 1.6097738599286857 -0.163968247456266 -0.20719646201728187
Ni 2.8453694960875744 2.852918000667359 10.724849008925304 -2.9742135704281036 2.162581351320127 -1.0119440381902831
Ni 6.488247498619547 5.278725132413805 5.690898107453619 -2.1665243951282753 -1.0946430571524115 -0.5476136058953278
P 4.729398575792088 7.540539344713612 10.150948612927541 1.4618842632018372 2.855997846616604 -3.4439880565567655
P 2.6610609651934607 5.881156413224798 4.441448224614254 -0.3622823193822535 0.5262845054002485 -2.689974773513838
P 2.8855366327536554 4.7721513357333025 11.936316748833287 0.5687989817236915 -2.0581341420476296 -0.8149391719940223
P 2.5090490473696923 1.9958075628295053 6.070716695423165 -0.34740977314579524 -0.26059390380181574 -1.3653812484770806
P 7.282696824412413 5.741305448826931 13.08532227079437 0.534305318822196 0.9290622137933869 1.2701298467712383
P 1.5516391572107353 8.14689168060118 9.923404293568286 -0.9049887177839512 0.9719410154347843 0.5902674360101124
P 9.450462541759572 3.400066193357645 3.3912229829107883 0.027170132656888692 -0.6271288278128361 0.4438086581925195
P 0.5253541351136958 8.420143757930374 0.06672896990824667 0.5522901854353908 0.6679708015298625 -0.051939112071452485
