# total energy = -340874.11920318747 ev
CRYSTAL
PRIMVEC
9.23132240231716 0.00000000000000 0.00000000000000

0.00000000000000 9.23132240231716 0.00000000000000

0.00000000000000 0.00000000000000 13.51097345216235

PRIMCOORD
 96 1
Ni 8.670796410344114 7.68034014676451 3.167039590747563 1.1064117676525653 0.7364505915688155 0.3467945081592995
Ni 4.836142052036364 3.404428582496397 10.505308474008638 -1.7559243624772405 0.8171312945493346 -0.908581577341532
Ni 6.671541245773958 3.0630081272151424 11.843259402943179 0.02532896568309186 -1.2659417768318195 1.7335480516645692
Ni 5.126107116815044 8.795345410821461 11.421528289912677 0.5092676591272778 -1.5094784680410325 0.18976875345913768
Ni 5.817570082406151 4.05310436922503 3.8025552044047086 -0.3385968028398556 0.9686183788194543 2.7136710886895132
Ni 3.2724575988895075 7.045040546049194 -0.3846304287050888 0.029737636273748782 -0.3039121069734766 3.1008450291071243
Ni 2.6529250966633193 2.7792649736669492 6.691201192877176 -1.0611613804551983 -0.11697310965365018 0.6696474179013371
Ni 3.0077309692801917 1.2205746658846235 5.007949883898512 -0.14519379506224028 -0.2840858162761688 -0.12907786333698415
Ni 4.478945266943681 2.0721918420658216 8.443939434207836 -0.7059503660974293 0.28144400777794754 -1.1871847732365748
Ni 6.541093430346639 8.466082607009868 4.295192104024782 0.7707725047791371 -0.2251147370585994 -1.304115973908696
Ni 6.270135658184536 3.876167614692766 8.680421910106768 0.40333795177198273 1.4486556803267052 -1.497560633557524
Ni 6.373258759602594 1.8334052281207025 9.723010220113569 1.2226348865140686 -1.9241277310607767 0.701470733059521
Ni 4.58165295885822 2.535336513200493 13.530969440592946 -1.4713330673195626 1.1140222330099716 -0.28853922406183213
Ni 3.9674192356324767 4.360885886043533 7.777186872150509 0.7939877665533358 -0.8423571589956589 1.0161863584064046
Ni 5.860911140606651 3.4087396100106964 1.7597235829153925 -0.016396953300784667 -1.1341871379936208 -1.684816647897137
Ni 4.44404163732577 8.043158807138152 2.137760078101287 1.0160120376120698 -1.0430620997513262 0.11125806154674389
Ni 1.9068403970205912 1.203616726818741 11.882860852479775 -0.6208100846836598 0.1807015010505469 0.9370894549732376
Ni 6.320852542903077 5.997839344288871 2.2967299100402325 0.47428677217671866 0.37856794391615445 -0.4762341257110766
Ni 5.345738736986779 5.266958632474943 5.968297266663047 -0.7007564806013157 1.00931894186261 -0.1477402156331778
Ni 1.7732908573003285 2.1574246408656546 3.0121638502488564 -1.5699677836753414 0.5692268132897293 0.7057709030967716
Ni 7.311438044994886 4.078804370509417 5.957420922728686 0.21785368462081192 -1.0637365973815422 0.018474404655103666
Ni 6.242930951365181 6.495739943884646 8.175341188025723 0.7625904831889769 -0.6603168845290305 0.2619779286335359
Ni 7.927767278382827 1.4920955487070529 5.7193432743362385 -0.6173545220348917 -0.9275097817046025 -0.5055698985607163
Ni 7.636639066994293 8.733043216615886 9.337893300723248 -1.0110315536783427 -0.42409472470336 0.17297456471993436
P 5.391018372870368 4.664910254685762 13.35400314582932 -0.2641438259366031 0.015441531366050825 -0.7097080333676486
P 8.119261828182864 4.854124667877594 7.83182522258227 -0.5232017527098666 0.7674727509819428 1.0713236657001808
P 4.002092082192877 8.767429892184973 6.914321329746241 -0.8016026027861162 -1.3258104281629939 0.8290892382421593
P 4.743782672420601 1.5408000051641002 11.600197763640733 -0.0909319483948821 1.9395556355800727 -0.06230040070111851
P 5.235258271695281 6.576486320046472 4.142747893820007 1.4792343244445105 0.12076548681654684 -0.20455233952621546
P 7.792149922467269 6.669298034454955 0.5219749650230565 0.202763880167225 -0.38421177246549315 0.7224144251907235
P 2.5796560915648388 5.383070204369702 6.368235074006702 -0.4423706401944123 0.6042737775915334 -0.9108765440232958
P 1.8289003428380946 1.7610039673184614 8.542286249467654 -0.015230443796509254 -0.07967128787939827 -0.03503076635188805
Ni 5.579669675401874 7.123709874693423 0.2251445658495493 -0.012281131360198202 -0.6959549454476144 -0.447594607597513
Ni 2.3783024895479468 8.24551862328579 3.2585229178770145 -1.955871856241593 0.1492795350958397 -0.27803626764797923
Ni 8.181527097099238 3.6171551735874137 10.161440795185541 0.3517837338437748 1.6238516781779904 -1.296910200188876
Ni 7.339519727432782 7.617871788757527 12.187006151444141 0.14573321250547805 1.1268080719207303 -0.8512917424811274
Ni 2.612094958128535 9.15786866888149 0.686181726103034 -0.5191772049315059 0.29407095251333865 -0.4091262763189857
Ni 2.845508942494806 3.9448578839302355 4.53763339846864 -0.04794850285482065 -1.3483415193859745 1.4912915127193607
Ni 8.374267875409831 6.4220001413488434 10.341771906927672 0.3260313074700192 -0.9849040033533555 -0.24756046765662526
Ni 9.189338246603642 1.5121552120658786 9.943873298680181 0.20473385940940225 -0.3677464278206183 -0.697046121629264
Ni 4.166769640710176 5.5873224415889275 11.792945003876936 1.1258505931034675 0.02355927537717878 -0.8764332747437615
Ni 9.261785664017387 2.663661124498715 12.06563734149929 -0.0935624440391937 -0.8131373428985932 1.6251254026840916
Ni 5.243197208873648 0.34918122793922296 0.02185607867848855 0.3198583458900878 -0.5382861578468149 1.3926891922634144
Ni 2.080130779244188 7.862335665917407 6.166191892213969 -0.05951383909491686 0.003604686632122824 -0.8820794172859454
Ni 5.09567144719054 8.9717098233711 9.020952465918262 0.2753093556351194 -0.533289733073488 -1.9728401086648155
Ni 3.840156226398804 6.617048750234544 7.617743473377551 -0.0007379066072890517 1.5603289750339966 0.3052200271516227
Ni 3.199419376848537 0.832505569622626 10.03750475450894 0.6524909607267085 0.66195133480866 0.908641741155506
Ni 1.5871135491453374 6.434185486785406 11.461615307002276 0.01622648916119141 -1.0221379480041495 -1.7529102582412652
Ni 6.94267441305977 8.269335434820889 6.599800024516197 0.007690169555406111 0.7217163706824344 1.1524674243600475
Ni 0.2569520099678971 0.1865751781461395 7.642306175754524 -0.03681459772518821 0.6979848313934496 -0.3742778011812328
Ni 8.776328886882585 2.7905641121626705 7.496725453680116 0.9288413560318327 -0.6602670051277015 1.3487554669949418
Ni 4.264603194450091 8.466082607009868 4.829470575409847 -0.352264015914303 -0.8978035128894214 -1.0139433280084988
Ni 7.467355078649081 8.63040937527975 1.3913735142193349 -0.7002715705450971 -0.4105234137768285 -1.1508897954602826
Ni 1.3641309589785477 5.43916894998939 8.492186940211012 0.2866445781422805 0.33717498279166447 0.8587343148021016
Ni 1.086508172115537 6.235924377739156 4.5883262817491985 -1.152360723578854 0.2481754755328048 0.06042555227590883
Ni 6.363427401352641 5.188695482011933 10.994527938113093 0.5204077349044973 1.1255981107730293 -0.359708130897174
P 8.636262033618221 7.895476112975937 5.357303737564752 0.6179538461817873 0.1881003646177793 -1.0773019947708027
P 7.814868206648617 0.8649915159300551 11.843043390001348 -0.4835049483408769 -0.062201156119092875 -0.8757997549248207
P 7.424614056398109 1.1459209624410784 7.92891473174477 -0.8055294486443482 -0.4148328397854598 -0.7432838124405651
P 5.819028631329619 0.6488124102986794 2.083013721198611 0.4484842092913179 -0.16280713726862928 0.145523153377201
P 3.201376417176228 5.014777369871907 9.734778309782152 0.2545911492511615 0.4915095638129084 0.5919170557983935
P 0.8233139420080918 0.49893635395788344 2.012459647988685 0.15956369063066714 -1.1229051373218983 -0.17109457408840212
P 3.826087691212955 3.1126541785468334 2.747267364309213 0.4189885138250462 1.0343612295432187 -0.34694131814980894
P 5.78761444154127 7.175829920401629 10.212039518978635 2.4097803218722755 -0.8402861353992431 -0.33451080569594
Ni 3.0100387998552987 3.7692781337761336 11.942687206044376 -0.7467121213958237 -2.0157852447677738 0.9365209840642774
Ni 9.193852363208551 6.94959790478509 7.243313655814433 -1.1097871118827016 -1.581208389586167 -2.3288142264408536
Ni 0.5295215710036548 4.645690641656275 6.409376308103011 0.28837158813571623 -0.2710809193760686 -1.1206456518637604
Ni 7.480897428463806 5.851513654504818 4.393376448012113 0.3843282434386994 0.9174295146504651 0.631759384606312
Ni 5.8306416347835555 1.572675761067471 4.022676084658366 -0.053954085618952236 0.2666380531133666 -0.2790618806990162
Ni 5.2920124411983 0.9156594746404031 6.213804283242876 1.5253555442826054 1.8560523755490939 0.8608166512524271
Ni 8.17251732653402 0.9973059047265208 2.969184659882533 -0.8161686735257493 1.1107515326785 -0.0509266116465381
Ni 0.6936969455878107 7.2257067547908305 13.441472694022547 -0.87375495658065 0.6127756444149576 1.3891426125627366
Ni 9.217124526727924 0.31945821639631145 -0.1777574190847726 1.2924238822827483 0.03568048412074501 1.164651368020749
Ni 4.112637166740478 5.111484702291169 1.5566668019340724 -0.06589557425154459 0.537304767770152 -0.5516409818871661
Ni 1.555939373736799 3.5518804936011015 10.23038769518296 -0.7265893825040196 -0.35198145167687767 -0.9238865831297186
Ni 2.5008113677969 8.67876304148938 8.395002348428818 -0.944421984078909 -0.21288142821720113 0.39596119969193744
Ni 3.7039665285006196 7.328765236952786 10.231035734008453 -2.201219375407299 -1.1157530996581493 -0.9154631349527138
Ni 9.002200880929408 5.567059689139492 2.128194581933586 -1.0326910409296473 -0.2683918025796797 -0.6914629711145317
Ni 7.456360573789274 4.459337938377576 0.2884197414255891 1.0186654160745168 0.5250313497194378 -0.4242201945376307
Ni 1.9949256744112558 4.459005610774761 2.3747964333382447 -0.6028642988385167 -0.7645602053208381 0.34315074075912516
Ni 0.6384945613634933 0.46865669368025614 4.5557110969295636 0.334560685097269 -2.6684425558690172 -0.38677336254508227
Ni 0.14055611334628595 8.54349647582124 11.097088852003056 1.1598133232021575 -0.04740497164652481 0.11012317661135226
Ni 3.241781914885192 5.996270019497799 3.8132423062319125 0.7042197565595678 1.5608714778010278 -0.5667243585828498
Ni 3.654006612210714 0.9813541797913846 2.618899365796179 1.3189954621236897 -0.27696103230592944 -0.17184944997655566
Ni 0.07923243930455619 3.1477424346107523 1.1268665900807693 2.0248368134470804 -0.22372685557213728 0.2528826512004871
Ni 7.552661728027318 1.9201519637778055 0.360992704822618 -1.8607847480277566 -0.7664918751259122 0.3921058305015892
Ni 0.012823229807521729 3.9954547614588702 4.0987698743807774 0.6785298079926314 -0.24042771326658594 0.37671983496382216
Ni 1.6780236111599325 5.038197234548088 0.0585348915747711 -0.07923162923881838 -0.4959071786599718 -0.3306353819009338
P 5.1157311105493655 3.0854217777605766 5.682647845059816 -0.5494326613819377 -0.27825224031352724 0.644892065333528
P 1.7156597121787691 6.497401581898723 1.9525520587878407 0.9277270399217312 1.2136110857489035 0.014203288083575537
P 2.0420054181434284 2.69562919362509 0.05651877078435806 -0.07778152705585313 -0.02859452380824107 0.3042322093170567
P 0.12453607662612673 4.7030171531419205 11.793539501033083 -0.17769562434468752 1.7468105731014305 -0.6942523609342108
P 0.3127221205136906 7.737389718581142 9.01483209923308 1.7157102521522003 0.7275388909014825 2.771550734615117
P 2.5944815951793228 8.38247452093491 11.822790792006444 -1.1339104872934664 1.943376037767427 -0.952955732581533
P 0.795838757445334 2.330105755817423 5.329551613332983 0.5680875574789636 1.793789770064446 1.2214210687116256
P 7.829407539271788 3.5586839781365156 2.63451783999627 -1.0021177961284806 -0.08951552766332971 -0.39244804433235636
