# total energy = -340889.98039774835 ev
CRYSTAL
PRIMVEC
9.06549342122511 0.00000000000000 0.00000000000000

0.00000000000000 9.06549342122511 0.00000000000000

0.00000000000000 0.00000000000000 13.26826597608194

PRIMCOORD
 96 1
Ni 6.53353743424692 2.035429930213083 11.070828720876728 -0.19961402168433365 0.9332608252557669 1.2075309409930943
Ni 4.696986300644525 0.7917792965674987 5.9207644659680065 -0.3084148799398366 -0.9617152239417178 0.41487114922256296
Ni 2.7488480074340997 1.7257798684102181 4.6440129958713054 -0.6371774702980898 0.5288779771590376 1.5430539900036326
Ni 3.2923424743136667 4.3396517429818635 4.36730331128444 -0.9709066606329988 0.9134787575328333 0.37732661530988565
Ni 3.6222720450972092 2.6957151499751135 2.6264003866017287 -0.4891266654030286 -0.11794884330335816 -1.1840778521764768
Ni 4.97685621626879 4.562064560743127 2.5734996057765844 1.0227403574748386 1.3482885546608523 -0.08760314113196525
Ni 5.383670237506123 4.375496704318296 11.784316602397766 0.2928386227681344 0.23577324521371007 -0.2564292309011648
Ni 5.801426309409383 7.900323759682244 12.374754914317407 -0.6638706633185599 0.3379933649279018 -0.5197834710569371
Ni 1.753910094770094 6.68781400279103 0.10763641753660384 0.6668405445801612 0.10972054185629491 0.40589208565240414
Ni 2.622266521561412 1.5066940867669283 0.40091238496266957 1.1298016073314154 1.0981225310605798 -0.4283406444639074
Ni 7.910903190607793 8.97911748730882 6.772786686553966 0.1814887728385326 0.16288529880473238 0.5888921529291407
Ni 8.688033556213343 2.415210649805185 1.2648094954966804 0.14246662593906434 0.37528541651014075 -0.07038446326083363
Ni 7.008804996974238 0.6172368172829754 4.706386310864491 -0.0073279011199809275 1.317402406604957 -0.7676804961173747
Ni 0.9947112753262689 7.77417741749801 2.450184417215358 -0.5856129679572366 -1.4646757099040453 0.5538431317448075
Ni 7.774141155523973 4.1397032181370585 3.607614955191103 0.1703371270970873 -1.370937916629252 0.48751329816932165
Ni 7.882745767767387 3.9857348763722706 12.547812465765078 -2.1322937560801796 -0.7394220154923137 -0.26973880352587737
Ni 8.193030414115915 7.35797154498487 8.603833252497413 0.12055594190890206 -0.4914062054658247 0.69774571879945
Ni 7.28977183731315 0.649543516502663 0.37609287683245074 -0.5283642707474127 -0.36407206429282457 -0.7913865814850629
Ni 2.036481527460181 6.576661986871455 9.008489686279493 0.30719951947549673 0.4133683394247913 0.2615485544056012
Ni 0.19037173750140365 4.93196389240991 1.0739536606418711 -0.567222638375507 0.19579156261444988 0.6062689536446914
Ni 6.675521193592193 1.9824058586762106 6.637449747049835 0.2519763373361338 0.5778328097911855 0.5459668143205243
Ni 3.707886565800616 4.143411004982431 0.5282444936979415 -0.11906753028883364 0.7749788295510008 -0.46742578339082724
Ni 6.1795571091827615 5.943419134248164 4.673613645278417 -1.8715479000815316 -0.9295162706116702 -0.7593907453047566
Ni 5.63459403235466 3.3115794515407555 8.241875293144924 -0.028677827550666737 0.068047844707857 1.461030914062606
P 0.09389766212300656 5.675615390484999 12.127407456658352 0.8207683770812898 -0.30750625208263815 1.3274672470401268
P 4.114736849011987 6.132507197868628 12.69474507801717 -0.5448995493982745 -0.6625509160658719 -1.2893552706597537
P 2.578643366793856 8.660148098178222 1.4107222397289556 0.6101734309054201 -0.690005926953031 -1.235352076970421
P 6.188124000549208 7.967988603236907 5.573016667691606 0.2028153022304507 -0.8041737059474021 1.6987538268035194
P 4.833440108949023 0.9046628217473821 12.46915843097824 0.019857401045559348 0.9018424588454854 -0.483370993866174
P 4.072536976725417 6.245091561762699 8.143690559141291 0.5867542806505314 -0.12320777770945232 -0.20287160938968288
P 4.695680869579162 1.1374565361263367 3.7245879244931066 0.6339800464067146 0.2713984506164874 0.1127701273158961
P 0.47733268214877467 5.598259534368717 3.187541743146824 -0.47234250396615424 0.9976106522867465 1.4966345221988289
Ni 0.49475928032202315 0.03876858299323572 4.607816293386705 0.5010223883993501 0.5527560693282157 -0.08618594906946446
Ni 2.0195199891039683 6.418840810365143 4.736677750877024 -0.9392216708248922 1.138588095274794 -1.0458779719335665
Ni 6.306501214795827 5.700246336350221 8.588999385467872 -1.3859896687560516 0.2941159468186612 1.8979510726654085
Ni 9.040164520601571 2.663532648016506 10.083165866754069 -0.9508314871496785 -0.6791399307728045 -0.014673028631142471
Ni 2.4093543409980693 5.494940104841321 6.8811220536401505 -0.002833098573420927 -0.9685587292261126 -0.6760242679619584
Ni 0.5385383615779412 0.08283866659080774 9.074247149999763 0.8158956223700206 0.9802181678419118 0.6679612884481657
Ni 1.6148272933478511 1.0513343477864 11.395026180114233 -0.08286614066761212 0.6156151707462817 -1.5051158201969626
Ni 4.179609520565733 7.035584464801204 1.387157395900447 0.3670851400875355 1.1079788550293694 0.3102514189279431
Ni 5.675515670056395 8.063158154099291 7.764470087048073 0.15548643523749997 -0.07434087680542037 0.3131109998639253
Ni 5.227970386481028 3.2843557745318264 4.691990307171458 0.6764011916854028 -1.5846176723780323 0.4300604553684916
Ni 0.8808758733278916 7.91281600973829 6.997125921685992 -0.6559645210976058 -1.9041165780461724 0.6384892471309778
Ni 4.779781452866487 4.85952153377576 6.497868343484571 0.891306335200852 0.5693844219135162 0.2547284461599742
Ni 0.8214878253473731 7.30319783320067 11.088143813479808 0.4670308619452538 1.1679776041805046 -0.7483072337970854
Ni 4.950412171701675 0.13469782221171384 10.216339779506841 -0.6257597153794513 -0.5865100258502092 0.6140115737045877
Ni 8.153631779323772 7.356838358296187 4.618126479155022 0.34255450193602294 -0.9211355027471426 0.21081683237868856
Ni 7.2751763927629085 6.2643104080027685 6.657843481248731 0.9439758976804259 0.029215188111375495 -0.11277089864684449
Ni 2.5170886658645752 5.639688839706982 2.295184422289193 -1.0056314657086938 -0.9898348649960694 0.1810164611878044
Ni 2.332678396894997 5.425489359065295 11.267876287798503 0.2795640171464153 -0.6784477898017864 0.3888348730598013
Ni 1.071731708182701 3.2814094891412493 3.3615149094389527 -0.10501799417430302 1.0016020328343267 0.6870579000683007
Ni 1.627446460313029 1.1600477459519285 2.537847739451904 -1.0920673260054354 -0.1274449557192515 -0.07590153642432089
Ni 1.2291540029745958 3.5448527305263613 7.99390503608177 1.0716489102500832 -0.060094651299051345 -0.10923666024134089
Ni 3.660464969252594 2.8741965861895 7.021513005775809 -0.6265120201644436 -0.5915234199044006 -0.0987792123534428
Ni 3.9711575628090476 7.182998454758647 5.939937078191178 0.8778669218664946 0.8675961360681059 -0.2653144492059366
Ni 0.7416271733744252 9.141462345076356 0.0754983364961923 -0.6260435651684573 -0.367444066088851 0.40870564384179936
P 0.41918116748294754 5.828940082210615 7.593415103116642 -1.2294686216064503 -0.54561842984217 0.4282591404936947
P 8.769659259772585 1.9356279121673607 7.946802544905282 -0.09999225882493748 -2.423421309694478 -0.5474161451725411
P 1.97271484611459 3.5016193919797125 10.183685871885741 1.134515467867317 -0.06440844818305681 0.18823149087900484
P 4.0803604976240875 6.366097769127064 3.751788031218912 0.13852821011660657 -0.10035041349530459 -0.2855968536040565
P 6.833623400397298 4.131489881017481 10.033608439935216 0.08577020168828453 -0.6781019764265934 0.6362680711099429
P 6.597222526150926 7.733183255848201 9.963605605604464 -0.7730664430196363 0.17010804180541672 0.13521688635518647
P 2.213294912868826 8.677481321768324 5.747759494382689 3.2016664687015766 0.4227873187458461 -1.0974704992988775
P 6.875288408566808 4.111074389634162 1.5451825460107216 1.4716652538480008 -0.36596362488858264 0.6570760089942297
Ni 5.8008733143053055 2.7268551201801325 0.38773750324536116 -0.33372533368016716 0.12345254673040675 -0.854473996863851
Ni 1.81317122584148 1.1776982618148608 7.118836517896042 -1.0460996010260695 1.6926615978628528 -0.13832020787085855
Ni 7.094745875443986 0.8699238506191045 9.17436917996637 0.5233331360814084 -0.3804029402423642 -1.40271778014401
Ni 3.3350137522627277 1.8235602814033292 9.405515694174653 -1.1592877897159906 0.12754625718380613 0.05796166411644857
Ni 6.433943922551915 2.1628907689561894 2.906838708669038 0.6363827423109362 0.34459878605956135 -1.3805201610010482
Ni 4.2886946039651495 6.6281449245117185 10.45338974308849 0.6706306077502128 0.9328905864005417 -0.19702672057313164
Ni 8.392725105142455 7.29538337779551 13.829911670483014 -0.5883938731364835 -0.5029085496784693 -0.7458482307336317
Ni 7.94445458208633 3.8923149657572127 7.853778796356588 -0.5137753171896441 1.1789670133124728 -0.5582309763998579
Ni 3.116680406580724 8.4283887566087 12.245136488119046 0.7736727091450676 -0.47052910490649935 0.028431772978131677
Ni 0.14415131884338606 5.08930459776022 9.71770500070952 -0.46352156324041466 0.34662455824033855 0.6461814735689129
Ni 8.890792384046081 2.2938236917134214 5.548191720265281 0.4384083131125546 0.6852992655059811 0.027983372586803418
Ni 3.6561407288485785 2.7142268877214453 11.821919362925684 -0.21392503899036708 -0.3070717356483808 -0.928428179753814
Ni 1.049956392772961 3.520566273414499 12.28158521132321 1.2857719241838697 -0.8392967749027803 0.2563718953006682
Ni 3.2886346874682943 8.650384561668526 8.009003615521788 0.5830012413660024 -0.4958819818489912 -0.15090318674219172
Ni 5.713092140653136 8.064771811943976 3.427829901010055 -1.7126763504218827 -0.027521088238404216 -0.8979040430230278
Ni 3.109047261045753 8.669095740272066 3.742340880432696 0.6250835152480332 -1.9172587718550849 -0.6636099534580056
Ni 4.071784540764131 4.293508381018675 9.791940513959844 -0.6188570747223471 0.050755633286312586 -0.7472170860567002
Ni 7.17340716262563 6.114530324239354 11.311926427310354 0.19013796387309834 -0.4578533092110437 -0.6756861678962491
Ni 7.873027558725239 8.71037999771418 2.5672634527914227 -0.008263268450056736 0.057341514033946404 -0.6368283144887872
Ni 4.959568320146237 0.8773013492371088 1.4577177580820329 -0.6018006334606926 -2.1175623634072753 0.2770908730155744
Ni 6.226797395860594 5.72663598795628 0.3699274346966622 -0.5136765868282508 0.6709993039435411 -0.0994333009976739
Ni 8.135219762006045 8.740160143892778 11.212361925194578 -0.7271506543241283 0.40156003393595363 0.3550073829873951
Ni 0.05245385199512713 5.031330766767178 5.51243378766654 0.2792876235565771 -0.6882408646328082 0.12947792698888025
Ni 7.364235800999912 6.179829073988046 2.6608710191221263 0.28190269258192097 0.7483350017112274 -1.8629794416862302
P 8.57701752269641 1.503639015454238 3.326394281033927 0.19834878181866486 1.6911860417585907 0.3025741048883434
P 1.7768185968685173 3.4809410012846187 1.2870589362169653 0.8620613222928056 -1.061998788754829 -0.38230504236108354
P 5.057901728243426 1.1854945862330024 8.254586021594548 0.041841875736450526 0.30319914006685206 -1.2425218552459827
P 8.57379927250055 1.622125015622972 12.02027961330763 0.09505162699021048 0.7932753138673435 1.1723142838826457
P 6.294643549285445 7.78812921200908 1.2386972479920115 1.191560276596451 0.26950020515251005 0.48826020363767525
P 1.9269884968528386 3.4540164855615014 5.763164487503326 -0.9494266363823519 -0.16609377843970108 0.555247982512134
P 6.900807772795958 4.068103950399288 5.747269051183826 0.9016840788907503 0.36976962889823417 0.6483049476698189
P 2.574808663039352 8.459800691619002 10.020539624491969 -0.3824261413199801 0.902967059368232 1.2664505981474383
