# total energy = -340861.6619426763 ev
CRYSTAL
PRIMVEC
9.36462891850293 0.00000000000000 0.00000000000000
0.00000000000000 9.36462891850293 0.00000000000000
0.00000000000000 0.00000000000000 13.70608101342825
PRIMCOORD
 96 1
Ni 0.5891100760058753 8.381623820937536 11.59051974017312 0.05786524774790035 -0.5360842650994896 -0.8413701124920412
Ni 7.487657615118358 3.444188776053488 2.630457774345246 -0.09124073788455254 -1.3030672209292073 -1.3500515600985459
Ni 1.0003577549624152 5.9875470732905285 0.11924262940811362 0.23722257606572691 0.41555326289125205 0.45178139198535094
Ni 0.4354299602128185 0.8565723060846603 1.642166343744336 -1.556055030248991 -0.09733553792838076 0.32664220158114066
Ni 6.057472757425072 0.07425214269489708 3.945021304633208 -0.9243378117345242 1.277789163088709 1.323702637791372
Ni 7.860725701974117 6.3644921165185515 8.551320261569929 0.7016116295127593 -0.27280895781076886 -1.2388130389358276
Ni 8.115368691526347 2.6429885843011096 5.83706310534736 -1.1693821978375152 0.16659771465931308 -1.0162691479281982
Ni 8.269650952958866 5.145423453164242 0.8131007621820266 -0.5345405747614536 -1.1117568340145627 1.3556015433824977
Ni 2.3322327382691426 1.5555397803965145 0.45851470695984725 0.6289460835272329 -0.04676990916568719 -0.2714483300178164
Ni 6.33273665985587 1.1253568217667393 9.09493041504942 1.0273413465819599 1.0606160494746895 -0.2975414275604424
Ni 4.3223755821449705 5.413476591327786 3.973694861918806 -1.4563509920884339 -1.2302584644975973 -0.21606702503403435
Ni 6.214386479583691 5.856564008607273 13.314690266431098 -0.4228094302330332 2.082163157972375 0.9152214512555529
Ni 2.9148624910634062 3.9830763471693733 8.454843045062722 -0.4352160314275021 0.3032035109422262 -0.7607441740088575
Ni 9.352642193498248 8.142067248573031 6.791376852843226 -0.18621626022118898 -0.682236053199625 1.52721213787537
Ni 3.592159277594927 0.836119020063734 4.616632824948299 2.417822989671094 -0.22329156780693157 1.7709498893517952
Ni 2.432677748049123 7.676645191322888 12.66228091771342 -0.04584354069667588 -1.5378408212338097 -0.06550888033608719
Ni 4.372719827210902 3.1343412990266177 4.79071378484034 1.0519174932594269 0.4168056472411144 2.269204228087705
Ni 0.682219771953984 0.9140580171638499 6.429673679642976 2.2992162010687625 -1.7523680125845498 -1.9803485012267183
Ni 1.3531045970649986 6.195404376765864 10.085180926020081 1.441261444745163 0.8929073611393848 0.37122847283194776
Ni 8.698157643012227 5.454821428003025 10.491100131121987 -1.377530482245105 -0.8566391228359699 1.3549232863685505
Ni 0.3792440596275185 6.393747217259989 5.026444906291631 -0.291766215639562 -0.4533862745786256 -1.6515882248613103
Ni 8.288295929135627 0.05451993310069633 10.380232289355702 -1.3807605591466285 0.08491556699747312 0.7494734861910447
Ni 2.6479237437411665 6.8726824340395485 8.333721871093553 1.5612160056246402 -0.6920057309918791 -0.005168174464500777
Ni 7.466905597434931 6.666089355468212 5.986734223500401 -0.19801325285611704 -0.4520269323372538 2.2065734406303608
P 4.867715382585712 1.7031169675233757 0.5483168159739367 -0.3076983134887862 -0.3082631848533207 -0.3567775875139404
P 1.9423551425046515 2.1319982427334776 5.10336315883963 -1.292624685439645 1.2109659348165727 -0.8027670554078626
P 3.0973135562828134 5.681164508963508 6.643707892352964 -1.193099338948797 -1.5343502915820477 -0.8308558432242789
P 1.6382856415205036 3.450097856901071 13.275970335241718 0.8954787214109867 0.38340598873474613 -2.247870499606935
P 2.3136626791237296 1.7591080838271707 9.035981012470266 1.1797712543813228 0.5119732309838989 0.6838738459133642
P 8.524209660850829 6.056302178810257 12.463144893149895 0.35829916636478937 1.113039043161096 2.1560065263160872
P 5.030837853717306 3.124817471416489 7.779283397195585 -0.15740576374739987 0.276452210990311 -0.7844993674469264
P 6.431954903247526 5.842545159116258 2.959115045017844 0.7691830488048301 0.30294665773641377 0.45978986411212425
Ni 4.808390458386926 7.648017520718991 11.890819978017564 0.2594783021401338 -0.5113638795346742 3.3222730613427554
Ni 5.720608325968288 3.6427001798681475 0.2116574698904685 0.5557022964407333 -0.15385301339913504 1.4614659447174958
Ni 2.2117661518613794 4.378001477920943 4.855900030279222 -0.6144172937834387 0.9905095224655909 1.1095168889404505
Ni 0.20344656325471547 1.556111022760544 9.30111144994834 -0.08911366423922072 0.4972387529872017 -0.428673602323294
Ni 0.32555757850056993 5.30380742206307 2.672768104261984 0.8742745765295459 -0.7862338336395298 0.9941741158013716
Ni 8.460408444028994 0.124439061994997 13.019516226456647 0.6359865353137821 1.0116910416392124 0.48808228329891434
Ni 2.384056594704199 8.168250751029197 6.0598560554848335 0.6680422781977463 -0.304702721195572 0.48353477313754784
Ni 4.816584508690625 3.235638490038183 2.5022644326168164 3.988077708459235 -0.6751819745663211 0.04152665848887687
Ni 4.86804314459786 5.605357837868136 1.6622459810714136 -0.8081504312069632 0.16382220879670498 -1.3147487710321937
Ni 3.7406073752112103 9.373431669697348 13.07218851827172 1.2971164026624113 2.2340994139647714 1.5762011661795627
Ni 2.575759913295098 8.10798936393856 1.5425781975103994 0.5327094350899858 -0.8801197224564132 0.2725109669543758
Ni 4.6590433563944655 2.8945693401969863 9.791692519250963 -0.42526997595838373 -0.4464522664629537 1.5871661498314986
Ni 6.41617550351983 1.9776504288985306 12.185720570827597 -0.18465148683723037 0.5705272772687078 0.4939251152329364
Ni 0.23058244847189333 7.577707886798788 2.4227006723993383 0.2735563774997547 1.309176933371371 -1.2118313681406612
Ni 5.502084710154765 8.38916234721694 9.851423868344812 -0.40009090558959487 -0.9329216967487933 -2.1419050539176983
Ni 5.089273138168833 6.474180015041105 6.663827797584391 -1.743576382434849 1.875291426284364 0.7546617152602035
Ni 0.9121953924719575 3.2368465271686713 1.5320654650864756 -1.2763706854746277 0.4160124619158577 0.6325829089488718
Ni 4.018755583348912 0.6324093107364083 2.197948641892112 0.8819578041064166 -0.17459076016711866 -0.14403191354365516
Ni 5.854644259678978 4.515858180230388 6.155633734211826 1.3966306934096657 -1.9767258168724666 -0.2711482822788943
Ni 0.4104367020921966 2.0231063376689975 11.970507351336769 -1.2292295090124508 -0.5297565231092489 0.9577289856004603
Ni 0.7685344931588187 5.884479967413363 7.109947481707692 0.6527915226862628 -1.4121375307960131 1.741601260986349
Ni 7.865408016433374 7.502809584708514 3.992499036787182 -0.5003893828010415 0.32600276822492885 -2.0562528658645167
Ni 5.440858766285521 1.4766989695315456 6.335869128229113 1.1496523235087557 0.3201468236647841 0.22544692358703755
Ni 6.384757173498216 4.668201963476773 10.085098517285601 -0.245446506637416 0.03270288954965981 -0.2616763382327171
P 6.347888629446025 9.43102413754621 11.452335275851528 0.3364689578635754 -1.698155273987572 -0.1676598373752403
P 5.151454274187765 4.646775692511213 12.002141067823507 -0.498946736817244 -0.8545696419014508 -1.5684868282544406
P 8.349681071696486 2.2782269232960726 0.71594554654112 -0.7604320420850775 0.33733387696703193 -0.14334979987496602
P 7.66220493353054 2.5375896858232347 10.43500132158563 0.45778440364632134 0.015988919229088593 0.9680985017602424
P 9.227905336303643 7.832716096878842 9.299575650805705 1.6460942916262749 0.39064030169965624 -0.00505273193255904
P 3.4422783917541118 7.384955729769016 10.442923797650693 -2.4980648053419814 -1.1199781934830906 -1.7574418275630312
P 6.317331845284914 2.2584207331334154 4.414728616076464 0.5978113097956415 0.21928604619196426 -1.1786782784274605
P 1.5054483803113834 7.854479494485468 4.122076470669768 0.4636760865404079 0.2850774907654768 -0.35438080514698966
Ni 8.81509376431771 0.357179120969716 4.009316973861941 0.6688894566893899 -0.16869753461113526 -0.9953182567081439
Ni 7.243755854935662 0.3046941217330127 2.0406294313013205 2.005536313346256 1.5137405857514963 -0.579421494434544
Ni 3.224429029222722 3.926410977583446 1.2012608850028623 -1.1448834413652025 0.05732942984908836 -0.9052278303779506
Ni 0.2844580951029959 2.5366906814470576 3.7454198580124345 0.1475692372729523 0.6238537566059901 0.22698572882906717
Ni 3.1450731637672344 5.199326257219209 12.948861037729351 0.3268054666318823 0.31184216045383073 -0.9571869970540612
Ni 7.640375983521484 4.088128754377263 12.598478764428693 0.4482111581355893 -1.9702294105148455 -1.9828090469520687
Ni 7.784572539608761 7.396427400194196 0.6591443898358736 0.881344853112766 0.844996653501035 -0.22423079179174932
Ni 1.6373585432575708 3.360497087408729 10.695224693510404 1.055644821512343 0.7110288090616013 -1.0920447002976161
Ni 3.9778134257171684 2.840516702079324 12.547752442502885 -1.3572650471278496 -0.43894875899705693 -0.7437306701699965
Ni 5.552747352603925 7.08748829217242 4.624664867171709 2.7102296671081327 1.1449001535357508 0.06877135313744284
Ni 7.539706222647459 9.146554804888511 5.728730268629316 -1.3089871859580682 0.4384440514464965 1.2094024469841946
Ni 5.857294449662917 7.909927462311989 2.1991679165773026 -0.38625477103745093 -1.3247511336605442 0.28861404316382555
Ni 1.9976251823817208 8.966369979867384 8.347565602023794 -2.0408619852307432 1.302920410938698 0.4699935441180034
Ni 6.32845702444011 9.162802436062133 13.614784482439337 -2.7143022945156092 -0.34262957814833245 0.31185064509426297
Ni 3.766790877667375 7.9939843714845695 3.8968309242185355 -1.8479037783000303 0.29833229889285395 -1.2709641697470757
Ni 4.190877462871198 0.3907597438086151 8.314368928970554 0.3489444646227668 -0.042666428520274906 0.04836373601536832
Ni 7.762603120165928 3.1441273362464646 8.368480564250403 -0.8493446460570856 0.11828900025159629 -0.8170130238039155
Ni 3.017732939733282 1.839849914362598 6.837456445899666 0.3459846106634945 0.5411030584703198 1.321160073875176
Ni 2.8985024843427625 2.775610459045104 3.271956393909964 -3.61506386159209 -1.0036676571141037 -2.0145261755496917
Ni 1.8795840348638526 0.39965801420698704 3.368790402778965 -1.340850353215252 0.3265840946496956 -0.6587518540347559
Ni 7.7545401746670874 4.932396874525887 4.266950089427854 1.0771934942173964 0.021391321191582515 1.7404450358947186
Ni 0.6870547298646127 2.932973683391812 7.261632931541106 0.7960567332672226 2.6703212609489686 0.97259613252028
Ni 3.2698849379931882 0.08689720112356646 10.695265897877645 -0.38619692121632193 1.2429674274238336 -0.4988798881350506
Ni 6.83567342055358 6.887516006246473 11.297210197816343 1.7002910893836525 0.29339115283749473 -0.9658174190355494
P 8.217873919668401 4.7834430869480045 6.690047822093337 -0.13648752553749396 -0.5464825776146782 -1.0692624122957777
P 4.5969465020358 8.860353015880888 6.302220143599109 -0.45883392795675815 -0.7106912232165244 -0.660269833341179
P 5.807071944772927 6.530311600778678 8.567438660864473 -0.36991978132285325 0.01132673786672888 2.3260747160225037
P 2.4785082419763302 5.770297047009922 2.0498816846728123 -0.5584456635138253 -0.07291597143343571 0.3661860253120339
P 0.9079035830386026 8.679409655917361 0.2898483755084925 -0.3522321342351031 -0.8989157721169938 -1.3856574822276135
P 8.2878276976897 1.0151819625404228 7.352243208030863 -2.4025943456467975 -0.104390130782317 2.085066190551783
P 4.600776635263472 7.556056864739184 0.5400431663244296 -0.5395285148943483 0.30190896050051874 -1.6914120417264678
P 0.043217762458941864 4.568993084714036 8.782061908733436 2.297330554010276 -1.0973357734932263 -0.23265886795444446
