# total energy = -381165.3847338711 ev
CRYSTAL
PRIMVEC
9.24461431999181 0.00000000000000 0.00000000000000

0.00000000000000 9.24461431999181 0.00000000000000

0.00000000000000 0.00000000000000 13.53042751724853

PRIMCOORD
 96 1
Ni 7.446786321373509 7.008637832618325 8.574326951662574 -0.7026698955739447 0.2628456759504699 -2.7178360187004804
Ni 3.8012651681776144 6.935457466820539 12.794223379152182 -1.0601655922008322 1.070298566869776 -2.4591781555791132
Ni 7.126460440260161 2.367240617577251 8.815222183335402 1.7443633971125185 1.4660304241597268 -0.9615316471760021
Ni 6.715999570954745 4.060502638832174 2.1636779113214506 0.19816186261883934 -2.7834909376961288 0.2235831309054214
Ni 1.1523319121182611 7.534194148384381 8.842715665887527 -0.344216205909162 0.838194285867221 0.5629908596823466
Ni 1.3151295677143957 5.2674609761019155 5.344992781791189 -0.49996180834531967 -0.42271429941606553 0.7769058713703846
Ni 0.3814013491122933 2.041072140306222 9.741989207464824 0.2848077820438579 0.7540379656332756 -2.0483040433310853
Ni 8.444381881454966 4.639723939875662 8.817170948003186 -0.06958922105304789 0.6974814093944698 1.9924247156649624
Ni 5.911597957872039 2.3875510349165303 12.856503420377942 -0.7922309317632292 0.0651278428475846 -0.47912198878183293
Ni 7.583153625047476 7.411305492175441 0.931140651094927 -0.8692030755439096 1.404377684344936 -1.4342600737266653
Ni 6.272026975270227 4.759756010304975 4.4960663334644355 -1.6452782234828827 -0.5309114626492986 0.3173345510269696
Ni 4.696467381672883 2.9802972064959143 3.1808415462240527 -0.05790921361195833 2.5099769833985355 2.0632012721578916
Ni 7.701632600295635 4.016877304547213 11.495816394016313 2.2616413281387824 -0.29823382564177675 -0.3588090161216724
Ni 0.11998677181986316 1.3713460665037251 6.974055579917926 -0.6115194034103533 -2.912574457460068 0.7669191924713179
Ni 5.273543932228108 8.14950642316139 6.911341966287429 -0.35214651649983225 0.6484723264856187 0.20355115195521073
Ni 4.0959280003452 3.13018938070578 8.495579479209479 0.6351941213194738 -2.1812593873456048 0.8238686132731682
Ni 1.6316004447173755 5.5696674134351145 3.1697193509118597 -1.4122156923321163 0.034798852846740065 -1.17657434471058
Ni 7.2984195085022785 5.969256616472441 12.44945473816398 -1.2691044908305176 2.0978962524369162 -0.1982654780762392
Ni 3.283150766821262 5.100688136411156 11.0108587258548 0.7737678399620352 0.14031229860022287 -0.3407794123134712
Ni 2.170635407948461 1.8095777567864717 5.427663668499536 -0.28571846678358537 0.81367084680456 0.12884080762551361
Ni 4.951036322169803 7.203625234766744 10.560525835618883 -1.5003834477183 -0.8352825115370647 -0.3233599312854431
Ni 2.0105002012343074 4.153494212803868 9.225356717760492 -1.4771033941444367 0.8908512499413045 -0.38675870725706296
Ni 4.75210146976928 3.914807519457099 0.8113711277081421 -0.006549371082743559 0.6320997986648662 -0.9172945317344976
Ni 6.715019641852349 8.481841058086173 11.034902118397357 -0.024609571018564067 0.05020130344473935 0.5280863344956777
P 4.829950365724705 6.878751003480011 3.371498771093583 0.6525984328388503 1.1052303457499548 1.7498218491239284
Ni 4.563714722140771 0.22362259455097655 12.168738330938606 0.2277801997059045 0.35516602005244635 -0.18312656555227172
P 7.624615719615829 1.7764543042026584 2.054135704594859 0.6612998172675901 0.29179655465686516 -0.20339611443458522
Ni 4.446335855979265 1.6378867823553862 1.5774723042698497 2.054870126584377 1.3364925904671885 -3.9373056201126904
P 0.7015053594854764 5.469086011226941 10.643196722327229 0.46109341341489624 -0.3194623960032498 -2.6675077027595737
P 3.051767318671594 3.7166584592613265 4.669066345262495 -0.26086232697185396 -0.3026340115920013 -1.2896272933742177
P 2.436704648477271 9.659604903795858 12.803274780889502 -0.2627762561651152 -1.3592417112382462 -0.5472518516805349
Ni 4.596745728582849 6.937139986600124 1.3148087796025736 1.4706499252096092 1.5358510444972904 -0.709284829787301
Ni 7.645730418388205 8.909922162006366 3.04128854850588 1.1555584045805454 0.26493521148964694 -0.3379766527573534
Ni 6.57213488518603 5.552158114190419 9.84427901437227 -1.2996080587360133 0.32115675298653723 2.015856207215025
Ni 5.0658914086619315 9.174780358078443 8.920692137518547 -0.9922218771710073 -0.14290319925585065 0.460727031214413
Ni 7.301775303447275 1.599068647440669 10.841390156671034 1.1615125652814513 0.05913125894451752 1.2863195691572233
Ni 0.33037939902707886 3.4258968542749764 7.424063984196351 -0.03687553287011069 1.6746204240904254 -0.6914439449511383
Ni 1.71854604101957 8.728792436504092 5.271860487987106 0.25128393925479947 0.23966152452452275 0.3868412396685402
Ni 3.978290284986835 5.484247178471555 8.51396701680066 0.9440864551163612 1.7769145915756623 2.0253248088270928
Ni -0.06339771507933967 7.334270122267287 4.5228026821157465 -0.14025187767593267 -0.25096975044849035 -0.7653832154427658
Ni 2.492338736573667 0.06332653155020337 10.375280407886544 0.8887290613919792 1.17936502008184 -0.5719763510104086
Ni 2.790422075985465 4.982680636485848 -0.2916019404147253 0.4923721689235198 -3.062240686471365 0.7659396021668681
Ni 7.438336744018889 0.036787093180789224 8.887502123712684 0.9154759904685201 0.379522851630256 -0.2870125030046605
Ni 5.38809394645251 9.15503386220375 3.0511109510652723 -1.2230683745070614 -0.4808693104902428 -1.002540485488196
Ni 3.5417318698695004 5.898137799635356 4.792531865395863 0.5301103069042419 0.20304335908085677 0.6321342514472276
Ni 1.3685634376374882 7.670958970467811 11.307594200520095 1.7547753364744618 -1.2786155156447463 0.5116338453666092
Ni 2.75079965963765 6.905357003071475 7.029070278864694 1.5145142306927273 1.56846163144346 -1.1429486862363347
Ni 6.13558571468287 1.363746993653071 7.180828016214781 0.830402300626628 -0.597346454344081 -1.060304945992174
Ni 6.66162275038595 2.194366332531952 4.055529036406807 1.0360458163344932 0.2564467144026616 -0.40045651645912966
Ni 1.9131081909160064 6.673714705724947 0.7235787247476508 -0.7217384821696216 1.8227604462651834 1.930029184146876
Ni 4.006782185869702 1.0285835067911824 6.574853726214471 0.21029695531947656 -0.12542304019321626 -0.20022028780976486
Ni 1.0782733079739888 5.620032071452591 7.606968675619948 -1.0999179323981056 -0.7894471983705049 0.3043065141984178
Ni 3.298256466380835 1.1219078868731232 3.240144821685929 -1.7522188886011953 -1.7475847322632936 2.67081928363131
Ni 8.360653410885167 5.012439049510492 4.062186083073177 1.603766220282025 1.1864201271564085 -0.5272101025383114
Ni 2.422634345705135 3.1572853448484413 2.3166522398967757 0.5874824170658076 0.8241856302929548 0.09477086252499807
Ni 1.2975000884854446 1.5780741286525475 0.8167302305445464 -0.29625818997264464 0.33779873241859243 -9.641636854822105e-05
P 5.415245378280212 4.716306323689311 12.133572743083855 -0.7080463293945096 -0.051339273703924486 0.9166309300085698
Ni 7.799274215196621 0.502703629529052 12.71616647937785 0.49749174953827224 -0.7958099073637391 1.3310215400502883
P 7.142915853489072 3.0820804085466498 6.03788585871259 2.001244113728805 0.3437667770765692 0.5827060787230868
Ni 6.690724795804272 6.225175270638698 2.4727799063666973 -0.2823012135719203 0.07619644195692038 1.6131276068922669
P 3.386459330210632 7.698665079145926 9.064858197709318 0.010671620781233234 -0.417732529930758 -0.26692190290237255
P 5.238275729156032 1.5645585027308242 10.207435192951655 -1.8296926546086425 -1.271144404078682 0.5955281701884195
P 5.765653233914278 7.690603775586595 12.999249507831655 1.185737242156771 0.505797184080174 -0.13716552544112506
Ni 6.27670475004204 0.29946171138507366 0.9003375966686737 -0.02721358430031442 -0.06149256008784249 -0.3513697862348078
Ni 5.872631909130544 3.458752213047757 10.451957086764764 -2.1767409306499608 1.130316085073989 -0.5207972570334322
Ni 3.7438468695457234 5.2944090264178 2.4218651938058957 -0.4480828600878412 -2.152607527936867 0.2863954382459519
Ni 6.156903794967065 4.3123259289195515 7.951926831198707 0.2941210890249838 -0.20953899410752946 -0.8982526846116982
Ni 6.229474016229397 9.42627084205557 5.1037175964758275 0.15517533175498435 0.1913677225151414 0.5919864755837483
Ni 0.5632401365216794 5.563418054253798 12.662883296665788 0.4136812426795198 -0.7993220342820556 -0.3878959061852997
Ni 3.214592708110249 2.3706518802072893 13.06320837099133 0.1010016739260583 1.0427224570237204 -0.3003377593586569
Ni 7.610831999883072 8.352897179593562 6.617650743069483 0.8638410399010478 0.745013393537162 0.19695138725050595
Ni 8.533962192796622 7.226440942547055 10.412611084380737 0.23950725833484557 -1.053061377055883 1.2868569297179322
Ni 2.8390672357666613 2.491959707392552 10.46690840126764 0.9627182112849357 -0.9184574416943472 1.1345242096180654
Ni 0.13819403943466083 3.4753555401034446 2.6761022526539855 -1.2328030852963219 -0.04991102589783017 -1.4854365966004803
Ni 8.102016840151887 5.947892313117378 6.57738397711377 0.29213979692889686 -1.0710526714269812 -0.5152940678270158
Ni 6.787441949287904 6.981763739215828 4.806846225982181 -0.9090204646511635 1.2917358550767881 -0.5876374545864332
Ni 4.16956135223749 8.355494916176328 4.887528596181799 -1.3456634583331792 -0.2696981800959291 0.020035578494636462
Ni 2.200920763980996 9.472586359065033 7.79268742759797 0.007625120645425578 -1.518926757938126 0.2032127947791855
Ni 8.343735766947578 4.981488081257462 0.746063475340548 0.16717209910554434 0.3525733196246057 1.5185860867692555
Ni 0.437070566742549 8.632907298296079 1.333729731431569 0.158731681647675 0.4957819659360172 1.5856283730307337
Ni 8.644065547603548 0.8191643374564409 4.943124781360083 -0.12345151828914223 -1.0350891088481786 -0.7847737041542355
Ni 5.521271858236605 6.002093486016874 6.588938820369284 -0.5332251983841396 -0.7610686472278119 -0.4870466429455483
Ni 5.07819599012692 3.2528839000170744 5.863748759371185 -0.22012936802886604 -1.3594823664941424 -0.7557791166940983
Ni 0.18077380785659358 3.0432345397894114 5.076683571248129 -1.2328285392176188 0.6493863536594559 -0.3335960071911545
Ni 9.187547170252108 7.7205101024380145 12.922694857860526 -0.9993402333833433 0.7167811381643462 -0.5608941250543179
Ni 0.5948271342298493 1.470346639688223 11.952319139751655 1.037570994729768 0.17264777750813493 0.9548233819178911
Ni 3.4178817737865126 4.314840463974756 6.752928106732389 -2.7006569358180323 1.0072926554612007 -0.8974993513854415
Ni 0.9685952054190462 1.4338211690885452 3.193451199956768 -0.5262996749089001 -1.583193538336996 0.6154562765709143
P 0.4045840680752931 7.719299057981281 6.692433200503543 0.9099020959251685 -0.4671146799083116 0.3665017567802398
Ni 3.4448945364016126 9.032496501333405 1.1890367282329057 -1.5251282587631474 -1.6076282743405925 -1.1269746794055817
P 9.097393692831695 9.34334665291887 10.406576200248248 -0.07582363199853392 -0.864675105766569 0.13931291080143104
Ni 8.140187852074455 2.7953402107257914 -0.09178052951495877 0.1534418940036454 -1.2735427291075292 1.5650952860743885
P 2.0225366888882634 2.2717160193220063 7.8741269316984015 1.2833298904012802 0.7865629348441745 0.47687921549424317
P -0.1270810887366419 6.5843747543518045 2.2023074561070275 0.9211051637298395 -0.1499225679964773 0.8923322053622051
P 0.9159924263101555 3.4713526221662994 13.143944359953153 0.9686070659655448 -0.24013666438872838 0.4999101291717778
Ni 2.2112285087844987 8.020414630842001 3.024239631047028 0.03536398132159071 -0.20042443340077096 0.12908377687425512
