# total energy = -381168.57118011895 ev
CRYSTAL
PRIMVEC
9.22801799131657 0.00000000000000 0.00000000000000

0.00000000000000 9.22801799131657 0.00000000000000

0.00000000000000 0.00000000000000 13.50613711265032

PRIMCOORD
 96 1
Ni 2.8501841319422643 7.579460365221926 8.306800756854168 -0.14991588312825793 0.638801636165074 -0.7451933707584522
Ni 6.918115990763733 4.107649248801071 9.012091721995413 0.5840628498612973 -0.07523356382301881 -0.8941003530062216
Ni 9.148463373742286 2.8486061408440966 11.352772980799267 -0.6757830984854297 -0.7645249812075285 -0.16869624905955463
Ni 5.445730331938174 5.310549094528515 10.598995240060946 -1.081645359341163 0.29360841105462343 -0.629535894592432
Ni 7.883984963113848 1.3905700501919296 2.8334251282382783 -1.1338986602189247 0.5127265642101556 -1.8120705706515052
Ni 6.740559694156508 3.8621562828095914 1.9400893010969613 0.3458509132991076 0.24837756424128193 -0.14924791052695585
Ni 4.462706473906815 4.939269013571437 8.217539060401176 0.9016218581942473 0.29849556394359555 -0.9334156056660763
Ni 9.125125715922023 5.281194768895357 1.351410955308464 -0.05806785067700968 -0.09149553420783597 0.28253672662149404
Ni 4.584340980719342 5.249210458098586 1.6924139088205905 0.3785748858946899 -0.1859720054208668 0.04126620573863861
Ni 3.2641991648035087 3.658235538439419 9.667030929077944 -0.8207514078004253 1.5606876439249961 0.8081915688575436
Ni 1.9268194110433676 6.505577440801359 11.639386918326085 -2.2834535389178674 0.6294165954057483 1.4355587379334307
Ni 6.539988720363145 3.3216528056057846 11.220588080872501 0.006326713548976201 1.0553833403208406 -0.15928858259240955
Ni 0.24591560922128008 1.879913394949894 13.391565163685682 0.03270211821871142 -1.0487210978093164 0.7546380611111196
Ni 8.056613498046096 8.64709592137665 11.14487311501664 -0.3065618858914978 -0.3505796862333446 0.3241518310591192
Ni 6.452977737529118 7.599282148139255 12.69578274841316 -1.497054383345067 0.2534891744362344 -0.6128352940082994
Ni 3.1979881348073107 1.227575566174808 1.328560536844828 -1.2781324053607408 -0.35787107768843524 -3.376808987607107
Ni 7.744245084753927 1.7565901608217835 9.695042578074942 -0.9896759708207021 0.06102616197438523 0.5845292479747546
Ni 3.8428512689068675 4.259459374859253 5.611137942693136 1.2032176583297214 0.03705448165013618 1.1287736802875334
Ni 5.0718387218537195 1.235816186354126 11.200531906294977 0.8899706471085641 0.11573589481243939 -1.318548090173626
Ni 8.005582557853904 9.008981879889667 0.17045995067453262 -1.3432270809775448 2.1009085569006785 1.4035145650136926
Ni 6.637971816739401 6.395920901505913 1.2924180810841162 0.911628591697972 0.74472928663784 1.034096405917606
Ni 5.204362290045413 7.229090973320093 8.170645963533067 1.0077623960087678 -0.3976303598642442 2.2878354700356467
Ni 6.76528155469446 7.703937101614778 4.497030087296482 1.2131755408733815 0.21108165600430098 2.6226110993571994
Ni 1.7060390775717247 3.770660483170246 4.51899184761536 1.4014504833958121 -0.5329639743029531 0.3988254086136099
P 7.455989482803929 7.636148080520413 7.237277148192515 -0.3468667561581317 -3.4077776680744796 -0.6057182233475439
Ni 3.786098957481555 7.045730253316685 10.591769701874602 2.136735336791301 -0.3052141136143518 -2.282972485516391
P 5.377120017231312 4.9389921730278985 3.9221956142885133 -0.37074536254794216 1.0847517661806287 0.11295987472919901
Ni 3.128335054053122 5.788901869708016 4.062240940048138 -0.9720022076900228 0.4437929744632357 -0.644574019872477
P 0.40667691285386093 0.8186608589273473 10.11320652788201 0.19431549228955566 -0.5955505387859228 0.6478997418116004
P 1.641682879217232 6.043069172730355 5.7098140632300485 0.5748462163590358 -0.09741035703037416 -0.7174830493273773
P 7.135869534292693 1.9586745295864865 0.785865405338011 -0.29891516797951745 -0.3604313822164438 0.4939752517445815
Ni 9.024309617983562 8.997714469767667 3.98286521940489 0.836279071122379 -0.5428524370612586 -0.09478834602649482
Ni 6.288599050794305 3.084529652047275 4.110835683457194 0.7496061551141671 -1.2164207872835566 1.2255602876909795
Ni 4.547373540138888 0.26739935820164923 9.020721764539307 -0.22144937239187026 0.20295002803610207 1.1570727843425428
Ni 4.977076203800625 7.066151857411679 3.4434035854465983 -1.8446850142524165 -2.573064398777323 -1.0786847340509422
Ni 6.116681073257139 5.19838253430499 13.014513880197645 -1.9907033620984813 -1.6597604762594578 0.3151257163011089
Ni 0.7925926305459872 6.874061432268702 3.05075233733019 0.4019562409331077 0.25031874712805274 -0.45409101395513407
Ni 0.8950070212224758 9.058720897545347 12.22097445499276 -2.369019595015146 -0.3231622134523402 -1.9583264884296725
Ni 8.390317089226933 8.737530498932433 8.855001323970146 -0.4640838635017878 1.5398786775994446 -1.462579746606965
Ni 3.3510532713295316 2.2758968804086894 7.79309544426485 0.7825417294999232 -0.13863208268432253 -0.3829868989194566
Ni 4.258868781699704 3.151617343764677 11.964952320328713 -1.4912987118082122 1.5518263368796241 -1.0390146691548299
Ni 3.6119016594692575 9.163375851020872 6.87165291953992 0.6311289501111647 1.273322128456291 0.007832094449909092
Ni 2.669822517827185 8.077542643137576 5.200227215126766 -2.085750618213318 -1.9010605648286676 0.3136051658915244
Ni 1.9677918114870083 4.228637794345342 2.2907087722897903 0.562456070224799 1.0271153466140828 -0.9955964500701951
Ni 4.6616440884933015 9.05338710307318 4.470396181404492 1.1099768592960044 0.30045114500806963 1.7770868554874684
Ni 6.355963583055246 5.358885453430268 6.00870495606097 1.3421117364261788 -1.0805945494791453 -0.3447242558938321
Ni 0.9266037552582921 2.138288674234013 2.124245476262136 0.8996765615424183 -1.705015491442515 0.02230123460036159
Ni 7.209269190402764 1.4536435540280292 12.145097076018024 0.9453478383272881 -0.7294219668568083 0.8396677850889539
Ni 0.7171886489007001 7.306717061728179 9.804240484869927 -0.360279944240244 0.9488761631955207 0.907049971188354
Ni 1.4346615207594327 0.6604990879985894 8.089136725100953 0.5184570389360297 -1.855047331323347 -0.5033034711240428
Ni 5.480649152496448 0.5601176297134823 0.17217451644084533 0.025582733565110777 0.0363055192992536 0.5350941332720784
Ni 6.08675461050067 8.74478372117313 2.5411664120287187 -1.7604299636570777 3.480393848879309 -2.302269900293422
Ni 1.0216246578186896 2.6721202943385514 9.020978303442986 -0.9366194573153548 1.3838037168483264 -0.8097247176726183
Ni 4.79521965075044 6.865802356053148 6.0305439837388795 -1.9507221937198533 1.1009080642255167 -1.3455349031751151
Ni 6.031423413865519 -0.0024952560990901705 7.3300104250614755 0.11155759506503367 1.4563849306501628 -1.112689116020845
Ni 5.74719122781494 3.0153287441808647 6.959023795080548 0.1887490539453717 -0.026301871119322445 0.6679031815167207
P 0.11368641480754871 4.088851775894833 7.62867154024126 -2.3120418920785215 1.9261023382886442 2.404998841323232
Ni 2.7039938689179057 8.699981693210546 3.0049398413836914 0.30690152861910375 -1.8468424269150518 -2.081834570988363
P 2.4240342552559326 1.0558975171087077 12.593149653707277 2.6585083274744408 0.9086972769837898 1.7109737659084792
Ni 4.049881855382784 8.684257150337581 12.035778282185694 -0.3233553032997528 -0.12436091747728906 1.89800609427306
P 4.113776652831381 1.1911433506451927 3.0256585876620834 1.723194476344387 0.8883693640597151 2.311117066271407
P 0.11477162973821811 3.752195218916254 3.0068851076029524 -3.3341577285954833 1.3005719653111796 1.8541641573874452
P 7.740738437869111 7.7049337275715155 2.577079090138294 4.326343867432549 -1.200791822497048 0.006302288068943984
Ni 7.525679475630589 5.853617960769108 11.496518741824184 1.4284763771653528 0.488647668884081 -1.4186192818656147
Ni 0.5209529980191459 6.495924933849996 7.581008826662116 -0.20738955186469443 -0.4982355696828322 0.513439016896148
Ni 2.3028611493493014 3.1295439244265717 0.19741960560608565 0.217234048758942 0.0570455800600824 -0.28109099531390297
Ni 0.7426266036446053 -0.12595691049896957 1.6310143674710849 -0.41022413736885477 -0.4253869611522223 0.4105550383457123
Ni 2.4872000392732114 8.96924603387383 10.229710256620967 -0.7270017874510899 0.5119243800238346 0.07853897404716798
Ni 4.357599347543513 7.508026276970975 1.0458574333963924 0.42786113372432766 0.8642956109399631 -0.47669486739757905
Ni 2.2111531052932434 4.621742138151341 7.435182147551605 0.6978814730463659 0.2465374257087496 -0.9395721121857754
Ni 3.8980625013064847 3.44799360165846 3.0071416465066316 0.9910998477514221 -1.7351879012608373 1.0491044492906643
Ni 2.137596572875167 2.108223791205774 10.772765280834383 1.4201580871076445 -2.1280154404197997 2.1355132914587416
Ni 7.946006472884502 5.610468911379586 3.601168551596285 -0.7245803224937908 -1.0088633423824303 -0.3367939453031619
Ni 2.2137923184749733 8.023088108223629 0.09579051927143345 1.9464698462014025 0.2186952066855008 1.075387037136277
Ni 4.8721074977090915 3.120832675323239 0.5335843092189779 0.6148296987305089 -0.37100452974659975 1.1558409688179707
Ni 0.02626939917633132 7.294489937721912 0.05260062607405281 0.25414146330825266 -1.9600337009287665 -0.3596870478512515
Ni 8.9422725369151 6.9635824360308085 5.348132966719248 -0.45023487343383745 0.08191406116698796 0.5418232244657959
Ni 9.042627233947666 4.376812081265057 5.570971148231191 -1.4375320596097179 1.2812282706772449 -0.21534248816318394
Ni 3.854663132097827 5.945316776807048 12.62813030198694 0.8999876650249339 -0.7245073031640102 0.6901653353490308
Ni 7.762045931703427 6.549428982897795 9.154770724125894 -1.4115258653539433 -0.9449508599991854 -0.031232475651720402
Ni 0.12336199180420568 4.6479312535700466 10.080426761923476 -0.6435684614260981 2.1070660918616424 -1.3784874468417359
Ni 8.982331363565066 2.095470670166785 4.72143518628485 -0.14299653030060536 0.3523856290938318 0.5503749706905489
Ni 1.2067479292826242 2.64707545316647 6.6607004253638795 1.7526953140169812 -1.9937231227614116 -1.9511505395065236
Ni 2.179113426387766 1.163976065305986 4.356729145434991 -0.5983088182573503 1.5734030346091354 -0.0674163817714452
Ni 2.4909835267015654 5.974938714965626 1.0946173583297596 -0.8355835877172512 0.8400493367980888 -0.30082704029024965
Ni 2.2493847843558563 5.787997523932458 9.362643828655981 0.2165848452107173 -2.0237448659344826 1.0439671280640987
Ni 8.24214280230722 2.2058193108210755 7.517286593152326 -1.0711146350131682 0.18435195331894055 -0.8280116889072644
Ni 4.21053242279795 1.9446663980834582 5.411450090233662 -0.11533171739548523 0.34991531317646835 -0.25764973357182724
P 0.9905446927974778 0.4792026756481633 5.94930512623762 1.317194404359209 -0.26275954399456686 -0.14520845035025962
Ni 8.019073920342327 3.756652351667218 13.30792148466289 -0.6145628182223674 0.03506650468582993 -0.3220612670786776
P 0.04241012566641496 5.374877608828653 12.550699847562955 1.6512496105749692 -0.5979136397014606 -0.22087550216627122
Ni 1.8792397496272846 4.181805602396812 11.61637224113995 0.19548894377236656 1.1970979185852286 0.7198770034808506
P 6.178084305813892 8.105854202723407 10.221971640627265 -1.07018209589657 -0.43716955560944715 0.09443199112834058
P 6.378064686447705 1.3624891910590473 5.613231780004096 0.40253011115870674 0.212513246244505 -0.030542648673547404
P 5.1015806242478305 2.8263666171798687 9.395058165097046 1.6149633745494254 -0.8261568950867125 -0.5129103980861877
Ni 8.231161460746874 9.29981209889457 6.3368772731819165 -0.4400319647589067 0.96387880725194 -1.283431448976151
