# total energy = -381168.0774431644 ev
CRYSTAL
PRIMVEC
9.29215225182897 0.00000000000000 0.00000000000000

0.00000000000000 9.29215225182897 0.00000000000000

0.00000000000000 0.00000000000000 13.60000408569161

PRIMCOORD
 96 1
Ni 0.15045016676258427 6.200578878478817 8.684323792646989 0.6429390553722153 0.9738495453114068 -0.4535225430461738
Ni 7.33176832830063 6.035317950198925 3.3304774231375234 0.5498190981870789 -0.47489638073625945 0.8268757755306081
Ni 2.11026636683835 3.582561434665592 3.170963691042119 0.6132250732475503 -0.4355685296709144 0.940396922079916
Ni 5.551772929910535 1.8132520113962096 6.057550353741375 -0.9636777469847276 0.4051912029306377 3.4827158121442667
Ni 5.891809950403893 4.096909939758472 1.3792583223501778 0.7358803208876423 -0.26867359548615666 1.1141731567655393
Ni 3.577088356973332 1.9379526949787875 7.612153448024486 -0.6719994630732813 0.8070474279507713 0.541323659121558
Ni 3.898568949365765 6.92617517347977 6.53030068072739 0.748632221236672 0.6113815922809084 2.1685290842631297
Ni 0.09223018665925764 2.0844806442644566 10.355084365707475 0.6589092055482264 0.050861305626241436 -0.5938898632540481
Ni 4.295678369156008 2.481590064054699 2.4199171201645404 -0.7428215280921658 0.5136786437107799 -2.267345834722727
Ni 0.9781198253318123 4.225773507561989 7.675747079790689 1.165553053899412 1.6625498660791365 -2.181368659229959
Ni 6.54529914372073 3.1757881765053138 10.250500262593446 0.9164360403889442 0.23332889743827556 0.9860666562028888
Ni 1.5159681835379815 6.96028666449554 10.508845326327025 0.2607448275573832 0.02009060010228798 0.9393347993639887
Ni 3.4545620370240115 6.189642015246575 9.10664468000029 -0.8015424389721422 -2.504513903401435 -0.347727304386214
Ni 1.9887343071828703 3.417021741817334 0.7714865182454321 -0.26520029222557556 -0.592884047697353 -0.5947655809907821
Ni 8.454278907893968 4.088686384991663 8.86956935283307 -1.3389094274387976 -1.4070734860095444 0.2664711885181991
Ni 4.046416384275035 4.005010553720343 13.358549578200947 0.19788212659489146 0.4977974537041491 0.39653892657227835
Ni 5.805606653712716 5.181620043881324 5.5517664254039385 0.42838075367322354 -0.4095397097073205 1.0215460800564213
Ni 4.503395141198106 2.592315350609841 11.446864868499327 0.46216170677841045 -0.24076041401565632 0.06268400929278237
Ni 3.552259726084163 7.876353496908988 0.16858194350436403 0.03291012046445945 -0.034792425088836856 0.4240638714654245
Ni 7.399907680961662 0.8717915852350371 10.998772196800552 -1.0739351351810988 0.1414834360901886 1.324150523962068
Ni 1.2908936710389345 9.006957541137231 2.8823708132103274 0.30049793908560507 1.0280915944844229 0.7135199509145712
Ni 8.844066111688454 8.196876997616696 4.291535927670083 -0.9300410327668885 -0.9767494925670209 -0.7037307327382912
Ni 9.124828492794832 6.04507471009175 12.863019539903258 -1.0050560528211983 0.6007842763810363 -1.3006400995449536
Ni 3.6617491563862132 5.233693265252172 2.1715258099520987 0.26364760302647494 -1.4450957308895886 -0.8939085487103896
P 7.634711076896696 8.487777116859334 1.7191624650659478 -0.18110696401908166 -0.329689987268529 -0.4386479399271865
Ni 0.6597019263304981 0.39646826128300006 6.931541391420823 0.46216736320536533 0.48960309081881487 0.009435691491603103
P 1.282605071206173 7.634720369048976 12.765657297540374 1.1195043391704653 0.6411480249100635 -0.04130425806542564
Ni 2.2487194357936717 3.344673044173969 9.266743817689264 0.21753743893197378 -0.5768617041271679 0.9203253481410215
P 0.3755423343509609 2.3153720440900827 12.970337394217733 0.9603155153807139 0.31274024678806783 -0.44534206411791044
P 6.753276096026637 2.269264384482277 2.7143296729685944 -0.6980354821257269 3.349538839037244 -1.8653353435129167
P 9.21341987262168 6.055593426471442 4.623606786014757 -0.03033284665558647 -0.49238425310837775 0.6890217086628908
Ni 7.782623556871918 0.1867713315902729 8.898441928394007 0.9755197339249779 -0.17288997542592804 -1.2570300761644866
Ni 5.416674327927889 9.199156418873597 12.648180333139397 -0.01561893748417955 -0.41924793813401984 -0.9394034478183949
Ni 1.6885606199659102 7.943024689509956 4.986074132894105 1.4641136667529884 -0.22835664103466477 0.454936649784881
Ni 3.9669591901383265 1.5683201694771949 0.10115808656880615 0.9197748749541902 0.40248614529464877 0.9693357166014532
Ni 3.264026454545564 5.2380791611278035 11.470080381752883 -1.4465270640194765 -0.5745369126487332 -0.4601994408457171
Ni 8.079833047511915 5.538485152151735 6.7368029684666375 0.6138290253801364 -3.0467425908357657 0.3958370154092473
Ni 0.8106538693161419 4.59392858085124 10.714681366747877 1.3814616989787112 1.7025102085221582 -1.4595314466989444
Ni 3.0575641230611157 1.7493220037175108 4.7891734261046235 -0.4982039451139484 0.3152200757871281 -0.25039356623004616
Ni 1.3631866157686259 9.022252423788268 9.18867951717916 -0.44570176145017437 -0.09611760636087963 -0.3448384128741932
Ni 6.983665719629204 7.146008912093527 5.8329469533628675 -2.2032348631754313 2.59725076621554 -1.073281817867816
Ni 7.277911013692238 6.3632844648820175 0.9650792188236312 -2.316780435204771 2.2567176655849197 -0.7303182534188325
Ni 8.655045150031464 3.3973688397475015 2.9358601585884765 0.302641210680853 0.9771438997919624 0.8419146721416016
Ni 3.9177758281262114 8.265769014612317 9.008003837483832 -0.9980716510835651 3.0678102101393425 -0.7351904939094693
Ni 0.21364795284170723 -0.23400055397813949 11.483081961221492 1.6106747744764003 1.2698583382774065 -0.16597036548795932
Ni 7.4989341477976925 0.4605004826367665 5.702917220448351 0.6176378576032654 -0.6828901418438561 0.06529933542844238
Ni 0.8582510609342522 1.8016554053521665 2.152432295449455 1.2780858683935215 0.9279715518323696 0.21726438777624518
Ni 2.8131898102788333 1.1970057644131245 10.307701822807008 0.9978875600972169 -0.7243275830530364 -0.49326022795542795
Ni 8.189099466159274 1.9872289785136916 0.9905044058891045 -1.136986555115629 -0.057906899619113175 -1.299255303382285
Ni 3.7982601655152486 8.6741683994214 3.6466503381482602 0.2468053346581556 0.730563279550103 0.14870489353929228
Ni 8.136543052869923 0.8291833501754577 3.162422344667372 1.2739803308655802 -0.08131782234388577 0.3076129528638315
Ni 2.421534883876294 7.196902030124957 2.3706575625037383 1.5817184964533662 0.04710672367981565 0.08864700901544732
Ni 5.182883776591252 5.754490524026594 10.589819928930876 0.9978397375784168 -0.7539559474424307 0.5320612599830256
Ni 9.08034695983583 7.609046152302429 6.544743473014454 1.1993823437440312 -0.41001664934373905 1.4973978827274148
Ni 1.2750040906420488 5.390758515222091 2.0351458201701953 -1.9394157675680985 -0.9876738527890087 0.7383400952820446
Ni 8.496558200762875 4.685781506127975 1.0349831512024223 1.0425548210976046 -2.462066275760186 -0.27347513063985807
P 2.9780325917061763 0.8705715256408201 1.959964874512228 -0.367967799802805 -0.5553518550798501 0.1445440772933833
Ni 3.64799677101347 7.746616466791256 11.379749511019428 -0.07102672483052283 0.053397441784533844 0.018937717444767386
P 2.7641644148554594 3.830327383029666 5.413481544404865 0.8670415491162163 -1.4823954957813115 -2.1920477362103603
Ni 5.697464585491105 1.619612850056616 8.654103855005612 0.23275991230868304 0.37239112568148125 -0.31720548164827306
P 0.41728918689428796 0.8970550888508577 4.85928178583355 0.2565922388415903 0.35331328311442384 -0.6346390201469522
P 2.1278099503408767 7.396237280811504 7.798187911939044 -1.0573072968164305 0.5280004596500907 -0.49047675167301985
P 7.316055298797043 7.341757392000427 8.51999486724067 0.20086846291672503 -0.5483286296844815 -1.019596412529218
Ni 8.024563325757134 2.2854791902089233 7.290500021599666 1.438102330290891 -2.8294656046540303 0.35292221832359216
Ni 2.2748117993927686 2.984341963103536 11.740842548576731 -1.296868034097031 0.17099224418258294 1.319053826165451
Ni 8.531701120681603 3.9430504823247667 11.937390153579614 -1.8117617811618347 -2.2682413499538034 1.546355286462724
Ni 6.332555317295759 4.552624963971615 12.703940680534503 0.20312229194790823 0.47738083772101003 -0.9492451164991653
Ni 0.26283317328427824 7.555764951135327 1.3311537792176409 -0.48021830716980524 -1.6328407690504785 -0.1326828070794231
Ni 7.8376981434288435 8.624539014099899 12.989717107010566 -0.7174941050709708 0.004124306581018703 1.2670380952197922
Ni 3.23840799071269 9.319285363534968 6.392926430651647 -0.3243204954264995 -0.8719937509151692 0.5823096146156165
Ni 7.482412701045843 5.472798927692328 10.34157915158535 -0.2805029840209169 -0.48279326698583297 0.8482971786291776
Ni 5.4389011561789715 1.4405066148811916 3.9902276686598714 -0.4693399696944046 -2.645120079092993 -0.29230100509710955
Ni 7.342277752528044 2.849512833536978 4.915028195000239 0.2712742663337973 0.5999952048208376 -0.36647861685178823
Ni 2.3917163672133657 0.5301321549537865 12.625101414524341 0.4062718375893261 -0.6534672085970488 -2.0954848147819463
Ni 8.429840547400513 7.4648412410864795 10.385656475920221 -0.657198650615023 1.0775629617416733 0.3876089710725002
Ni 6.44826119747238 6.910926751590126 12.110994505390712 0.31371932287188553 -0.43810877959426486 2.2796771025945706
Ni 1.8699248481451025 5.655259629840428 5.925263557038319 -1.5409397718741074 1.4507156481795274 0.031299581444229965
Ni 0.6797488156569551 0.277071538221207 0.3390789995934054 -1.209312972594182 0.7403424704240539 0.5775091079031797
Ni 5.14969220865109 6.985040958166478 2.4746841364810352 0.016077622288152953 -0.6855787444196129 -1.0372624623504136
Ni 4.4491010954326065 3.8677375881044394 9.50988413264891 -0.12545697875494521 -0.25871622716312864 -1.3072678892741163
Ni 5.814471366986768 7.929290888441771 10.268859697066057 1.254825098093368 1.2039339676704555 -1.557672768358072
Ni 10.01656847054217 3.533424533414872 5.266383986184501 -1.7760769261657154 -0.6847547058564207 -0.5104465099267274
Ni 6.297328768006522 2.12520814770279 12.886003678565068 0.35575917355175507 0.5001381860221837 0.5592280502058046
Ni 5.791250278441846 8.768994813427376 7.524786773867994 0.3779663057764136 -0.2317391843536525 0.43603107112962974
Ni 4.624982953767259 3.869939828194534 4.12036611975605 -0.6180978279588194 0.3522125938510773 0.5128975425703812
Ni 6.592140883358568 8.406740256835215 3.718648721650711 -1.4638061628148982 -0.11742099582434617 0.47782435301633197
Ni 3.8120497194971077 6.278577204707741 4.464011282979298 -0.08076503516420928 -0.5547674433312897 -2.135706124195838
Ni 5.905209233990038 5.541263505683121 8.293568346585044 0.35920265201566526 -0.14539305555723994 -0.6699983734828525
P 0.7325774890080752 2.2348090838321872 8.043055638007335 0.5428166987273167 -1.3057205993916545 1.7437291059626292
Ni 5.5680063199417384 9.11778504136744 1.4812852251570594 -0.31091039266818066 0.849475258097679 -0.12588995252730578
P 4.9008855392317825 6.091498302877038 0.1097644780095054 0.40219021132078475 -0.2676551815239713 0.694664508770965
Ni 3.7137294562342715 4.489670632282198 7.024552118871506 1.446818112897334 0.2925928253059154 2.264069735074617
P 6.649064608218991 3.606544479697383 6.955831077477817 -2.7178198207505644 3.2328166690521356 -0.3586634916827436
P 5.064538925167429 8.668964794145227 5.528102101195315 0.8511043090606696 -0.19630629746733932 -1.2961776928982258
P 5.176063336818554 0.6946971010279904 10.530156877578637 -0.7690773764649014 0.20299553656205682 0.15844217543171424
Ni 2.0958449465015274 5.680692250627724 13.50503571280136 0.8119052702637051 0.6475045632557106 -0.18804457167917937
