# total energy = -381172.82499371516 ev
CRYSTAL
PRIMVEC
9.14709381078193 0.00000000000000 0.00000000000000
0.00000000000000 9.14709381078193 0.00000000000000
0.00000000000000 0.00000000000000 13.38769639448715
PRIMCOORD
 96 1
Ni 7.1632354247611305 8.662873994504709 13.00863716989959 -1.034122116949219 -0.3988716884705131 -0.1702661646498358
Ni 1.391629687412508 6.787921023429305 3.167100696897782 -0.5024439513372251 2.699704342096776 -0.08241645472470323
Ni 8.249187535129282 4.8458375317384075 0.3366990305959811 0.3325842780971885 -0.6031057254253613 -0.2892989850459921
Ni 7.5979784938186485 8.272658977546417 3.835106546357515 0.491840721900082 0.20513597994382735 -0.43494503715430255
Ni 3.8180517901662645 5.894881119053895 11.178525081527722 -0.6948082334376808 -0.8555047521212105 1.1493417342468721
Ni 7.95569388688447 6.13895302007354 9.246519857668156 -1.6733616119826598 -1.013247330382739 1.1296193161172805
Ni 6.745423626130003 6.738984072169885 7.22998542627898 0.19139343354675425 0.9857671226845991 0.2578975879165752
Ni 5.656892035340325 8.180145271931881 2.395179289534752 0.8646421956461046 -0.29683154597761136 -0.27485478459620405
Ni 1.168861367604673 9.066242532194039 8.707544741265552 -0.14371952450955894 -0.6037914386384763 0.19683543049793195
Ni 0.6789860207292294 2.7439909015994663 3.5391175709531555 -0.19410646160254313 0.10944466248708894 -0.16509387642027695
Ni 3.049284300708701 6.502330464135545 8.829962125582387 -0.5655329093779099 -0.5071308152899331 -1.0312985314574947
Ni 7.365651461101263 3.385952231186125 9.443426599476785 -0.403818233842511 1.2157726121765966 -0.5771604663145092
Ni 8.888377295326856 7.2952279867561645 12.13728502467111 -0.25932737838456627 -1.2847581382073745 1.0875079887695271
Ni 0.5832982736030998 -0.025569785710389346 3.092155814140061 -1.1185491743460476 0.760669097796548 -1.1432754734481343
Ni 8.704685359777011 1.2122917684606966 4.831927546358931 -0.5025429388089345 -0.07613499259136565 0.4605655659358842
Ni 2.316483183653388 1.7584372916095186 2.1824352697054588 -0.18917894239393868 -1.5299380214469653 0.12721124244189058
Ni 5.333084918595752 2.6151723811160243 7.9744618937244836 -0.36148347763004196 -0.3378447551651794 0.5778826891925144
Ni 7.764858071160117 8.733681646784929 6.389491916334385 0.26066075248400916 0.6230682845902173 0.40707350755501504
Ni 5.990669484210651 2.6418544534195254 1.0059177846794518 -0.8848333258819987 -0.29567686354787787 -0.8388347476646972
Ni 1.659118148287129 5.267353903315342 7.146218171654024 1.046786599790765 2.0870888774087666 0.8771958639413989
Ni 5.809428969770623 5.21729185953164 5.692314155667822 0.5874065695225497 -0.38640595190333454 -0.5292698132808175
Ni 2.5533197335615947 7.63482298721546 12.51773734853049 -1.5917167453166587 -0.2232103209470349 0.7889612598730219
Ni 0.9265365614804565 3.594432790644948 5.983041722779767 -1.6502247688548806 -2.973367677488041 0.17781415220042282
Ni 3.0237913505853355 3.77243523391753 11.974276497380666 -0.07141367585629636 -2.3269509479798702 -1.4803321854943794
P 7.8691257921706095 6.631084954963133 5.235218333751866 -1.3551541714324338 -0.9860031499548052 0.06118248504659139
Ni 0.9747874807128754 0.6344351008957705 6.601687110542077 -0.5224687311985841 -0.42413431969204374 0.9392746355500144
P 1.666051645306688 6.517953700163786 0.9695901020763142 0.08374468661782351 0.7242810460858171 -0.4236887475141929
Ni 5.707383992527615 8.50631233884934 10.878440037567481 2.097770011271697 0.1805040403277601 0.7729517718186429
P 6.951224087136675 6.496137881705147 0.525549926988876 -0.6522878435769669 1.0811640488293703 0.19128081922828993
P 8.712771390601931 8.98415651338992 10.927452909704556 0.24078869615043047 0.43263078719882914 -0.7942790725415094
P 6.127665506455948 0.8746030223270951 7.111263467814257 0.8646967030331236 -0.7453846608336517 -0.23489238527065354
Ni 5.473767219599467 4.8471364190428625 8.01442371665199 0.06830161258987591 1.6624197682591755 1.8189035344129383
Ni 0.4241333550826015 3.9653108515354987 8.46728900773477 -1.943016083324847 1.0240351650268622 0.5457025049155441
Ni 6.293456579647907 6.514258274311673 11.778601869092533 1.5842458908609105 -1.0403722116239889 -0.8186752419976868
Ni 8.229667637187676 5.04656135574527 11.268665116328835 0.3724307206701651 -0.6321946723715177 0.10119759198694829
Ni 8.133943301686772 2.049168517558941 13.177054373690911 -0.882520875698738 2.378465056698762 -0.2598824795570879
Ni 3.386555939369886 0.8927032913274953 8.769905052519963 1.7022906363121844 -0.23244109551668357 0.6197901280595778
Ni 5.33193238479039 8.431662907217913 8.613134843128384 0.4111841872892789 0.1689021944227736 -1.090031012301697
Ni 1.961200917509998 0.6248443731582934 10.698174603315165 -0.44091385314322773 0.6852031062477489 1.6734587996821568
Ni 7.433760720741944 3.598155657778141 2.2513019087039488 3.079829860308038 -0.19081159290135527 1.2101606653064578
Ni 6.185905052001504 1.416281104916085 9.98544038040432 -0.4474244005682359 0.36963310332036986 -0.5200061285907044
Ni 3.083668225902002 3.7940772575959953 2.597775523620643 1.3077754250381541 2.8630169582469147 -1.8485920626163068
Ni 7.356806221499794 0.8790256421278296 1.7253531684300425 0.4449625692913046 -0.3573931096107522 0.8380654735988406
Ni 5.912306332539726 6.254005164548491 3.526104915464996 -0.4052050868877086 -0.8762424988891941 0.9981079036381392
Ni 5.58947795482034 4.868650383409621 1.5444446934910832 -0.35779008793885475 1.865868590308567 -0.2894077427097145
Ni 4.9400343025925215 1.9968105532582079 5.550391508759287 0.6300650276230246 -0.06089246460999835 0.23033124826253235
Ni 1.753003917955669 5.339332383588309 4.8620498406005 0.3014379344013712 -0.6471132413545629 -1.0019481033198356
Ni 8.60956473245987 4.62718540409258 4.128765756998178 -0.6145720741937479 0.8325532855313598 1.887412120807298
Ni 3.6097267313002286 7.9656916602912995 10.36329492965479 -1.0403575563359697 1.9422077284909391 -0.28849937196283215
Ni 3.7132535377215588 6.475575215082497 2.3737055723802443 -0.01645608867349424 -0.18321346883912318 0.4513638448319581
Ni 0.6449780410867252 2.8971132500261376 11.602929190583646 0.6362755273091107 0.11336945146279184 1.9924211161205363
Ni 6.5739522077544725 1.677247687987348 3.83537455620273 1.540683175778611 -1.282732108916281 -0.025763739227665308
Ni 3.2283752481307917 5.176761087376407 0.24997360587059533 1.2210487729738713 1.2362563339522452 1.9954187652962794
Ni 1.4864484606377697 3.4755114255377104 0.5571567945368762 -0.7958122213565842 -0.3812390629904144 -0.1368618781577772
Ni 0.405603172678614 0.4454982218221581 12.775664352367453 1.0310717601586694 -1.1896730868760672 0.26416876563726766
Ni 4.072862379181903 9.019510030514716 6.696365018524461 -0.8531059128717308 0.5395570541394384 -0.767717005782265
P 3.625807322013137 2.1106552813656365 10.66131821869655 0.5925955699226568 -0.585731752923288 -0.4071827794393697
Ni 7.7943757425085565 4.692294417001842 7.277457927838094 0.09013773462836089 -0.6139699218333748 -1.0772557149138995
P 3.94513236284797 2.9575572451517917 0.7153795624069593 -1.2406338941946504 0.31651796866294524 -0.18555600092937075
Ni 8.327788511236236 1.8638392522379854 7.53206545137374 -0.8767037547963288 0.29796797357489974 -0.2240814106980786
P 3.9030923202333354 4.912730227917873 4.526621341318525 0.5897807261816811 0.9725220847492347 -0.7680605051646128
P 2.1116980500466784 7.549672692024068 6.961080080591258 0.16833937994076817 0.18560459477911903 0.1551236525814425
P 6.8655615546984565 3.391092897841787 11.552471077643023 0.3827513858698827 -1.2476920865930126 -0.0927026671420597
Ni 4.77618241326355 7.2723876938038705 13.23435359800479 -0.0014501021829652445 0.4052166568519344 1.7461189463510445
Ni 5.69898696051712 8.011738129943623 5.316160051134947 -0.26741941136408137 -0.02127536443900852 -0.6862503165653407
Ni 0.6111603209930426 7.647070945670855 5.229087036849213 0.21604851309127307 0.28777303531976894 0.6276895854123125
Ni 7.3682400886164805 3.0632885011532194 5.514432454031991 -0.23171347332203965 0.24480733039152033 0.40655902981244174
Ni 2.439822595014514 8.541171912914693 1.7968834411120362 0.9933526483413408 -0.1920369806680241 -0.9549997595947552
Ni 3.993053986707428 0.30089456175210294 12.039046153113906 0.42048412453396616 0.8544567704726703 0.5472135422434317
Ni 3.028730781179745 4.158698706400296 8.959019385211226 -0.16419604719635594 -0.1014863268719607 0.45197525316371195
Ni 4.991614763929319 0.5637545932178891 0.9990592938281785 -1.4273126958745548 -0.26161848841158813 -2.2048346035623836
Ni 0.2191076529117566 7.107767448604658 7.935249217770464 0.8217104292795848 -0.31037714587252996 -1.6250737235105497
Ni 0.9496970027120176 4.907196236233395 2.2820398023510804 -0.7971365965949626 -1.5230418085477642 -0.6037631565037022
Ni 1.6908494163093586 2.2883924589211118 8.364311026935042 0.7648581961772312 -1.3159808436670821 -1.6119050473390755
Ni 3.764916322901597 4.0773444550916444 6.562863186070024 -0.42675813046813593 -0.528982878168018 0.26397027647321636
Ni 2.9009824706584246 2.950468247539446 4.573866080244676 -0.523070369338325 -1.398245089084637 1.3736530015675696
Ni 5.587611947706896 3.705780362174092 3.6407573319455477 -0.8508245730367218 0.8973625686972609 0.8766831859710384
Ni 1.3088942249561613 7.300231447006428 10.392614109070083 -0.45873802580884226 -0.7498781778286312 -0.3451389748337475
Ni 2.4408928049766354 1.4555678723290213 -0.18277448205240282 0.7063905389586415 -0.025632870076755854 -0.36016784414241193
Ni 6.062904083107033 1.4218882733501084 12.391182733736153 -0.7367264709380215 0.7997295541331194 -1.0331129589584143
Ni 7.976905997159347 6.130144368846845 2.4929233033231464 -0.118832274349576 0.26589886095449694 -0.568458310554821
Ni 8.639805024210082 8.091345286356843 1.2859121520516206 0.8418956459782081 -1.0731848872786356 -0.04098029906710362
Ni 4.911989313328712 3.9129620343284595 10.351835450675761 1.1121137031333492 -0.8966310898478752 -0.7727044316945273
Ni 3.187945094006187 7.227457169582138 4.935748889197186 -0.1745352243388349 1.0494132387803345 -2.061388130208553
Ni 1.2276222974907505 5.27816576806088 12.337149936580166 -0.1699190657230622 1.3200498715301332 -0.005412172154506808
Ni 4.1966225568529225 6.689946502879837 6.793948043463853 0.9245018481162143 -1.4320604949721853 1.4818936164442285
Ni 1.95489856995528 0.5963374556629696 4.67260072428006 2.8744236574219593 0.3621409087083828 -1.417795500412739
Ni 7.8838709072042885 8.523252756369423 9.043951064863347 -0.8420864218327756 1.0139638968337892 -0.2820232773201853
P 5.24217195437755 6.542321557762869 9.74020496906688 0.9512834870854326 -0.9125104800822931 -1.0513287106354925
Ni 5.358943752466851 4.456665283461157 12.596443516214917 -0.027267834577017553 -0.28077217852190356 0.8289331722802691
P 2.8986774030477007 1.7007282774981762 6.443217371142273 -0.403530270288447 1.4284794624891464 0.7917470501482752
Ni 4.559588381698726 1.6332410202286431 2.932346940223551 -1.013039842357623 0.5206206222462518 0.5061175435340702
P 1.1120304744878922 4.470029187347141 10.326398297823927 1.008868741699069 1.3846388111551122 0.2344110747588608
P 0.21659403156482412 1.9202219377637921 1.539116511414707 -0.2085095244017506 -0.4547379035105136 0.49366260560016917
P 4.0523728893088 8.828253448480469 3.611866236515103 -0.6848966307509238 -0.8029064091992043 0.1981199536373104
Ni 9.06119333647531 1.8094872215121023 9.885742547403028 -1.0398860160161898 -1.7225177619923369 -0.9155024728310813
