# total energy = -340860.2183704627 ev
CRYSTAL
PRIMVEC
9.40075119899107 0.00000000000000 0.00000000000000
0.00000000000000 9.40075119899107 0.00000000000000
0.00000000000000 0.00000000000000 13.75894962221945
PRIMCOORD
 96 1
Ni 1.9355394421732086 6.424106661467789 7.897705416352921 -0.010733841477736355 0.3259246066888258 -1.5710605025188877
Ni 3.3318235999187475 1.2583751393442366 1.6701712802755042 -0.171786200838788 -0.7646915886923799 -0.12242410546589239
Ni 7.9123865693207 3.0996062466434253 9.290551719427066 0.6223823142667863 -0.37089911451698704 0.5316743089572521
Ni 3.342220830617578 5.442113603991194 5.785073685185468 0.23944683741055534 -1.5913166816647628 0.18669062875444623
Ni 6.6129395484907585 8.519487074321116 12.536700634267278 -1.8898364139780746 2.086821739790309 0.05248315750038058
Ni 4.65541174953223 5.175263883722661 0.39023833854559153 -0.9579855816959566 -1.8421774173392145 3.8426309168459234
Ni 8.092363948822603 1.1393240276173042 5.070475591540273 0.24801529580585674 0.7590626725413766 -0.1387045877934708
Ni 9.367923661148271 2.064198121507921 7.75417286865321 0.34394546874627857 -1.4256489350188866 -1.7134983321025459
Ni 0.10068204410892637 3.57271784644454 5.4642570731693985 0.7707588779323822 -2.1813429481983464 1.7673436600577757
Ni 0.3503782138746057 9.234432995756418 8.660900692726509 0.2706176065864049 -0.8689847888855163 0.3011206602712685
Ni 1.8949563997438683 8.502960553915562 6.375566823321007 -1.296724052319999 0.5911940615894399 0.3633048471094969
Ni 2.0910372658525502 6.6404743484156 11.768786180849556 -0.429757322305776 -0.21399523010667018 -0.7407998696764467
Ni 8.00896988595703 6.914581448520929 12.408054175908976 0.6860435998711734 -2.588645283934716 -0.1190850137903304
Ni 3.9215045131606363 7.5856352631453445 5.254322320188324 1.6354864342034412 -0.315141914251025 -0.9809640448690009
Ni 9.358588715321925 6.780987374867151 6.352190915675698 0.21509746203191343 -0.8985257357674267 -0.6976888974195856
Ni 5.478898742982625 4.053481657627977 12.303307247031357 -0.8996107413014893 2.3185658092399684 0.636048241789653
Ni 3.2869726164973017 1.7560791039809207 10.489713407843823 0.9759354813061579 0.2968138053657985 0.611570825473579
Ni 5.457230011734159 2.4649051364605805 8.319362945171235 0.11371552194830094 -0.9816186477338643 1.2042995785399904
Ni 5.232063221771787 0.5400402471431781 9.833658491573825 0.772735799153095 -0.6476616576588652 0.7648162871957023
Ni 3.853649891836805 8.427698140737592 11.514823950241986 -0.4835206320701608 0.8536633280370974 -0.2035174705037979
Ni 3.6477170385921602 8.584916301865293 0.2581718869429536 1.505866068099426 -0.6014337370395771 -0.4721910659899545
Ni 8.199899140471718 8.730703149674932 6.825236710219226 -0.7718773078075416 2.055161175462235 -1.0544528580867711
Ni 1.7896679876038146 0.9171165940961545 12.99938680111631 0.4196035217012258 -0.14109905616757634 2.6654647041876163
Ni 7.04937881831345 5.809776978883828 0.6547378710431407 0.3802921256961128 0.9401819778556324 -0.06423052784429584
P 2.082651795885682 4.771012785611359 4.034193196553962 0.1250528013379911 0.9722174090246223 -0.3863195628371153
P 3.9947739671088125 8.744456448510727 3.007417781138833 -0.6108663432073866 0.35796440873318996 0.2170453297869036
P 3.784770588644825 0.9907263552335696 8.221330032717761 -1.2055789594730464 1.3645739220844368 0.4107018483362217
P 5.944348730650334 7.647999845836159 0.7393662525260342 -0.16355738517109253 -0.31719725411815697 -0.3882386342366991
P 7.359791619104929 1.3277902853480006 8.156016434411917 1.033536162538762 -1.281022325314026 0.8223501197461127
P 0.02644149257377938 5.178309727073856 11.567231257384698 3.4554724030472816 2.104200340278073 -0.40466104145878046
P 8.722844121768764 4.802251481463269 1.8914292379371767 0.38754392216251965 1.1813717660992233 -0.7580607136394235
P 9.321324138025213 7.8344355413327245 3.9973046493006077 0.4316511968943792 -1.0321997031155254 0.8019995811142188
Ni 9.08026067797991 7.556210912252633 0.8329253475386641 -0.11894925954341451 0.6228111742740886 -0.5961622042279926
Ni 4.559777908755375 5.8635586758350104 7.920793661015062 -0.11462414980549937 0.3421801493157397 -1.5470029473490519
Ni 0.6714486461699407 4.226164054288748 7.66915623615055 0.22907475014761194 1.3589902573490724 0.7537307188055019
Ni 1.469243386907946 4.867191869951081 13.548506293656352 0.308443676295243 0.4619200230812496 -0.944393959054451
Ni 8.771417802619448 5.369323588348298 9.51908773857792 0.6953677054855766 -0.23456534094853798 0.5328418469027919
Ni 6.495909598246873 8.757843118054247 4.673007135336028 -0.4868103585650262 -0.30552316021433834 0.9617699884390534
Ni 4.892874721912387 6.396506056285361 12.492121332552157 0.7154953294733871 2.3673584052626393 -1.9773680784421557
Ni 6.53858900816793 4.6988808225443375 8.822609592647007 -0.5522817007949585 2.021446299708293 -0.40121370634012843
Ni 7.936283278576059 4.040424014372393 12.117961098585416 -1.483814487616025 -1.9251705705029942 0.7019245327674879
Ni 5.698566093560896 7.602001970782473 8.924839000384349 2.2550739593339095 0.836656766176772 0.2408673719071658
Ni 1.9392621396024463 5.032325463491454 9.866790498694037 -0.4250087518771971 1.3866941510222441 0.9591914290785996
Ni 1.8548903986241443 6.899794067065901 4.631620328689012 -1.5040706667619002 0.15174085215213864 -1.224472968164072
Ni 8.666101188226142 1.3233907338407198 13.014136579567001 -0.4874227953380444 0.22409812286862693 -0.6426582909070028
Ni 4.083432450581388 6.538118970613733 10.120739568250087 -0.9560361712790696 -0.28543590254616 0.5617647005847293
Ni 6.083329434675204 9.232637452299386 2.2776290138171107 -0.4419793182932646 0.16396130547773052 -0.24504310055141024
Ni 5.672469608551897 1.8337481094363781 0.9038775163446512 -0.16874252891645777 -1.663210896701903 -2.321630307097905
Ni 5.495105637851326 3.966505908599425 6.743839366883881 -1.5411351757143652 1.4728783003194956 -0.3061512807166405
Ni 7.313511721518725 3.571025711249432 0.7103611751316661 -0.532911780908779 -1.1665943506797327 -0.15627602101833085
Ni 3.6976068245945948 8.300214555288372 8.024384297509357 -1.4009434618524066 -1.1627158415609329 0.3211960908649049
Ni 7.049660840845967 6.05666890460117 5.428015297590619 1.1985346510317552 0.4662510463564357 0.6664420235901619
Ni 9.385888496469667 7.82646370441355 10.790992438882155 1.555126862007767 -1.2895028519812113 -1.6469687238114283
Ni 2.6061326199945114 3.440402274938178 1.5400254021193138 -0.3330627603955038 1.319475744194218 0.12895650726777147
Ni 5.712488605916201 0.15364305549048177 7.463459341758113 1.611790376138082 0.5200557508817173 -0.9091947854454987
Ni 1.189740255680439 6.172956195509426 2.0119844698375378 0.30580341045891846 -0.6871967396390101 -0.006157792071279718
P 3.401887397747303 3.7281404641152105 11.777935931879549 -0.7001720688527555 0.5730199617835744 -1.5436520285989481
P 5.408299102342285 6.276937903248813 4.189696660683954 -1.5872168005637761 -0.39559893125651224 -1.6824268075087219
P 8.000603217492332 4.674673888503209 6.876392777392666 0.4719997759147548 0.16842576900698739 0.9827059672607721
P 1.0638077941600677 1.5936059229973003 1.8291699436585027 1.9682208647252493 -1.0073605325846586 1.1272281901772843
P 7.7902144082339015 1.2075828812377445 1.215108182480433 -0.5641463134430285 0.32293415660193414 1.023259206092786
P 4.800775563543092 3.396528969629461 1.8950616881560083 -0.48722250640178016 0.9409350539715731 1.022799235737232
P 0.09320092639633218 8.753387162040463 12.66112333516357 -0.005672110684112812 -0.37638070645684857 1.1183288308051256
P 2.9455279363777582 4.366235245439356 7.77194874887782 -0.5234136116103566 -0.259484729898037 -0.06115188891897211
Ni 0.25835614166419874 3.0645132428471022 0.6524497282293114 -0.506720724335708 0.4260526197606791 -0.5276875563953621
Ni 9.371401939049328 5.249200790997797 4.0784274907043025 -0.5585446509855349 3.256003134470928 -0.6003291911214886
Ni 6.616088800103877 2.2326877831852583 2.9122464573153084 1.062230959370293 0.4308001617479935 1.4329305562819645
Ni 9.078427531518544 0.11281653360806755 2.696478538286653 -1.0663910042852538 0.3756566838066305 0.06733976289723886
Ni 4.328829656876385 1.7005112643237905 3.691512317666881 2.889471552894017 -2.718656457719247 0.9937115743426563
Ni 6.9926828885262475 3.5587013265783956 5.233258057234555 2.328122342580152 -0.7214597745869381 -1.5337795066802422
Ni 1.776506936086308 0.262271554490657 4.0510750653504894 0.6513550473500525 -0.22534073702647645 0.30794693916448257
Ni 2.5338126419058122 2.736690251048178 3.949643781380174 -3.4424669919265485 0.576254409560472 -0.4695515714845784
Ni 3.958628079191089 0.21673901661562572 5.990316523300551 -0.5374749747994292 3.0040301395689037 -0.6507845195585631
Ni 8.1766228807879 7.288016884579098 8.461602889596906 -0.44477693564305976 -0.46102296518827696 0.9807989800460463
Ni 1.3527680809780114 0.49412415862392245 10.91296624412108 -1.0509312180867578 -0.5692620374030389 -1.7694745903578495
Ni 7.494532584390946 7.314461197378202 2.7936719636683316 0.20160405553116892 -0.28222999401435267 0.27914544155175797
Ni 3.63261003160028 6.472106896502353 2.474326569196898 0.21614544368045355 0.3945357800993205 0.37276702096366127
Ni 7.644154938642829 9.17765245920946 10.301971948021698 -0.5353674415381232 1.269741095973252 -0.8032787049369586
Ni 4.225684615983468 4.181971123443177 9.545463425894111 -0.10999102190886219 -1.1322426126727403 1.0914677447482233
Ni 3.857729817807232 2.3010970488230416 13.30306020345572 -0.40191587461347555 -0.2546302300192131 -0.6819408905567094
Ni 8.826478001718044 3.2250028653520126 3.3361874285719098 -0.15473207356997867 -2.508778335104744 -1.2480564119109667
Ni 1.2253220985331266 2.9412223923813166 11.773368106927864 -0.49841683245570284 0.5806612803789161 2.0602457890739934
Ni 3.269393211970346 2.907426692234576 6.109056470166606 0.3670092925442776 -0.4435703169294683 1.0922899835392026
Ni 6.2890554713960025 2.28864105363683 11.581732856006775 1.7507235350025914 -2.3785820418926007 -1.5472772840563611
Ni 4.877119063095714 3.944404742801098 4.155670642135657 -0.7350483119046503 0.7713252919588135 -0.10777395965288537
Ni 1.903163255440142 8.801105374542509 1.7429424944162322 -1.0275627185641465 -1.0157868089751407 0.0555805654787817
Ni 1.5139815613163847 2.912672311339411 9.639905251433524 -0.9353745291646601 -1.7162982634451862 -2.9935662639231024
Ni 6.892254664696587 4.904550454758632 3.201033770313308 0.048654527782909754 -0.13661608069555825 -0.7444858031684662
P 8.395613377288127 1.9398731884229021 10.957146013915132 0.7804426808790493 -0.2605872189335964 0.11013166125178453
P 0.8371923484556615 1.2257639338340718 5.750085029726176 -0.18835361827916594 0.3547168483301697 0.6771560675735565
P 2.025391821033444 7.511632550612621 9.66457470242798 0.017565005466956846 1.4137179879092556 1.1176150925675528
P 2.3096799345626726 6.849594056277697 0.07533479896131683 0.33607737885211153 0.4842865637019078 2.332263618442035
P 6.042906205014291 7.544572782410723 6.731882551580226 0.2590594694351603 -0.3956927765218991 -0.060851584069733906
P 5.735219622037152 1.8396987848725082 5.669733049911364 -0.8132494429964251 -0.4279853180070178 -0.9464310440891378
P 6.323104991822009 6.705480542160999 10.730178040045079 0.6839080415854093 -0.2015418348346658 0.8856907887862876
P 5.0083065444720045 0.7433615717367058 12.078706382284237 -1.2257101830052826 -0.5947067027283888 0.573457049320993
