# total energy = -340894.10536979587 ev
CRYSTAL
PRIMVEC
9.06570736082363 0.00000000000000 0.00000000000000

0.00000000000000 9.06570736082363 0.00000000000000

0.00000000000000 0.00000000000000 13.26857909831136

PRIMCOORD
 96 1
Ni 6.556482699964558 2.2198290887579146 11.304789228403875 -1.4231940457204908 -1.1461257984127358 1.5297369611797527
Ni 4.730105307899013 0.5544341808784384 6.017287066481747 -0.6831688494265395 -0.8587901077407016 -1.0076117293635163
Ni 2.6913093281560725 1.3863642226954807 4.6112420998150805 0.060771365651101784 0.7899701607535105 0.36753225492728314
Ni 3.403710738973578 4.055244990998629 4.704733112886733 -1.274251839359412 0.4685904931228897 0.50293374648945
Ni 5.130564796332008 4.275043064415828 2.9154915776221304 0.29514361675222717 0.6818570725936514 -0.3114320694996056
Ni 7.3240761368065606 6.157845418698271 2.5935556195133427 0.13462039042176815 -0.5595404392399008 0.20753250520046193
Ni 5.133148522911671 4.559080739739991 11.710357242898766 -0.2859041004318302 0.3713706548367669 0.17333606182441114
Ni 5.673102049524516 8.045552320628422 12.526533805145707 -0.1556054773138675 -1.2942483370859967 0.06707725326447157
Ni 1.8767736589298978 6.6493880683448205 0.36648121748361806 -0.053042115327644135 -0.284875916277632 0.011480489835773777
Ni 2.717735864927 1.5832713851876064 0.12047327769988996 0.6366637638864648 0.8929973497500298 1.001041018124534
Ni 0.48918284603712514 0.023610728084460974 4.765065394948661 -0.01792675968174977 0.9561001917477857 0.11788328017274537
Ni 8.479237626305139 2.351100530419332 1.3208925911668488 -0.2854065919701214 0.7272565837743733 0.16004757224562113
Ni 6.956099077618927 0.890221633166403 5.165909269371053 0.29503254509565957 -0.14394038227111342 -3.012606054163373
Ni 0.7491764524680264 7.69945987885589 2.65577266212233 0.5158941633048599 -1.0255132922342853 -0.533219799067501
Ni 7.553048706008385 3.808122875788092 3.998406632528986 0.38629385180550246 0.12589072385825414 -0.5954320109301875
Ni 7.5448442409045455 4.050104734961196 12.707875148208782 0.5306669507386602 -0.4326469851487452 0.4785180366492468
Ni 7.721716190270171 8.828367080022186 7.036579894148571 0.9121317565866355 -0.3639939027567215 0.9885336296861427
Ni 6.833557912084578 0.7156578128786095 0.364055234210925 0.4338260930585109 0.7705377630605117 0.12030114558561862
Ni 1.8807353730187126 6.45992385154358 9.31746198869853 0.5342610958478219 0.6153524040031982 -0.6102996720706393
Ni 0.27810688961042557 4.785360793874588 1.4791145674809634 -0.573122805910026 0.01061942738705913 0.0013171761495267638
Ni 6.502668661449214 2.0401286387156072 7.087942565410788 0.16541860674954736 0.5960837855815735 0.2640990887415967
Ni 3.681656258994116 4.327651363860663 0.65002481176009 0.04694500129097077 0.7518928942658147 -1.405249545426928
Ni 5.911530151437173 5.739916312303842 4.893358751762994 0.807182667977055 -0.22646970842459707 -0.631425398305661
Ni 5.361876318016474 2.7926458043226003 9.155386180212437 0.1719432952419426 0.29210277304337434 0.1621201385039337
P 0.2523158589210219 5.491352749633073 12.508726942872824 -0.0624639228621763 -0.48283286197451686 0.6768449640910408
P 3.9054160465001315 6.276950681167035 12.779246742046341 1.0107546458678722 -0.2422547391729957 -0.7502250196450886
P 2.436970909937077 8.56071113778381 1.44358152773014 -0.9416531630845203 -0.316175497721862 -0.8183546254334744
P 6.381704928984553 7.861971747862974 5.612157832220036 -0.5395190018126516 -0.5331709481074366 1.0243251854634554
P 4.882835278732569 1.116414656510949 12.467594922295335 -0.10010693002593082 0.3144184058214392 0.9952573215632214
P 3.9461664008004123 6.163774391270548 8.235183346443929 0.5720588834218857 0.903884686086495 0.06031730883281871
P 4.7274581213682705 1.0248147499814628 3.717789448568005 -0.27663064554970423 -0.04675679653956463 1.028553621722506
P 0.24807220133526844 5.647427966459245 3.609067140666563 0.3475031041905499 -1.1528019248813308 -0.8118312224926599
Ni 1.263460428869249 1.1640005541132128 2.1960959736249435 0.35381413401024225 0.01577603188733412 1.2123854408719184
Ni 1.8648250567123736 6.3667193148225145 4.8422753042855256 0.5345883972802535 0.24244268681408568 -0.15243376445410523
Ni 5.949252559500236 5.414022266389158 9.03742863628748 -0.8785284667098935 1.3990182198052357 0.49208137715597833
Ni 8.579259574913594 2.3681531258451 10.293139698559203 1.6013833218721454 0.7757162219376575 -1.2045127229920611
Ni 2.3650526539495065 5.31644805875091 7.101303604825195 -0.886185726144835 -0.6340738916721016 -0.8101530634592886
Ni 0.5550569949697464 -0.1438056885703312 9.115805302153476 0.17788999974368072 1.239683100245607 -0.5750891856077773
Ni 1.358115478757844 1.0408791833118516 11.522553863674347 0.4498286391343543 0.31263148912434546 -1.5938391909763003
Ni 3.9722665721086456 6.844182921036731 1.720537072513839 0.8041117423612151 0.1338961106612339 -0.3760564903482104
Ni 5.584502892110356 7.843096945270496 8.030276603832878 -0.5215922421309017 -0.10029513477733694 0.4083338623246774
Ni 5.285724376721176 2.926646023880432 5.208156371946079 0.7895382154224144 -1.2716642811378938 -1.3523889499824708
Ni 0.5892628151722804 7.4546041904696185 6.889192344625171 0.736139745196616 -0.31968119688227525 -0.17161496536824636
Ni 4.824016969789248 4.593838661516916 6.745944197053609 0.4200226115165154 1.1258343951535512 1.4027067244004165
Ni 8.35133862775823 7.021480958645318 9.328885686463554 -0.7802968993298045 -0.24946154133408005 -0.23052999453689976
Ni 4.928064092437597 0.1621637458468761 10.504720614882348 -1.3865293433096058 0.6825247880846373 -0.9358208726734593
Ni 8.258016236842302 7.246283302490495 4.553206161411497 -1.0202759550947462 -0.3262022858302447 1.4139923246165647
Ni 7.195678524358311 6.205975258738358 7.101396981610355 0.4470410490868882 0.29639882931556694 -0.606788059372955
Ni 2.5461220257936694 4.9780524024735815 2.5149931066477573 -1.0087633264694564 1.28647717778101 1.4600814056651434
Ni 2.534264080649116 4.936885025637635 11.524663453762372 -0.19784073183399475 0.9505962312104209 0.6262718791291795
Ni 1.185966762893987 3.2786674382252405 3.687961458419221 -0.7386478563304505 0.22737139430326 0.06694149901755568
Ni 3.6149689161169487 2.493323346495597 2.4838252049604677 0.19499323508287064 0.11491417024209241 0.2886479817255545
Ni 1.0648761105271674 3.4560198700776095 8.184722713057766 -0.22008437372354356 -0.3538529576679777 0.890366339885086
Ni 3.658819742312824 2.6925060015192845 7.26824860470054 -0.11112462129267313 -0.3418009115994501 -0.30740417928713515
Ni 4.140888727833947 6.964711499551134 5.988507978667232 -0.31235098176944914 0.8759041417131689 0.09074142965063083
Ni 0.63069581723203 7.2078084407217755 11.353604435915623 0.03600984243570572 0.9623945093969296 0.44231201904233497
P 0.20916037247483096 5.553761078666029 8.055274385133789 0.4887371432740938 0.0940391265652961 -0.6056254065234216
P 8.5252914193742 1.6592510780442593 8.000356143469663 0.6097576835242402 0.13775816471980146 0.27758118238843166
P 1.847563950018773 3.1462537174443943 10.470779513332888 -0.16634754632171997 -0.45585479072377627 -0.7701407847324091
P 3.9607077953048955 6.047633615087923 3.8747966201043136 -0.07275630592711987 0.09971509390415084 -0.21263228832087253
P 6.907951106164246 4.122113648021737 10.445529705369118 0.5074383192280228 0.11008512428456524 -0.31113305020194804
P 6.55777003040074 7.886086529273151 10.072191186886005 -1.214889952461327 -1.683920875555745 0.5037364448964033
P 2.3571201600645795 8.5145032276907 5.635245468993457 0.15750346566752876 -0.38301569527486296 1.7410667286391175
P 6.995453312995461 4.101507295335521 1.7648003883917305 -0.12405264220825088 -0.4366607342938286 -0.7826422596335295
Ni 5.408156753767961 2.8630410214842645 0.5038584130096045 0.572507283813214 -0.4543463244990498 -0.25687865973375756
Ni 1.4903478853927496 1.2133542646384028 6.972107303564075 -0.34858553862145125 -0.9409476523770633 0.2895856630484755
Ni 6.812090317205142 0.819115664552649 9.197035852676585 0.8723868725885298 -0.1569185396983362 -0.4567047974288973
Ni 2.8073775786803212 1.5902973083428271 9.209494854214933 -0.3861791806045091 -0.8239426610442133 0.7732932143184618
Ni 6.370880474471865 1.932092604856553 2.7070691537212803 0.3840343663473644 0.4168542410908627 -0.00455882301527602
Ni 4.029026965495533 6.851698392385993 10.483345490217342 0.428091761677895 0.14770936239524238 0.27296322400044604
Ni 8.237310161375818 6.952654108846045 0.4632376983236714 -0.128081817972302 0.34123681156586394 -0.24839659040467543
Ni 7.595322099134571 3.9591484936498014 8.166969338457935 1.2585614252073487 -0.6663193819693686 0.638957702126964
Ni 3.2914954140505794 8.604416912662934 12.440752269559473 -0.716171015384173 -1.4020953160686627 -0.3768401625917704
Ni 0.2777025590649767 4.966847188254416 10.358673883468185 -0.8409605357584485 -1.5661121573746768 -0.21309997198591044
Ni 8.856334787033614 2.4551113902384922 5.725364945521332 -0.32547157831180723 0.2503627129921107 0.5939559406052932
Ni 3.894482803499878 2.6661882532359216 11.237411985201403 -0.4007822752296646 -0.7744093302007761 0.4934378911838728
Ni 0.9639203940671162 3.3142412736589013 12.538064478256835 -0.22811521444782001 0.3062700656826919 0.5221874525127393
Ni 3.1506324540688735 8.651875890363039 7.782658594433191 -0.5735020436263155 -1.2504519087263366 0.26345605584095916
Ni 5.60745726298651 7.762575333058017 3.507150459233024 -0.39583238742355703 0.7588402721179254 0.20387922471859082
Ni 3.091451516833671 8.20484586354505 3.588367411195188 0.4817748530236477 0.1428864870853023 0.03685547826545266
Ni 3.677313785198825 4.346734677720973 9.43633516906049 -1.072671695087643 0.23490601211740833 -0.4625268034273131
Ni 6.949472045584777 6.137764877035285 11.504123280739424 0.9712252203146822 0.6470489637755308 -0.9410353269948631
Ni 0.5334479750564761 8.859154222003 0.1337735768754055 0.12586861237106708 0.36092580535435903 0.5064181054936246
Ni 4.408435881584758 0.33273321549958546 1.6162986634415226 1.2929666421600958 -0.12377393462556747 -0.6087097018757001
Ni 6.027679993327095 5.703916388627221 0.5165893857668648 -0.9272732402137642 0.43881120497792814 0.12776685783504446
Ni 7.913600950919726 8.991114657418994 11.253346778917443 0.8961886029938179 -0.3094998854738993 0.6639351980079082
Ni -0.10520209375799375 4.988768068498705 5.770226598080829 0.6205324055422409 0.02392745734987492 0.37440147124329065
Ni 7.804032812527468 8.907528836140107 2.739550676395914 0.16653420841122932 0.5278652196238071 -0.052334804847974384
P 8.585415190168298 1.7038543579457908 3.6583066232798105 -0.4332627643558732 0.15715610963043902 -0.47935981582425186
P 1.9251845358961939 3.238216252265763 1.3916613154691522 -1.2978309122309326 -0.727603682701147 -0.4019618973600626
P 4.820617329552852 0.9262251831259439 8.1191096564953 -0.09637240268416306 0.6777703041187876 1.302970033229711
P 8.544692032989907 1.6389529594061438 12.458997005494805 -0.6930200311890065 0.11273901696764456 0.6132096466285827
P 6.37123403705645 7.947443236259648 1.437862879567155 -0.5216909724922951 -1.3656748684580995 -0.5899241937380808
P 1.8744528378618506 3.1756175433795693 6.13454201809118 0.17395904012039073 0.7267282220747291 -1.633100193359452
P 6.91034445289067 4.143943871193056 6.122957857306998 -0.15714042590115518 -0.37791925458856207 -0.416302996573083
P 2.2184782983706532 8.443872302139312 10.374754635071707 1.444666356661654 -0.017504584542666627 -0.3050824731324939
