# total energy = -381170.60240584094 ev
CRYSTAL
PRIMVEC
9.20902544645762 0.00000000000000 0.00000000000000

0.00000000000000 9.20902544645762 0.00000000000000

0.00000000000000 0.00000000000000 13.47833960344510

PRIMCOORD
 96 1
Ni 0.26361479892956924 5.0493823093050745 5.879790521097824 0.052942356524986245 0.9293105823587672 -0.1056682261637922
Ni 6.59170067741224 5.346677276898644 4.080243813188993 -0.7646558503584379 -0.39735216650219307 0.501158142646266
Ni 8.051165443826896 5.301608306499273 10.652268486891527 -0.7816084190523764 -0.34032227017139455 2.3270843882339407
Ni 0.6358426854529834 7.278832109032422 3.981514772577094 -0.6908826731310295 -0.1256516112642546 -0.774171503158357
Ni 9.0787361271275 8.218042193440102 1.799574334985088 1.194843318223097 -0.1419799161106329 1.9327573817113164
Ni 9.08102917445677 0.28586656704889973 4.647668044293358 2.0162686121620954 -0.6480712343924581 -1.6071179103630773
Ni 6.425744830340911 3.9833639448811793 2.149485069308698 -0.07125195346745149 0.019304870976199012 -0.06786658193498633
Ni 4.138895175178482 5.55140312098292 5.2967183140019145 1.4507141055176307 0.7201621388214371 0.39070586483026903
Ni 1.8955029109671437 6.79573584459011 9.14659006821795 -0.4458004918115678 0.48602642921115013 -0.710398374566454
Ni 7.8328747053007985 7.561742578921902 5.302742858430863 -0.39720895605610945 -0.6762947480145256 -0.33796739678597276
Ni 2.175623046154742 4.003927698641252 2.5042885588372923 0.37420426763082004 -0.05574871562552979 3.8655492162049945
Ni 0.8788191375165876 6.7967580464115915 11.076553152302063 -1.838891033278459 0.6490500533659597 -0.21034272095574744
Ni 5.464626474462021 8.174225650497679 10.53835007975394 -0.6784205361082768 -0.16187768347582446 0.19518966736439286
Ni 1.7141864094973356 1.915845648117167 6.278129678293568 0.11102126294558945 -0.06708265258111028 1.0697676340669704
Ni 9.171388131865566 1.0274785930464174 10.416990780078 -0.8383670639996593 -1.5008557593690282 0.8644419067098403
Ni 7.978635159628805 1.5558187993710575 5.952438680821274 -0.9918236132913241 -0.14531797934493038 0.7322437525763196
Ni 2.092493173699668 8.916832251240422 10.428420101525212 -1.215517301632681 -1.849726433331066 1.9906198012457397
Ni 4.239236716141204 3.2792418613634013 0.7171666680234404 1.6281464488986026 1.046604565686946 0.8270205286385885
Ni 7.6032844925858925 2.207909889272887 3.5495884578740777 1.104739265046149 0.10327272934842215 -0.8858633098084099
Ni 1.0123665823342454 7.5226226389430435 6.442134132878665 1.1366713378680553 0.016024914673346595 -0.6819992545984706
Ni 5.963193901607835 2.765580841556252 5.632760256044886 -0.20153977795213682 0.3153344898778053 -0.1972864019924215
Ni 6.6813689579146285 4.881216296133244 6.437484495944736 0.6190655911887274 0.47417004409319624 1.2367137332046378
Ni 0.2688528925877554 3.224116635206752 9.797175482463812 0.375505760051063 -0.4268707447866003 0.1244316228142244
Ni 0.46900185103891145 2.5116788017358407 12.452476402825425 -1.6786948512701154 1.014757082159046 0.6710813221343863
P 8.853934607630345 4.6806437225128255 12.753420907192448 -0.17558037777389762 -0.08141938091875656 0.43322291225687326
Ni 2.3385951689903965 2.3702005442275533 11.268026287906213 1.5388417516944983 0.4743487357629056 -0.923995340793441
P 2.351027353305712 3.4576206837246275 7.851456676790756 -1.1256783291916614 -0.4747585696068146 0.11579837261925864
Ni 2.424690347630309 0.20159017092919074 4.8867205306260315 -0.12399016440143161 -0.4754851633601941 0.3228616514927859
P 5.715894733012669 1.7899398525919896 2.6765553510280924 -1.1853394924977199 0.4504289917225146 -0.9384930201889836
P 5.401636740597757 4.86537677241299 9.310109207163478 0.9733841756392141 -0.957022446451739 -0.2046623827415185
P 2.1167589556780797 0.6506563237415879 12.571610801960194 -0.9076706354914883 -1.011820111017909 0.49717370407722117
Ni 2.988236658130838 7.259087958534617 4.022920392664886 1.8999701599779666 1.8225501300265903 -1.1618694344002376
Ni 5.388817777214854 2.4686634440048496 12.34318000554551 -1.332812313402124 -0.8256092501133588 -1.8985953911176272
Ni 6.918519780498332 6.658889726867455 2.1628961730260268 -0.1394599779022566 0.0810159748327508 0.21412995591232156
Ni 2.8324383660963917 9.212985299682067 7.567090259982572 1.084420608093455 -1.436908824203422 -1.1407038560662162
Ni 7.104938082050127 8.667626814383574 0.9204439324093466 -1.975912576942552 0.2741209917539731 -0.125236635214023
Ni 3.131050224324844 4.497697223543898 9.720484560581529 -0.08661069531170891 0.13158983112556047 -0.523556307835808
Ni 1.5573935427176637 6.426398671145643 13.253668981477187 0.4740731135040158 -0.04997427503559781 -3.3247577754378224
Ni 4.465198572841122 2.393075763367733 9.43951443234778 -0.13836365951428428 -0.7398184795997839 1.844825910705655
Ni 5.070157870649779 1.4315337923195803 7.316676598990783 -0.2566567735309386 -0.4659484275143524 1.1443597076512486
Ni 5.8338715576523015 7.136847355126103 6.60423784461733 1.210452999735896 -1.3760006758641399 -1.6069088796760649
Ni 2.394245309595915 8.937580185508871 2.136546388595352 -0.8292841278617847 -1.525345002759644 -0.6433946548523951
Ni 5.236739931449583 8.43846021683793 8.337767812006755 -0.3090085476597775 2.1927157088116624 -1.264744928310241
Ni 6.761772958845753 0.7393502893546722 9.986466079043717 -0.7622372136146163 -0.4706512323066604 -1.507883098529455
Ni 2.6076736827009115 5.7406301752874365 7.258773009865297 -0.5007197695572667 -1.4892382297347577 -0.32004037999390683
Ni 7.348479968274443 8.724575427573136 7.36216550094925 -0.04624797522394616 0.9842082628379114 -0.23868450532323407
Ni 5.507816803675968 5.932067395692454 11.250032773140514 1.0877090490367398 -0.9173729503809168 -0.5817575987668884
Ni 0.7599840317079279 2.8323554848676222 4.308041028654868 -0.540297788960205 -0.5036078897383391 -0.6540246237624155
Ni 2.4140815503479067 1.9791392798202494 0.7900772849713257 -1.7052072957383473 -0.9109068830405989 -0.2680279914823578
Ni 8.848105294540275 4.903806035485442 3.470551076315097 0.4818836106873701 0.5279428669392778 -0.3958059050609958
Ni 4.085307856266764 0.6294341246640739 11.628006170622687 0.4602140961337364 -0.34204079552439803 0.08437486400265469
Ni 7.8097600514997305 7.783947153250969 11.122514477264513 -0.26914025070993003 -0.2913296423227757 -0.8467856270806579
Ni 9.14588834048104 5.970947901010424 1.2794596301644772 -0.7839517224735725 -1.5380989599912027 0.3441079624660719
Ni 7.023990748619298 1.991562255110146 0.8753141824422105 -0.6277134966717124 -0.251276997276264 0.1926833560027714
Ni 0.5045450055451267 0.3470817217149699 7.393866650050763 -0.7560655375862657 0.284630118815413 -0.6500589542464482
Ni 2.0975120925528876 6.552626782560476 1.7649483994105803 1.538206174993028 0.06455860060767592 3.1457074368374536
P 1.9465393298378675 5.696795214294177 4.6194175170162515 -1.0696691608158932 -2.6032419508019684 0.18100926209895277
Ni 2.202927806521342 4.371238886493595 0.4996540921452275 -0.4158440546587935 0.35193620026123906 -3.491903392180806
P 8.536039050175026 6.594767282876685 7.251117547034688 -1.776501929518276 -0.08632967373618035 -0.08199170848245879
Ni 8.858051041992528 7.987392942802038 8.884382408372366 1.2988045889981115 -0.9397106946461687 1.9433420992056982
P 7.812412250820331 3.672080467676524 4.971795349249547 1.2090638326978531 1.342459606683901 1.3797724842017463
P 3.8877374249328587 0.3220497488217182 9.542300048656639 0.4436194249998489 0.7784001965277239 -0.997334001586592
P 4.090980615924716 1.7145823975903418 5.371630052173295 -1.5963974386217799 -0.4308371856335161 -0.6230256042777399
Ni 2.998642856854028 1.6603596559247302 3.0370205493841347 -0.253540339389144 3.6307573610679476 1.1701103342527914
Ni 8.928969746742338 0.747822592739924 0.3293175116821973 2.0878812914030753 3.3352640742857846 2.470115114206591
Ni 9.042314431596337 5.145598206880195 8.747401838878597 0.8619597637179349 1.2016711397782078 -2.0999194535145316
Ni -0.11164009424898867 3.3586881236509747 1.6622161954491506 0.24305795180058137 -0.813912530501721 -0.7543981771861717
Ni 4.513067086967795 3.66443697657896 7.573721679186615 -0.11853942569950554 2.3305576914945214 -1.3486693350390384
Ni 0.18676640271262565 8.157281043727176 12.862137135870983 0.7139318416410091 -0.5496211232436599 -1.3012080562332815
Ni 1.8043059322452426 1.3434770912654734 9.07630033990424 0.46344622991778894 3.58890391536727 -1.4034783124591186
Ni 6.718886527470625 3.2193924051669316 8.664590598703011 0.6337373342682892 -0.12035950962737979 -0.19384498041104037
Ni 5.562002709239904 8.0716463163582 12.707512994577426 0.9668391754318447 -0.7337085100473042 0.8218963200381457
Ni 4.497402534730497 3.6541873312878894 3.862986327314879 -0.1034208248905122 -0.8670832009874292 -0.8454188286401181
Ni 7.519307389792292 6.558069316582958 13.145127724281606 -0.5508344268254707 -0.8650018929783684 -0.19626978780244908
Ni 6.688091546470318 6.758485336771259 9.058024108058186 1.0838122850854945 -1.1545513034722696 -0.36298937275160714
Ni 8.853649127842365 3.2158469303807125 7.158777728258319 0.41368767043742305 0.0024872851982279745 1.6210633167995758
Ni 4.494796380536991 5.661966680160457 2.290994637503409 -0.23491038299278255 0.2931031892834307 0.3889279469942399
Ni 3.262895841245116 6.94006889997821 11.18778989123771 -0.016635294563835865 -0.6262842204243537 0.9646876763064804
Ni 1.5096171188451784 4.618169694072011 11.480350498863501 -0.513061064731439 -0.029671301812187606 0.3840330807957838
Ni 7.015997314555821 0.008977878880741329 3.361335718458866 -0.33066752069044986 -1.532868564830199 -0.39953349042422803
Ni 2.6138529387568936 3.8502751095293757 5.593079486418024 0.3444242081549101 -0.07785068973089174 -0.46245661231101004
Ni 7.305289639060495 2.5999381013491596 10.992367925534 1.0688878025651785 1.9627570133972 1.0096081909682546
Ni 4.406067420627315 0.040970033185485796 3.4041834719272352 1.8660400828894248 -0.32576185585871636 -0.43722174900362126
Ni 3.426153443868752 8.03452473489521 -0.03989994443182681 -1.5588444200686702 0.10024474115537574 0.4530384043209036
Ni 6.588228874829372 3.9798737242474727 13.150586834549843 1.9382562000423589 2.733864790028569 0.3207129805808993
Ni 5.3734202867147 7.317371880409899 4.176115293213452 0.7836187646141859 0.06871530308852682 -0.24336854106246472
Ni 4.224115496403614 6.6029817335502115 9.041351167537535 -0.296053015940374 -0.7562863953478202 -0.4728924629323533
Ni 4.51133579018907 5.719734896612288 13.28535631704057 -0.3476334591208271 0.199944665550875 1.5702094673725022
P 3.72671761548598 4.364810986751306 11.86631640950661 0.020499405504932438 -0.9901647375316626 0.5186254461930938
Ni 4.704163573432317 0.8769368127209946 0.3657134219421889 0.2694279571536779 -0.3705535582521102 2.243027312582021
P 8.127563518700862 1.3298937787728144 8.428625898593246 0.22772543520856908 1.0714388511218065 0.04950556292929539
Ni 7.398844128289597 0.5415017454531204 12.297973820667396 -1.57257256828804 0.6190902737790758 -0.9144570622857026
P 3.8554874179163887 7.397011532231266 6.843087732390791 -1.69571941085257 0.4207227229073335 -0.2219381391028307
P 4.858709438009814 7.8166299844621205 1.6899685144511014 0.5879837821822583 -0.41915589264084585 0.014646289158265099
P 0.848828104435338 1.2493240153841532 2.55917250852797 -0.754976418287145 0.49016513396987194 0.1787585183915631
Ni 5.918484083199794 0.23171749758663793 5.567268429974346 0.03844956222544991 -0.619872660471055 -1.1001120506867827
