# total energy = -340874.3522635201 ev
CRYSTAL
PRIMVEC
9.22202733776901 0.00000000000000 0.00000000000000
0.00000000000000 9.22202733776901 0.00000000000000
0.00000000000000 0.00000000000000 13.49736918563409
PRIMCOORD
 96 1
Ni 0.631863800297832 7.980345880635567 4.595732752139949 -2.4085040262630133 -1.6147569149655738 2.040372961409467
Ni 1.7675306409564322 5.515952746545981 11.938395733249642 -0.06435599767856659 -0.3485857957317674 -0.6813402808582331
Ni 8.738138308158064 4.15130481236528 2.663004247298234 0.31566230553086927 0.04832285547510387 0.8105261305279913
Ni 3.9088208264664748 8.811619421706466 3.4875180423562093 1.1789958096678792 -0.6351889791131512 0.16671264297062255
Ni 7.649062993838474 2.22644638562374 0.45610025973177504 -0.5177952369823147 0.6600875421270439 -0.39278511595680093
Ni 6.968209940102914 1.6242111146442195 5.834075800382032 0.6336257483910893 0.48505789465029364 -1.4954207043963856
Ni 1.744328020262685 0.9473143106215438 0.5791977245744927 0.22669185173773218 -0.5480856604357399 0.7121791206159606
Ni 5.091638048318632 3.446852590761953 10.797287896482413 0.18889869214935856 0.3202869487870742 0.4420723922277032
Ni 1.7119402603753873 8.942286326559291 6.818128823372317 -0.5482602383403913 0.07260589639218464 -0.06475426155824977
Ni 6.738636792427975 5.533244047738657 3.26398808917277 -0.6281688390415763 -0.2545687806536583 -0.09798654124881834
Ni 5.133201725372178 1.5795396143896439 4.09018859302442 0.20454565465799612 0.8454537956431117 -0.14221388649830993
Ni 9.003197816894028 0.733317167060969 2.048104366223831 -1.134599028720059 0.3992990058159188 -1.0989442556309268
Ni 7.591895646588657 8.276557397600257 3.560740939140133 -0.8615291039384194 1.0538576477049333 0.711512433566239
Ni 0.7497351422680749 3.1507517381248946 4.984780573556077 -1.5259294145082043 1.239377138969414 0.2964497371581604
Ni 3.850279397148547 1.3826862195849026 10.20098792227495 -0.7038698294193169 0.20053036285101591 0.985306895218729
Ni 1.4321255079550055 2.2941360660260077 11.659607392468057 -0.5815531960655662 0.8701654394571787 -0.323379728779785
Ni 4.153896202037355 5.739042809027078 9.4331361073706 -0.3983042460028172 0.39916016624520934 0.5961449778368121
Ni 8.146702031150076 2.6106913752205902 11.44046435767254 0.38789076397897715 -0.03007445078787724 0.8845294214883347
Ni 2.694132278255974 2.1143710878132826 5.032102484457466 1.4208358299009594 -0.3947478961101266 -0.06327124925482006
Ni 4.111382656171625 0.3992556834375547 5.962084916966201 -0.16305267762053208 0.26377950061864897 -0.30916127118755793
Ni 5.692932672513272 7.55713782568455 1.7442376443951177 1.2922876138152002 -0.03740389456975494 0.19012382280571127
Ni 8.141740580461192 7.298782730797694 1.5431402726256456 0.8358147298914509 -0.09663259832408519 -0.4486225346413952
Ni 2.810523484844124 4.627576412416384 4.9397263591684375 -0.5434533038700512 -0.5551225126778633 0.10194629722751475
Ni 6.177291990508898 7.376035653512925 8.679267652465427 -0.5329032962683469 -0.07011732564237602 -0.06756936240954169
P 2.8484721271949867 7.462178610548018 11.050296059939127 0.8120837048230981 -0.8766926990527353 0.8298603120802289
P 8.617652521447488 6.35023266851758 3.7227765698632997 1.071820402830941 -0.62168605953071 -1.6628987647781233
P 0.931627642179547 7.053144811561346 7.652846791640797 0.4220409274981248 -0.8655343684430706 -0.3156947014307015
P 0.04072908358264506 8.762991671739005 0.04411356760275844 -1.2805147895499882 0.644286056318413 -0.027069088302650157
P 5.570482593987208 3.0946357019875923 13.14655877494071 0.7474554273197513 -1.1800085672031098 0.8713987976436477
P 8.577287707943302 4.3881449175547935 13.095957511130457 2.7588960219655836 -1.8028883899316046 -1.551833793078792
P 5.930427541641282 0.4066600491589417 9.848045259951862 -0.7354620024033012 -0.7775694730963124 0.6789920923410306
P 1.0051548658644625 2.5770217535382094 2.8864659574796327 -0.2297596920297785 -0.8274897549655232 -0.332677352031627
Ni 4.255190949930885 5.720672530639978 12.082548008627294 0.33508519014217125 1.070754166349956 -0.20637370900567037
Ni 5.615891856426004 2.338752234116767 8.7149808753981 -1.4943403268480135 1.1994648761555085 -0.4307004029453356
Ni 7.630692715451374 1.605499621246917 9.196959065944155 2.942802917327306 -0.059292210002414025 2.4390363905239156
Ni 2.0268632707373815 1.6945751829642879 8.31223373242372 0.31981360869508146 -1.5702012398423861 -0.08322403822766311
Ni 2.5182589955650143 3.834878611552935 1.9787408878661126 0.6345125218714169 1.022989497371167 1.3991159217253646
Ni 0.629950229632509 7.503539403000902 10.59589357543379 0.6092259793904863 -0.9738811698802905 0.8731939418708574
Ni 6.115061750269866 1.122127060172686 11.938072040091315 -0.16685919585081585 0.36707254168204523 -0.7480272406628213
Ni 1.8417402946617518 6.0939986399103585 3.0253948765930008 -0.7671431355566659 -0.7590048227202476 0.029138312126853045
Ni 0.5680630488091388 5.531750079315611 5.229366259477182 1.573343899236426 -0.6902504388636693 0.9638199289895466
Ni 9.204468562776793 0.9613133480671354 4.325096683494006 0.2066313335424312 0.6391399933410993 1.4085387577011614
Ni 3.526383354220966 3.6247178313503094 12.883671053634545 -1.2527682155643391 0.37878777323644447 0.5807764658005417
Ni 6.704930282636384 0.34586383416548816 7.6878047305373745 -0.3536174446184039 -0.7383886891317928 -0.05426621754273235
Ni 1.0163135189008035 3.1106543634124892 0.47877353605834383 -1.542342308648589 0.5459069076168662 -0.44587531091356114
Ni 3.481859406403234 7.327472457736584 1.617929991848309 -1.2458882006150542 -1.7106310378570797 -0.059296837988104326
Ni 4.7349669203570395 5.83390058186328 5.800737249479821 0.41948396540422594 -0.24724319352652258 0.5294662455623398
Ni 8.392616611205508 9.196906500388529 11.263432788352356 -0.3749182629787091 0.789415316691305 0.6672863738683282
Ni 5.339544586271461 3.3269016816349377 5.862001943460254 0.15285696803445287 1.4918057333516177 -0.7246219743650036
Ni 8.229128511182157 6.044789902222824 8.472784616751143 -0.1177027887308231 -0.8460793450422526 -1.0342542716517091
Ni 8.207761073921658 6.602040124019475 12.54963815829577 0.3047310033303462 1.671971416503353 0.7917298237570946
Ni 5.712538702558943 7.979525120205621 6.3938390246186865 0.26443256082161554 -0.7888959538527252 -1.2821731510890175
Ni 0.535560935783287 5.580746710375181 0.9084609873922804 0.6052950197671962 -0.17364536553471385 0.24906584855755817
Ni 2.415728496012915 5.613143692289781 7.194016811827405 0.732146564876823 0.5668909660677011 -1.511228875073236
Ni 1.7288165703394403 7.525865931100887 13.571334574533195 0.08650116631703811 -0.16069471891131681 -0.802807935948127
Ni 8.879576540900514 8.421887325864473 8.553093719314509 -1.1759099716537038 1.4885270626003462 0.06047748855976682
P 2.9631019265683087 3.4932947202586586 10.813970543873108 -0.7010207900062959 0.8135183803870957 -1.7810221859861326
P 7.340106635141367 1.7736171789762545 3.5571508039111683 -0.4750619597798463 -0.45193591528534427 0.32475938273613103
P 6.479138166155576 5.300138863606762 7.120307914204625 0.3270805746701399 0.546538113442962 -0.9701466425385228
P 7.204330727162813 3.920320694513018 9.970128301791275 -0.5748773267072874 -0.9464546982382216 -0.9217281420258191
P 2.237697258933109 -0.02219188650136467 4.729896649745981 1.2651560477057309 1.4636480399704794 -0.44018674516921613
P 0.5282082134147955 0.8750993814218113 9.709669662476658 0.5274109056952078 0.6491873502747723 1.049627668783986
P 4.107804509578155 7.102316661139668 7.730510094571001 -0.23034590355055168 0.11799769426342258 -0.17977513258153555
P 0.7600047918724298 3.8740261174531567 7.439574499426219 1.0543957795965906 0.8765487172757034 -1.6407556530221807
Ni 9.151949117287566 1.9396321144805626 6.981244353492636 0.029848193709684077 -1.161291964630213 -0.16922049699414082
Ni 6.730834957329839 4.613024053332627 12.083155740226546 -1.13486925166231 0.2969061079692887 -0.2440300859058636
Ni 7.54855211826568 3.564267442380709 7.815732693281278 0.09812769481237293 0.6621775918868532 -0.5750737589888096
Ni 2.709164182759475 7.008777638207761 5.154334923139185 0.7851241455151188 0.5133598269187805 0.6330775891971033
Ni 7.693088952181856 4.2988203611002485 5.333944049090493 -0.3679279477038051 0.02512482009208576 0.16626115725550075
Ni 2.2488466899421473 8.477440818336307 9.162473294845478 0.09073243078956632 0.1893290948185578 0.23146639030824004
Ni 4.166438159169111 8.119312610060875 12.861197895300446 0.28927687355880505 0.337265999843574 0.07255113189484924
Ni 4.226676441510747 2.321239604268823 1.6883318704803185 -0.5460051237576274 0.27788714366462464 0.011303855048593435
Ni 4.285808080576052 5.7644956043827 3.336482445799776 -0.34649908840606775 0.36791354952610184 1.1191096748352083
Ni 1.4670032152140484 8.379383002026046 2.645807932986775 1.0060492699724028 0.945901911058545 -2.3649927332439398
Ni 2.961515737872234 3.737595445536107 8.361309672918095 0.8384616805959948 0.16902586448483145 1.5315259347593755
Ni 7.037882356375275 9.031149781648697 0.09636372989474312 0.9852302763445225 -1.1735828661824241 -0.3926041102942464
Ni 7.1492106699742095 4.77394842976581 1.0243357604514756 0.22755445684834355 0.9980665088772425 -0.5473804068385992
Ni 3.978668461257589 1.442500288670612 13.003581385841429 -0.16849775989550336 -1.7123899295297151 -0.6834784102471583
Ni 1.3252145454340942 5.557590199817948 9.286014339201458 0.7647088150835604 -0.5667922357063077 0.22131541791716725
Ni 5.956885537972904 0.8285843979094139 1.886864596456893 0.9749780024888951 -1.1249561063136562 0.4961059249343391
Ni 8.047380797099338 6.982245865657717 5.7849592829675265 -1.9364212037161488 -0.7482468128727953 1.5362102276089222
Ni 0.3197203089648903 3.1722851718768426 9.341097508280852 0.040638085236336455 -0.1955755899489019 1.3795521406608242
Ni 5.765888130505416 7.424395964688605 11.111101496959884 -0.13566194431240505 0.6239265188254545 0.3604524652623663
Ni 8.738479523168266 5.1902122981578485 10.799906030033666 0.536444733762702 -0.876068178094859 -0.022893102548089603
Ni 4.902743263076174 5.162444773949234 1.260671420747529 -1.112477257120355 -0.4026671509572033 -1.3265758455741088
Ni 2.078395959305211 0.18342243424100016 11.917731936672345 0.1687060192515675 -1.6945387602809074 -1.4861536772721633
Ni 4.312625735972482 0.09727394398952566 8.278004333684061 0.17189007340650397 -0.605002685337758 -0.2895296129995595
Ni 6.258547273073527 3.1821250750088885 2.377129700737208 0.03988320934818292 0.3875542065751648 1.3180153575986073
P 4.1373795511381095 3.567670370455428 3.6728632692898344 0.8184276447632551 -0.9640536422669074 -0.40266637962625496
P 3.7332334266219007 0.17230989134117283 1.3594144336863845 0.20027428097615185 0.5229508130413252 -0.5347436919111952
P 5.712123711330317 7.244086886865016 4.231235811809232 -1.0652306654285657 0.7997274972505904 0.16285007469142276
P 2.7469283845642827 5.36589191827545 0.4305580107113172 -0.343730267411679 1.5481365467328627 0.6615885521526025
P 7.711597560978499 7.136410496077977 10.331291479252044 0.4436160825657392 0.015247413077373742 0.020140479503616925
P 6.164408818366941 6.44818904252751 13.292924336871023 -1.4696651926988367 1.4832742988418393 0.2214483439506057
P 4.164095764234209 2.3178182321394982 7.1841363317752265 -2.0415003901456905 -1.3970261290758714 0.19130370204642536
P 8.257919680421377 9.022416521792982 6.341387822131502 0.6308726111259845 0.909733431557788 -0.5870093340841309
