# total energy = -340896.16251014324 ev
CRYSTAL
PRIMVEC
9.00821330575032 0.00000000000000 0.00000000000000
0.00000000000000 9.00821330575032 0.00000000000000
0.00000000000000 0.00000000000000 13.18443073712609
PRIMCOORD
 96 1
Ni 6.495372165157033 1.8190194937077797 11.427658084122399 0.872334936304672 1.0569473423738507 -0.2947515235201311
Ni 4.613385260819689 0.25408476215685843 5.995158694787241 -0.493046569282725 0.4043918469577939 -0.5552762646469082
Ni 2.4679441517223655 1.5412872709438155 4.866834943942301 1.0548056134404995 0.5993290319917485 0.08044107616588728
Ni 3.6026186929097728 4.512250050642561 5.1507350903197215 -0.752001137708905 -0.5863912408841578 -0.017309952033357286
Ni 4.885559416007338 4.601242189356362 2.6476048576361144 0.7458772841993541 -0.05446367826551911 -0.08106251179997008
Ni 7.1322888749070685 6.109415268386832 2.677613017620264 0.4102729883289192 -0.8371457899980486 -0.9549347106847748
Ni 5.084163493568141 4.577568604930827 11.587150301386858 -0.2200406649698017 -0.7878513146382947 -0.7445012297874339
Ni 5.566778518529362 7.6671515367283 12.21097177153286 0.24007701479538654 1.2367121905427412 0.6007325972074945
Ni 1.9122905337161507 6.589498985424318 0.38389761922085597 -0.3461049382914427 -1.068371267940076 -0.16434311429718146
Ni 2.881763452080155 1.516082290265486 0.37568483119925733 -0.4282622258174883 0.29540304106120097 0.23355001231014616
Ni 0.640829877586585 -0.08777062499686712 4.459396161030709 -0.6026056458604911 -0.19479114637439357 0.7143105651366666
Ni 8.698754101889458 2.3430272585606815 1.3961919800982645 -0.15960534250187997 -0.3829614449981598 0.3710978607913545
Ni 6.7475931279921095 0.600522627391737 4.668501112779049 -0.14932221540831703 0.3838585028911325 -0.19190174064174045
Ni 0.5669625289224318 7.305651938936536 2.3394978406086553 1.1460985447192262 -0.6593264955913032 0.5025809911357215
Ni 7.728677633237589 3.874477560633612 3.620418021473858 -0.7378392443862261 -1.0953817350906492 0.1632560518805898
Ni 7.6129671340191685 3.9129606476449856 12.571974115953129 -0.6578020885269767 -1.0069609831533948 0.1382253341642071
Ni 7.857197811699963 8.952722658095368 6.782413475495331 -0.029963636241625815 -0.6430406139470861 0.18916248733370647
Ni 6.836927578809477 0.5538492728918942 0.3764379178271017 -0.048087599535846216 -0.23299388269636004 -0.06369548127643224
Ni 1.7654656659262686 6.567708117568393 9.248628050273366 0.5580078046454584 -0.19992692493906214 -0.7829142823479935
Ni 0.07363493676225867 4.750661422562741 1.277311490636562 -0.2075538453567006 0.5033561787388493 0.90976119947193
Ni 6.272761199280381 2.038324445321049 6.6471812773390955 0.04191206685275363 -0.4874683038639992 1.1419688388215687
Ni 3.1399298356613703 4.244823223838571 0.22030035917758525 0.8100836436739339 0.4878441991461792 0.5725036842687883
Ni 5.923260541539915 5.601703361306303 4.878859106990705 0.12192839677639646 -0.3392233806802609 -0.023286738442082476
Ni 5.291253308012071 2.773800016258219 9.339837110268418 -0.9264867397567269 0.33510755873967446 -0.3063795946773627
P 0.1407623402714705 5.514116503859772 12.43463219425334 0.9515938192369998 0.3672844005825352 -0.43402381089161385
P 3.926941394611664 6.103361749081674 12.516178143893262 -0.6592442202901421 0.5944156538505311 0.9655718786836467
P 2.535415668977793 8.3905290772684 1.5096963678913373 1.8600170166237964 -0.5068829609451851 1.1982204622254462
P 6.225152792245009 7.643703157634057 5.77180094803202 0.4673512213991499 -0.16609403555001717 0.6682675068346748
P 4.85811139022933 0.983084328587362 12.44473130212985 -1.0666691976473048 -0.30549693496209324 1.3263081937350192
P 4.059199981573505 5.99995646916511 8.118536887988437 -0.7495652745739027 0.835421093997458 -0.3536449554222297
P 4.6768030821118405 1.1923721470647122 3.819832838227317 0.08551283426183982 -1.1255160925821843 0.5239034067625816
P 0.12073437974890808 5.513837249248969 3.4407014646379492 0.9438350012271874 0.4232318624824324 1.2918109312890977
Ni 1.7121100188362957 1.02957571717952 2.6147762260828493 -0.837848215381712 1.0974427313847357 -0.3736213985441566
Ni 1.673527841479153 6.62980173151254 4.800820054769677 -0.35631736004807024 -0.4528476284663362 -0.9351210183929572
Ni 5.848636502962617 5.4895330898958115 9.306955330256967 0.44805252107053806 0.7691290556384431 -0.0904804626797603
Ni 8.610545677728558 2.366736875839224 10.072139988498328 0.2923439425199029 -0.4814172125739128 0.6461570480888807
Ni 2.217732020442424 5.586002045608545 6.827886935990045 -0.7126100375057921 -1.927619803374435 1.9711529507703793
Ni 0.8396483506227793 9.152344663753617 9.119156604491609 -1.12345226807462 0.12632524029251146 0.290428470664745
Ni 1.482706860167841 1.092993538471671 11.422845896603327 -0.5125283321564206 0.12387240787664473 0.14070156361884156
Ni 4.070766527388721 6.6307566021172235 1.6482381835962576 0.08187523750925255 1.41960915658271 -0.1979749434190139
Ni 5.4982079992572235 7.885726823068179 7.941285879119525 0.6565044527614758 -0.9298001204006762 0.48939920233812484
Ni 5.327556407416527 3.1400469424336426 4.614630195891078 0.7281734391616879 -0.963584930160605 -0.1861717801364987
Ni 0.7334361114569785 7.422911850834253 7.025020873148166 -0.5265542141218674 0.42902970011113206 -0.04293767990379056
Ni 5.269345333383873 4.408187171158622 7.1402791600613496 -0.4959390603391717 -0.1461841839999676 -0.1110261480415959
Ni 8.219670296522915 7.513669599345392 9.00141925729155 -0.6595776923701608 -1.0634625177845491 0.1732573860676758
Ni 4.7330413574423655 0.3518238759380855 10.383925959817791 -0.7640310722902455 -0.9129128577270343 -0.40746122991173694
Ni 8.177511858504836 7.061763573359306 4.870421113637812 -0.3578255691624805 -0.04208484498519204 -0.03958830381558343
Ni 7.1689883356946 5.9264494490310256 7.114476934844431 0.8153130103936731 0.6027570838366909 -0.28787947899064614
Ni 2.3250648813367394 5.168957804906638 2.536500257853301 -0.6872643596521519 0.17916192447756887 -0.12576473980335115
Ni 2.1189389457107453 5.355535917776387 11.34621753057752 0.4959169488519846 -0.8200947480530327 0.27870244047706844
Ni 1.1725901107639218 3.4114013502153853 3.7011865623101587 -0.3562726228530639 -0.6416136516925723 0.40742754846032403
Ni 3.7569113694853358 2.5104719264837643 2.433977782835407 -0.45865780739021006 0.8430009632272449 0.38084825530989896
Ni 1.147502236857865 3.3112120024296883 8.041170749297313 -0.4623013176800683 1.310870004803078 0.6489937462067275
Ni 3.7323369637346273 2.6330917252662585 6.967391729691574 -0.32570709136138104 -0.18115478653788156 0.1613799179037995
Ni 3.917807066374414 6.902092993472462 5.96475507424134 1.2151786873463395 0.44112288383024034 0.33811549232806287
Ni 0.760963409511603 7.354134142657325 11.311291786979254 -0.2017503513010461 0.5830333801555184 0.2644060784590543
P 0.10238645099779256 5.51807110947728 8.171380868565711 0.2450883519670489 0.5837628021223753 -1.2692772689629561
P 8.583818309010686 1.640224477087522 7.926189915352283 -0.5164934874517556 -0.12315044210895566 0.37010978584647225
P 1.7112632467906332 3.284583724057586 10.327048101346394 -0.006695666852620726 -0.1940568393115303 0.4839307230243859
P 3.6993849196598134 6.184669881891752 3.8716742046696746 1.1190536247862921 0.2454411073207773 -0.7850048463284351
P 6.78110368128853 3.8418047711696017 10.460922761765595 1.3238602464151588 0.2522190494745592 -0.033039189843156
P 6.351393892754697 7.679727002427709 10.122254480460331 -0.18398120024308315 -0.10401217861760798 -0.23032070673957108
P 2.352521915328001 8.537741298228108 5.932703851491699 -0.44569173414784535 -0.12631315610765342 0.09101550924762389
P 6.798084163268034 3.9448407143428437 1.571900782858481 -0.21727055842383225 0.20008247668031992 -0.2651681534360595
Ni 5.188244389478583 2.866197259581172 0.34612798269901923 0.5094702620563871 0.2756957924402607 0.2690605465119302
Ni 1.6124611638457025 1.1633927250339098 7.1534500686566975 -0.248865559621294 0.10480459261191628 -0.8432506173442057
Ni 6.811028965710764 0.7789825384790304 9.122518469677152 0.6411202569959217 -0.2745143705376498 -0.5290579543803275
Ni 2.864665863328379 1.6904092331128877 9.404006216545762 0.23829472608398314 0.08837652896288005 -0.7653590470730497
Ni 6.296849161515495 1.9082548541793776 2.4070684482098517 0.9581629878140854 0.6398858703681883 0.8028837834913849
Ni 4.044057175097354 6.825874501149609 10.476888918932955 -0.09016293143934151 0.23321422623728222 -1.3583585373023446
Ni 8.162729380558755 7.193031256863457 0.1486949728609404 -0.4815642796747384 0.7247991233728162 1.0913417606933207
Ni 7.477870959883033 3.6634241323589234 8.254732064141281 0.6123236444792034 0.2655347927468588 -0.03743886157274843
Ni 3.1192740026751626 8.361612712730361 12.452219829806008 0.7694021067941716 -0.02498649474200858 -0.6624537283663752
Ni -0.05280974936691851 4.834095493700228 10.217920804372334 -0.02146871139673722 -0.5249364760127863 -0.00821698859315359
Ni 8.639047664457017 2.0700874052466354 5.675383339134821 0.502629842095786 0.8198669483129428 -0.4376508661212399
Ni 3.5955562537204195 2.7044728070729356 11.617500773474573 -0.3663217795589498 -0.28677081930749965 -1.3089635318089843
Ni 0.9901737924164704 3.3397139891581493 12.46097491226536 -0.07370221478015694 -0.4948144598164252 0.12120565967775901
Ni 3.1468571516519472 8.566729728472161 8.14386438036699 -0.008923013521242697 -1.0838912179525462 -0.34132191508050247
Ni 5.649140612289893 7.66412477707572 3.603819487736228 -1.5777286585676829 0.7229720974664066 0.09143922704860381
Ni 3.125237439847805 8.365270047310561 3.8673367499889686 1.0203944829504812 0.30262912649599494 -1.0859954087797425
Ni 3.317112382109569 4.388098855607273 9.370451523004407 0.7157218436618964 -0.20035784182889363 -0.28440489017848436
Ni 7.247503922396644 6.057041516541298 11.428000396225965 -0.4401980580231257 0.2794719716532413 -1.3182552415235556
Ni 0.8730895406771616 8.921446141685378 0.5315647549497745 -2.549391994861048 0.8254094753977268 -1.7499663451215928
Ni 4.708160672441098 0.31664680319009547 1.5759481730724816 -1.2001701297526493 -0.8396230478939475 0.19722083886180874
Ni 6.014396635007627 5.685731974518403 0.3187322045578701 -0.0795753857314823 -0.42785007798073416 1.218784659530043
Ni 7.947541182401523 8.846137478900948 11.243023042851046 0.18904370236765505 -0.32963342299898074 -0.2727693628220851
Ni 0.06499245696855276 4.694720418269522 5.7100451420848115 0.2697467739456773 0.4328051079931643 0.27335968810791633
Ni 7.776376122405478 8.63702081647538 2.563053768055414 -0.5048155368931951 0.26837611885039586 -0.25273532698934537
P 8.449388742655179 1.4655101810702962 3.4401339472030905 0.18643454687958214 0.8997709210284375 0.4795498203478709
P 1.7862476138980006 3.226498765010457 1.5449121759563098 0.2364862121203347 -1.0840897071165976 -0.008518321883656298
P 4.805701605530786 1.0155409209333308 8.126408264727795 0.0737505515195891 0.6630710502354 -0.21934055357898355
P 8.583557070826386 1.4172802073205553 12.572633517163155 0.0812345186014601 0.9797718243331125 -0.6637824744801278
P 6.097371287269275 7.633181564556041 1.393673283673082 1.3252679253959627 -0.10771790960396932 -0.3843200159085833
P 1.8602500857609297 3.368639361909442 5.960483379517372 0.14014517689473927 -0.15724455557918723 -0.30767080268496044
P 7.076519026665633 3.8878547573124247 5.950937375934518 -0.7807332155362747 0.5489320675964353 -0.8074354074178094
P 2.469439515122152 8.483818133703275 10.268127180109504 0.6658941215064919 -0.17852274823167316 0.7235847913497409
