# total energy = -340895.72983512597 ev
CRYSTAL
PRIMVEC
9.04059466047438 0.00000000000000 0.00000000000000

0.00000000000000 9.04059466047438 0.00000000000000

0.00000000000000 0.00000000000000 13.23182412292349

PRIMCOORD
 96 1
Ni 6.454415032246335 1.9984596127363918 11.303695987541548 0.1273649944109355 0.007846749737928422 0.8058966021757797
Ni 4.27189795275657 0.4525287739984015 6.078514338615417 1.089095387861305 -0.4784709854613954 -0.3772728792538148
Ni 2.625831679407169 1.623889694639935 4.721127813762275 -0.046571162891319795 -0.8179823296957203 0.2394288396884264
Ni 3.433518406640647 4.163871887122892 4.795689214189692 -0.7751022425027425 1.1538234241673095 -0.6160746268812034
Ni 5.0260914813663575 4.5776056613014555 2.5931598743528923 -0.426366294346356 -0.16931768469363742 0.3395190575438088
Ni 7.100347439761195 5.9633118489378845 2.7129206318597414 0.130239230634937 0.7847035130379324 -0.9699928905694777
Ni 5.017828377843956 4.580715625865685 11.254884008834598 0.1428620616052701 -0.07932753138673436 1.52246562432932
Ni 5.60129027623431 7.8598206756544435 12.469777200899621 0.02864723142304744 0.5262677932297001 0.13996699944566218
Ni 1.8575348231223843 6.478734231891042 0.4393665722278707 0.2772222563871161 0.24075115804427571 -0.2011818803920858
Ni 2.7897467012503543 1.5501726857540856 0.39737572219450007 -0.03582266612556411 -0.6426755172981835 0.4835363157994447
Ni 0.4086809858211562 -0.23643776817399179 4.513282734330407 0.5440179181242695 0.5061283421673477 0.43682734177867993
Ni 8.466706754817821 2.3509614392593443 1.59563874037609 0.793494371856685 0.5379359735962478 -0.8738835117387143
Ni 6.903370963233737 0.752950446843562 4.665753267389119 -0.555933695725249 -0.669789085685524 0.7542423683345978
Ni 0.7219321665532322 7.380316575299211 2.4967654378132207 -0.18170525972471285 0.06326122195249106 -0.35551543297206517
Ni 7.674615053378811 3.792945328675809 3.8652800306376154 0.2656643763461876 -0.14840638846226697 0.5637827594560226
Ni 7.6981658024771225 4.030568318810181 12.681869551704382 -0.00878751638464293 -1.1001423897040858 -0.5569405397232086
Ni 7.998141774005375 8.705613509394404 6.899377732570887 -0.3717398652507275 -0.14487549249087306 -0.12607738594776352
Ni 6.780916108517178 0.9815373626118056 0.33311517532662943 0.5883221393582836 -0.5786491350448938 0.1834926906424388
Ni 1.974520118067551 6.482901946030896 9.112135601209925 0.49181809619226263 -0.41170303590722646 -0.19479577436008388
Ni 9.015850555865681 4.987298289665453 1.326689185673365 0.30128675353548756 -0.9150828687951594 0.8596218596133776
Ni 6.582890923008759 1.7652665139871155 6.9914444364451604 -0.6962717053570847 0.3723476740380555 0.15165086354149365
Ni 3.3912897889676272 4.47551926636167 0.6781874411551504 -0.23692998452597258 -0.9450668167517594 -0.0975589667930965
Ni 5.845169357875795 5.545220508131534 4.765335417607126 0.2105314399277858 -0.22069398228308443 0.4131346261474304
Ni 5.444580608337901 2.796780283898526 9.188430083634326 -0.005726875181448202 0.5698063399422832 -0.08698916169705018
P 0.37555534291477405 5.51375019810803 12.38669413594243 -0.7209542957054293 -0.12408992320408951 -0.07437404403620095
P 4.080363914216516 6.1091185596701605 12.854108249054217 -0.30271268734873674 0.4722432593841286 -2.7297150295262536
P 2.5138729550948855 8.532052173045306 1.3040343595062018 -0.9879828993889954 -0.01773212717244043 0.4853242609378029
P 6.26708487022479 7.791066953238833 5.774818162383151 -0.225409899701515 0.23044566235320957 -0.35830225168858293
P 4.807960013326405 1.1736590398049849 12.568882911778864 -0.5148047868954231 -0.6029481168015745 -0.1442550852980548
P 4.130421686868091 6.2451523875712365 8.154415685239004 -1.044926920874207 -0.882962334111531 0.5785421771533843
P 4.714127681314358 1.0514482811443384 3.903798388260751 -0.09049820329157317 -0.5328747570232564 -0.36789760868650184
P -0.0025792816574850153 5.5165347012643755 3.616734194030852 1.8162732958789427 0.13855135004505817 -0.06285293077047885
Ni 1.4781462680703032 1.125780050467303 2.5031300164562964 -0.29665311141821815 -0.40456848174497423 -0.19087098538438096
Ni 1.8145015925243164 6.508043839789977 4.709113767514004 -0.07532792330903801 0.2912607367580532 0.2799049454256018
Ni 5.9774422983968725 5.412405131930649 9.288211126934929 -0.5218202989813078 1.4595268187132542 -1.5008321052199443
Ni 8.683509255442244 2.423647820353559 10.254412024759644 0.7425523335911792 -0.15117443812570738 0.14799038397077094
Ni 2.346712359767518 5.232551541695783 6.798286707103549 1.232141026232291 -0.11387827277841032 1.4942883905641555
Ni 0.7101459432904801 -0.03134374169821433 9.163077544019586 -0.5392009563516004 -0.18484020580926877 0.09371413912570957
Ni 1.7582781343122613 1.0632914601534704 11.458772924041735 -0.5819730572118041 1.1041268282731307 -0.9221793706306248
Ni 4.215312870757977 6.814583283043901 1.6425585226199788 0.1413317410036727 1.008330866917728 0.6014375936943189
Ni 5.577468309296094 7.944051896133895 7.844381148088186 -0.22084901980371 0.801975926965135 1.3368929112294008
Ni 5.31368183820567 2.9244515617359017 4.91464355065256 0.9068836208138187 -0.24021739702799275 0.7938335003636586
Ni 0.9617836632721464 7.420981170095452 6.872556096323336 -0.4608365602090837 -0.3488920141182766 0.5504721583900455
Ni 4.991583531535933 4.558954914510738 6.893727360906225 0.9479505660574578 0.5523873731348874 0.646151648772242
Ni 8.027813005690849 7.225894177852657 9.277188833921238 0.20754870315037807 -0.12041555967629584 -0.9106325463332897
Ni 4.614654018232313 0.44820646568980144 10.45138126881137 -0.4204159903001921 -0.5947956628977692 -0.11202476450943934
Ni 8.057863942352189 6.911860081622726 4.923019661608255 0.4322577201301266 0.19990172812808152 0.19784587404031734
Ni 6.96160143346108 6.140173002339144 7.067553586678962 1.140563988054242 -0.8871640308977043 -0.028507363411073485
Ni 2.1571039678907806 5.380934821907146 2.602805284799337 0.3418672460610112 -0.852670367996209 0.3606396415725079
Ni 2.518203399938683 5.311846597488988 11.324642141317318 -1.5016049788302268 -1.063888035357742 1.1658862688691147
Ni 1.1044080846828845 3.330103044285333 3.726279983627458 -0.3480813452915231 0.6237295723233001 0.051641121215059455
Ni 3.5593092407880236 2.6027148788527024 2.716784582018904 0.49843097352309007 0.3602915142044698 -0.358802331253453
Ni 1.1229413037429767 3.3400296172258113 8.237921850026448 -0.3285967542043502 0.13695212387873834 -0.6256535288188902
Ni 3.706544365477126 2.737709038367481 6.904829211152953 -0.7927731774199444 -0.8005631057780084 0.41075789838513777
Ni 4.113398247116797 6.839001929229905 6.043794838869867 0.009918287554976467 0.9381189246790167 -0.6988865172721125
Ni 0.6209315470325283 7.192932169709684 11.146991744001937 0.359776008020632 0.6462827750334676 -0.15275900900400788
P 0.1503478014317317 5.734693291088319 8.032286291930328 -0.2509052157591421 -0.5260605623149004 -0.0511217583764797
P 8.642238940803551 1.4681383297778536 8.020906895427432 -0.008635564187810934 1.1749236964810348 0.08262625674266416
P 1.928051461497369 3.3082971299570683 10.361444529039806 -0.526915454116028 -0.5703712113068177 0.09100111106992069
P 3.8990457476461704 6.227487065598837 3.8335900341637905 -0.2572476130374021 -0.7199096564909989 -0.3011947080423136
P 6.960905307671994 3.908303316581553 10.46981323321123 0.885061639842721 0.6129916170805055 -0.17906447966775613
P 6.208257720749658 7.880415150297803 10.241391760325328 -0.28787382256369126 -0.6176566266563427 0.03332741050753615
P 2.2978208238275286 8.582724706133996 5.68705116533082 0.47118319355073046 -0.6423651851466163 -0.5285473332924961
P 6.918712852377629 3.9095509186451105 1.64274385481058 -0.4107463284209119 1.1282784858186699 -0.856015373209042
Ni 5.116289494323694 2.856665182949282 0.6292570306581082 0.607227975123851 0.4790417703632008 -0.00999644909107956
Ni 1.5249042236697161 1.0319205966712657 7.03751801902855 -0.35877867710436917 1.0754199472567414 -0.576330514214046
Ni 7.094624743339224 0.7231273331677416 9.269832502043583 -1.175388551932595 -0.6993529153855697 -0.17641161542594133
Ni 2.8542875065527924 1.6961150054063134 9.022039746972286 -0.13297154196443553 0.18475741628747536 1.1344064530932787
Ni 6.225796474396769 2.2396084347895124 2.8287125683093315 0.0668168005142333 -1.1699601818281724 -1.2815643138604251
Ni 4.039961496665515 6.799160028548039 10.607066637332407 1.6594681418300194 1.2873608659375442 -1.2559291297908242
Ni 8.167878938811828 7.018747032328809 0.3642790091910409 -0.5933805277177975 0.568950162589575 0.0010855197546949047
Ni 7.631753594079349 3.926637642559049 8.146516917681538 0.5941690850573638 -0.3350263118797778 0.33576447559738304
Ni 3.1458014814760458 8.20718744440855 12.44987613986695 0.37080424081033564 0.49499006616234104 -0.18045956024306983
Ni 0.2218706579927594 4.857900258247356 10.081987995219208 -0.46030845561975564 0.13269591970554567 0.6611699765579452
Ni 8.674134158776237 2.192506936592888 5.852039305760558 0.4925811996105323 0.5908166236453631 -0.4316154585604373
Ni 3.4993339357906326 2.875650431742547 11.83040193669417 0.22514584740685098 0.05366817894741725 -0.7977513473608261
Ni 1.145705521105568 3.457521185472132 12.761353555926053 -0.09500329025077832 -0.5153930552987253 -0.8806673674297671
Ni 2.9859999302047346 8.507416552587378 8.069282213412139 1.231543501857608 -0.9332955351484443 0.10431608301127196
Ni 5.597240089825079 7.823016414779499 3.625705176115403 -0.2597485250823849 0.5281392992208 -0.040648883869613864
Ni 3.0137907182002093 8.404697316021151 3.4682731647053844 0.48367901202489605 -0.16778916386425297 0.4458112904448451
Ni 3.5441210417534115 4.229054574646435 9.264684787442208 -0.021519105018698425 0.8369537285919005 -0.9318138083965953
Ni 7.160214257622624 6.136520602095106 11.332223584002096 0.40374727139525945 -0.36940813179375737 0.5330282518819852
Ni 0.6790462976481791 -0.3205324756740264 -0.11205726679411503 0.17042403038393875 0.8242756189035998 1.0653623059104234
Ni 4.6964894811259486 0.38997147516512665 1.6235976834323051 -0.24215549459097008 -0.3168182735121834 0.12042353009609581
Ni 6.063626287323632 5.61566482174921 0.34299835341272344 -0.046387071904971725 -0.220861103988568 0.41620580887358644
Ni 7.798498322052196 8.801073148445873 11.454062774222074 0.66848965014781 0.2328352456313087 0.28033226277100753
Ni 0.2476544339729461 4.778451512344874 6.009735302534749 -2.113109469842245 0.09450115380337917 -0.8197849301220979
Ni 7.945380863549424 8.961163998746414 2.4430046375874923 -0.20273276981897342 -0.27948251317620254 -0.4842783361717918
P 8.658539132981769 1.6303989227976259 3.645579115364086 -0.43381940819029163 -0.16156195200761853 0.2811146494629868
P 1.8031014026536942 3.2038601804047833 1.5708557582251483 -0.4684259425205675 0.12565135415393844 0.5424654860354852
P 4.800808902947608 1.050083151350156 8.188183210366493 -0.150009985503961 -0.37088523055991607 -0.3315560939429903
P 8.741360020693723 1.650722179601083 12.479449733130057 -0.5453168394413512 -0.43274083041413214 -0.02870765234733766
P 6.344436198165349 7.910466086959143 1.3432813890592123 0.3556023362589166 -0.6192190860474561 0.6444914874609997
P 1.739916686550775 3.195597076882381 5.930132866522988 0.607555790776915 0.0032221064817234833 0.8543325861899803
P 7.090276217306101 3.8219113939775333 6.042802181575819 -1.5016067786024396 0.700364901589852 -0.2235214244295505
P 2.389465331931018 8.361835856721688 10.280928992967036 0.7978055976375292 0.057180305865733784 0.3456560236794821
