# total energy = -381172.25219966314 ev
CRYSTAL
PRIMVEC
9.21414523498841 0.00000000000000 0.00000000000000

0.00000000000000 9.21414523498841 0.00000000000000

0.00000000000000 0.00000000000000 13.48583293148125

PRIMCOORD
 96 1
Ni 5.38383425932149 0.7999997294152666 8.213263292070051 -0.8474055200528439 0.4862071777633884 -0.832519604079947
Ni 8.95256483992602 8.343942906485955 3.7210514578710323 -0.32944418980631 0.883018384160447 -0.9459471624741838
Ni 2.0281070734959115 7.967710929342984 4.4577149959538795 1.1183383438868222 -0.5500697807453042 -1.054505051480945
Ni 7.621240641222637 0.9517198444141931 0.9118861732644384 -0.5454230260019123 0.15489482440008806 -0.08300292335579253
Ni 1.1674137695939493 1.9304371342885376 8.170013937291602 -0.8609506057271301 2.445543595514814 1.2300247512202365
Ni 0.49232559969422646 5.517310366808095 9.952018563591514 -1.2852232507692511 0.8486566188511255 -1.3346077147396498
Ni 4.454652214086659 0.0360521859562917 10.35548755397005 -0.8120988743317499 0.30427411829858564 -0.5142036629763145
Ni 8.137831692322772 0.07140778253484024 11.950066331174574 0.0872437009100175 -0.8845602747262701 1.6559835257155289
Ni 4.113304990702096 5.827799417890255 11.801438483307534 0.4005835289552972 0.7416743018616001 1.0901963342349674
Ni 7.140621613015483 4.905196272334109 1.5606882297140863 -0.5429519387536004 -1.6342232512203017 -1.1134877006627404
Ni 7.562426752358424 0.9464954240811193 5.758639886786225 0.3539486027055775 0.41487449165667256 0.16989901111840416
Ni 4.28091950618524 8.90007185467466 3.7095079767541455 -0.6952499489607897 -0.45583705011196335 1.8392831265105551
Ni 2.2664862241783617 7.954525487549989 13.28032261044832 0.4502700975471471 -0.6543971766104859 0.3769098394874412
Ni 5.831779928620215 6.529917282758357 2.9433905020986293 -0.4802836131901018 -1.3839456417428295 0.6545365304018276
Ni 0.17222895940343325 9.205032418631871 8.14021078461554 -0.733212544247492 -1.6770208060018021 0.6647906040296679
Ni 6.196245442332261 6.591375631297337 6.613613970757431 0.26960176372738087 -1.3168550187419192 -1.1578330595473352
Ni 2.7607514014389234 5.388653257265402 9.910886619381918 1.0434883886554676 -0.914965883601321 -0.3030980957126135
Ni 8.281904066798857 6.884873798615495 12.644613854339587 0.7276913573189467 -0.9283477042248656 -1.111233357410925
Ni 9.121589119626025 1.6616881609997192 10.542077680095051 0.5553711383535597 -0.17647820699781863 -1.3734264873790605
Ni 5.897780850746858 0.6685194057807665 12.509835788135055 1.2983045094332415 -3.0185597006436464 1.223125452997242
Ni 3.727600872285051 3.318529681619902 4.46405340644263 -1.7894392064052345 0.5677995939248994 -0.7840234562517723
Ni 3.64454456737795 0.6575868224911865 12.90199072961239 -1.1718396582390722 -0.08292244782684428 -0.17845847065264103
Ni 9.176063146097157 8.281010294713656 0.8087144679532228 -0.3635876684572384 0.4831339381547034 -0.04062240150705262
Ni 6.220202219873691 4.237189173026921 3.621714679795487 -2.8758416208154083 -0.6061429695897883 -0.1482130415045383
P 0.12604213513259524 5.067503440177306 0.09489279584160955 -0.9351698693530216 2.0410920989636785 0.9170299652192012
Ni 7.860660990313619 6.408585418656216 8.368417518988089 1.0027101782968408 0.4711785655650402 -0.5274129625777368
P 4.11280742686085 3.7361239566026754 12.783423109072723 0.013186416783286968 0.7878641701541012 -0.23667544531300527
Ni 7.016322794156288 0.24857736659893326 9.94114955790387 -0.5115543982789255 2.428120000721728 -1.1418299992508594
P 4.924103698301423 4.383675653547565 5.782671298903844 1.2927951495792378 1.9126449272321575 0.6662808154219492
P 4.476443667504154 6.996917804347729 9.475578150236297 1.5096340197822904 -0.15388283819580595 1.0787114735238197
P 7.61472624056041 6.935358100211458 4.621877892642017 -1.0242498521408296 -0.4769499208311786 0.2517138277033665
Ni 2.8984199449952794 0.5441109385935927 8.235016046077671 1.7350207795553538 0.3994391309382088 0.6629697487708452
Ni 7.041873618818745 5.612621484842159 10.479759651808143 0.010925131552936024 1.0148758671250975 -0.9677367475454495
Ni 0.08021650535392037 4.0057298453958605 11.666014505523906 0.21444645871147583 -0.7069219859820793 1.7977538969185167
Ni 7.392729840058216 1.326320917855305 3.351350466851663 -0.5958824682040447 0.9873262396416027 0.2613554645581886
Ni 6.08513206526606 2.874859375697802 13.39040676749476 -2.005280231471392 0.570965650357707 3.0355135548891656
Ni 8.233870727828286 6.695016336599652 2.259686185014678 -0.31376843094226603 0.11860447460948605 0.054687621350867105
Ni 4.1891834764919755 5.595059324075249 7.872597915430898 0.030878948967043594 -0.5966021199788887 -0.7025354268786095
Ni 2.2294730028768504 2.669430008280029 11.940868771427706 0.8148350423159902 0.4821468916510857 -0.42026918030968263
Ni 8.078990161022933 3.6297835067543454 9.869727954151218 -2.2418314925017073 -0.4299118456057693 -1.2285368538208004
Ni 4.0371777229915935 4.705691600285236 2.290636498769166 -0.02357727309930778 0.1620772010811402 0.2779593916634568
Ni 5.273596226050073 1.7497661750453124 4.615459319089954 1.0577914355417006 -1.1303415389952856 0.27616836120130506
Ni 0.6256321669090004 0.5125312987213821 5.164305406906063 0.15474955707147542 1.2070959103382048 1.385052758764079
Ni 9.07835635030895 4.230186422668655 7.878450740467174 0.597126882134107 -0.9350040331991187 0.04958912378203718
Ni 9.027153345386743 4.2221240456114435 2.5055463001917007 1.4614050095725735 1.4151634621065305 -0.35189146306623265
Ni 1.7357238177479501 8.819484940683367 2.14040354680685 0.46820174232490336 0.5885049447930509 -0.2625026907887544
Ni 1.992531258846886 8.425690802773484 6.704603654688829 0.6086305118983325 -0.916245521644693 0.258830898364122
Ni 8.506572569411441 7.815161541275316 10.17707037464476 -0.16826327528719406 -1.3696559645930346 -0.8953118568158194
Ni 0.5558562094905399 6.125434736406914 4.246405161064205 -1.0969943309934076 -0.8574320510509104 -1.0816677279386662
Ni 5.377255359642804 5.959312912447505 0.7036695269211714 -2.0555882356973245 0.12973169487089914 -1.1802643919676576
Ni 4.362335693245274 7.897241146790344 7.251925722887495 0.1567629879570784 1.1302057847483697 -0.018621214645613088
Ni 6.5967843345345765 8.510755791335983 2.8224096969289216 0.7019808399267201 1.5087148504021308 -0.5885160005366445
Ni 4.548489068887404 0.013181756134912183 1.6128246275458866 0.6648140010684357 0.05569806489325246 -2.2903116994902812
Ni 6.73461873270468 3.202680233916665 6.083580403212992 -0.44540222793188455 0.0408453161511361 0.5260726464997585
Ni 0.38424920488866304 1.8960038736453342 3.187916409049498 -1.7942024321218326 -0.23295403059736008 -0.9523648930750696
Ni 5.00817355918143 4.162361099790781 10.37469167541307 1.1676158499657117 1.4853147263106354 -0.5123948919023498
P 3.797573090996447 0.46835960800758686 5.918783573334527 1.385532269503659 -1.3305330304496439 -0.3727423383733129
Ni 7.475491292318653 2.3161412527055822 11.886614963027052 0.5878868515930779 0.3175479525893563 -0.8518085342165459
P 5.818400989777847 2.456832035890242 2.1779622455046894 0.33558964058241564 -0.017195795052996194 0.23306227404045024
Ni 2.3745589333258414 1.2458261453160957 3.7174505699236504 2.357034654739128 0.09136312239502975 0.7367303275927635
P 5.978644189094397 2.468027222318257 9.348973030831479 0.2879028760294139 0.94511592482214 0.27219703525838285
P 1.355686398633975 1.8084234234409862 1.1979098259896706 0.5685657826669627 -0.49561484423053354 0.597226640936765
P 9.166250081450377 2.3726331769773186 6.313877827133292 0.10227822664563675 0.741422076641478 -0.152193366308525
Ni 6.38879343474891 4.715274311301807 8.0135384019507 0.1268839410094589 -1.7669569661423183 0.7712826116463362
Ni 8.843294291901467 3.0782984877505957 0.5316359073961529 -0.35233729235439964 -1.4717981798814395 -0.7071037629755821
Ni 9.119294797469172 7.5648685008386085 6.34946746300013 -1.2162783481684214 -0.3640802918229407 -0.6348102556174938
Ni 1.0277918272534459 0.8294195736506652 12.779053761414975 -0.20983595652265796 -0.0792694244552893 0.6608493599937327
Ni 3.4909908374825838 2.6929537209966723 9.466744549225155 -1.484358018824321 -0.8900050998909251 0.3128631455191774
Ni 1.957204226118483 0.7571723824873541 10.540270786219713 1.5610190591224857 -1.1891884339301648 -0.5542131134897165
Ni 6.954689376858352 4.909655918614898 12.557279421812298 0.18307231527556858 -0.6071726964058833 0.8644743026096725
Ni 1.3247360848794874 6.299923004215408 1.7558963458523562 -0.20205888368040043 -0.35823231768259595 -0.3833568806643656
Ni 1.3554007601325195 6.00695004317412 12.025573486912561 1.273702394613845 0.6677008356979275 0.34165615849146963
Ni 2.304273433677366 4.08711839002027 7.732143014363569 -0.4882121240085592 -0.12004403526949001 0.5686624561458271
Ni 4.259874398529614 6.5544269090122835 4.8805502767311015 -0.3469883693376604 -0.6712556429287213 0.2666210838325021
Ni 8.110447252763874 3.6222924067000437 4.28857553943877 1.3819738627284393 -1.7337341995334465 1.843829865340973
Ni 1.9692931846316977 3.5076039412930453 2.607580058569699 0.4862375167806916 0.9238187060062605 0.1312980109167545
Ni 4.386808462918367 3.0635466412721986 7.362833624515551 0.7045308600420834 -0.5891942575505917 -0.39860172263857807
Ni 6.110268253394146 8.516864769609048 5.242239568491902 -0.6419905754160169 -0.5938728939731837 -0.25775951967681415
Ni 2.385026202282406 1.9333948749003835 6.172331049858787 -0.2609813690482215 1.1024252722009917 0.04862470298623884
Ni 2.5731514049990993 7.781032347423985 9.487202715831017 -2.314209074933169 0.10292203087722275 -0.1655484474591923
Ni 7.793711011230527 1.8840531273102432 8.058769719363443 -0.4104542511017899 -0.015629479007140828 0.24070410685642415
Ni 8.244936916223386 5.166104008050713 6.087640155591744 -0.668617691085242 1.3554213090508915 -1.4113425456985438
Ni 3.6165888508161417 2.276741567795136 1.6232218689988678 1.060624791225438 -0.2865419911261452 -0.7920702378156488
Ni 4.834099927907307 2.1317754212338516 11.430942311556693 -0.9820356806666248 1.1910671390101166 -0.8288562962957468
Ni 6.077180257951347 7.787076826680592 11.12418038221127 -0.4002737110243622 -1.9906154303703651 0.9080866399829846
Ni 6.662895826403718 7.872915803440582 0.4049635247313138 -0.27169104215624174 0.896230769085663 0.40829992376294844
Ni 7.018718471910431 8.561857440660898 7.525998629277636 0.7003397047788712 0.13305947369255147 0.3615313001488419
Ni 3.4967957489637764 7.13759937338718 2.1950618561821464 0.5059835890593672 -0.5090586284402653 0.37804523864346506
P 1.3780214866187555 3.3691890519748213 9.967190575091406 0.27291000216500744 -0.024845855399086243 -0.7322177844343906
Ni 2.161813534612723 4.281002433492115 0.27900984539271767 0.6373268513917605 -0.11757166246959751 0.20123844466163404
P 0.9238194127236338 6.460203060112793 8.004637537679539 0.19266972915601657 0.21282666371986572 0.04690386364039019
Ni 1.857451890094046 5.75047431130268 6.104847571768137 0.5475590985083085 0.7984987670498118 1.03534801893652
P 2.56066623824193 5.28058976226313 4.05168355179293 0.7073649870567689 0.548489580742378 -1.3504079149967003
P 4.632264077120748 7.782875176465634 12.955475156888157 -0.19382646846827908 0.6326068202082717 0.3497679889653266
P 0.9616066222226376 8.095280769751106 11.360910200901445 1.3795886503257142 0.5420759639065503 1.1233633079052396
Ni 1.218091568239285 3.6322252552345295 4.861157265311312 -0.32606524603174813 -0.1576415339072898 0.8199528231585297
