# total energy = -340870.6984507338 ev
CRYSTAL
PRIMVEC
9.25316908354976 0.00000000000000 0.00000000000000
0.00000000000000 9.25316908354976 0.00000000000000
0.00000000000000 0.00000000000000 13.54294827844026
PRIMCOORD
 96 1
Ni 2.9951767321372826 4.852805898248748 3.9363794576524684 1.1171124418995213 -0.5446830625120942 -0.34448282930698737
Ni 9.081809418319985 9.455628186783876 10.862812167848704 1.304955953311488 -0.049374950888702064 -0.35904812871567193
Ni 7.940625356935215 7.341343876216286 10.400577520367356 -1.7288503890785836 -0.028311959570815757 -1.921053720121143
Ni 4.749438748999753 4.632145580628054 13.069134047722537 -0.26568083140641985 -0.2701815474902508 0.8772570561966374
Ni 8.119387325992715 5.803883605563104 0.5730413444875876 0.513339000983174 -0.35764224950708084 0.8913958095908647
Ni 9.0244305182669 7.103278347984425 12.254160275739713 1.5783495799811333 0.15622459895510515 1.7777604845157255
Ni 6.933131079128413 8.611970516675822 4.820206059065225 -0.09128676063113955 -0.35989633564858015 1.1827516771658857
Ni 5.85667293386545 6.412455267809736 0.6855654296328141 -1.167554657710473 0.9313268414578476 0.4404757371645446
Ni 6.520902406758641 1.9455065107017169 8.871416416857798 -0.06706131242487161 -0.37653702952905477 0.24746148018491573
Ni 1.663386645564075 1.5056386229701386 9.350281784717376 -1.5992881299060135 -1.6727486609890094 0.9504846453332212
Ni 0.18175444386433204 3.7456827514092783 0.7733955830619191 -1.1982536294562265 -0.10806423719979454 0.4383085543098967
Ni 4.670305648974921 5.548255562849584 7.01182095236522 0.6755195604113979 0.8796821206983624 -0.07800392747930437
Ni 6.376645504351353 0.7063535987763815 0.645894318812367 -1.7536692478944766 0.2992717799879878 2.1917608010975607
Ni 2.5403464703715426 6.05199807516856 8.93319889996769 -0.3709117129224773 -0.5196217486680922 -0.4159538407637804
Ni 3.626612974617938 1.890996092992843 8.636229549455884 2.251177709603297 0.9655736784558597 -0.6988291816716158
Ni 0.8512304634967744 1.2632241053776974 0.9003999521441031 -0.24477159205757845 0.8562382878531254 2.5886103169317223
Ni 7.588449750416843 3.8931319970706095 9.808493154381745 1.0213558184224862 0.23014047240796495 -0.016760764398106618
Ni 7.428157106388524 5.937804718362378 5.787050240787008 -1.1239027253484772 0.10531958457512183 0.5992968932022325
Ni 0.13848940226165327 4.28125616458015 5.96799780832742 -0.5568765192544926 -1.070178496352144 -0.8124685989663428
Ni 5.1005317347624075 9.273803418836266 8.344677003990212 -0.915731815233068 -0.016404409499952394 -1.0678562759768706
Ni 1.9820287681617277 0.21202526044773204 5.174909631314044 2.8086324699587633 -0.29472324138535694 0.9126709169195572
Ni 4.883998330449837 8.86094553098454 12.640784504578297 1.2447985670953015 -0.09924432491531941 1.6749420690959025
Ni 6.9933692083568575 3.083387190806217 4.994165633488383 0.7208560795646682 0.8912957936778908 -1.826194925868029
Ni 2.807207860071749 8.354288270477092 2.84481829018879 -0.8549889888270564 -1.514146048720031 0.7881958424619071
P 1.774720773194896 1.1973045304739431 3.3345718618368645 -0.4743819029936863 0.11963420142558107 -2.2685431974649384
P 2.780133088009932 3.8603295134892215 8.07033720322358 0.31724199131316333 0.8938069901355187 -0.011634498915134801
P 3.706717657372261 1.0767172339908262 6.526915115878863 -0.06844482303595954 -2.8198933875845626 -0.2763956467207627
P 5.305933576945666 5.805669467151597 10.698089106573907 0.30049022577612117 -0.5173211255593736 1.0750702772268066
P 7.016733459708904 7.8748908454085065 12.715027304864691 -0.7504713313279399 -0.23574856262336175 -0.7111781901552721
P 6.166283963663263 1.1584782339697106 3.6983213319556882 0.7948418870235149 2.35424783602261 0.5501183745950526
P 1.358300415335035 0.36572224571813317 12.614795129222854 -3.40792242118246 -1.1156559119586527 -2.7518090332118157
P 8.036025527802382 2.1365381816573605 1.1219383954888802 -0.1116018180394078 -0.46492281446331546 0.8616612586409096
Ni 2.254830692265108 3.3624535102226014 2.203329405067001 -0.4283910380858687 -0.7292499600553182 -0.2306726907623511
Ni 6.1196479926476925 1.5206287565108576 6.388520095939503 -0.4115166309280332 -1.265838418484736 0.514834611692094
Ni 1.589962750721109 2.0325880827706713 6.961210745327589 0.255557884039805 0.126722218620614 -0.2527124441712099
Ni 0.6641582234930281 3.9771045044051925 8.407150698813371 -0.39660448970289114 -0.6496691750071972 -0.11021470788389406
Ni 0.6737722659305633 6.073780034646863 4.356685221113409 -0.7817904531561956 -0.08369223611333329 -0.1866032112469625
Ni 9.087370572800214 1.6663199000902524 5.0415788706875455 -0.16641388078328115 0.9199355689017705 0.1326604384819199
Ni 0.20882273870795248 2.3734007979384244 12.277372775122583 0.01156919289483814 -1.3190309433473155 0.8311078113340847
Ni 2.0030519677941436 7.388701594402336 11.291757615067032 -1.5575791802030015 0.3176037455279563 -0.04022876561305975
Ni 2.152888531019367 3.501112245474252 10.61557212269979 -0.44913701238396836 -1.1333543576796803 -1.5850483321575477
Ni 4.544444046245995 2.9196523679648454 4.2043132896226565 -0.07194023778372771 -0.9960823885676782 -1.9190498023172369
Ni 6.427602705220944 3.878345433244641 7.572132712462704 0.5251822734750052 0.03264658239042765 -1.6716073482957148
Ni 7.672329726062903 8.056299220757763 1.2195519243455175 0.9362965267582971 -0.7427647067123014 0.533029794543882
Ni 7.2924871446761665 6.347757111194485 3.461333797895118 -1.238777557712202 -0.7578041175439271 -0.8102114275010497
Ni 8.286314492088128 0.5054450953877975 2.8016568840772567 0.13493406500744504 0.6025187425736398 0.11576957626385223
Ni 8.182558709747337 0.5735697004290538 13.026785995153123 3.267701910965095 -1.0511916708369962 1.0388143802185656
Ni 5.7034589640091395 2.676793698267494 2.1327573368643127 -1.3151028119375028 -0.9229273045402429 -1.1303687926887953
Ni 0.9955576899873411 8.022849015356714 0.9527571574610475 -0.6404142320678325 -0.10394507282509839 -0.036974263231504066
Ni 3.2862259052173903 5.946400912226162 1.8865601238450527 1.2354454080151756 0.5234372657594405 -0.28020627871610454
Ni 4.131493626705745 3.037556245480797 6.371983757883566 -1.171103551403996 2.421111944835011 2.2852096023770256
Ni 7.261322471981634 4.17145806297881 2.1879312067798957 2.640685183250091 0.8837856013437748 0.1310838380234194
Ni 4.686489441297586 4.390017911270034 9.113686585016143 -0.42097109147271367 -0.4635701570901629 0.48331468670694183
Ni 0.3756879085720556 6.502238765183561 6.700360214113833 0.3199478202801006 0.9519087793742572 1.1463775094122257
Ni 0.210860286489228 4.484316955043778 11.420645929327545 -0.6146720901067221 2.0197164615013796 0.43023529038345903
Ni 2.8677420907034668 0.1582291873742556 0.3012665221268122 2.5150703387610425 0.00833731622110177 0.8935820186089062
P 5.3788670538394605 4.492802110881334 5.333727320227307 0.9926337678974453 1.3148477585039033 -0.05510054051856962
P 5.313465656391434 5.062926856546677 2.40589144972949 -0.3673509921544125 0.5292780408109337 0.20297136819234077
P 4.4440471641985875 8.233617695474305 1.2184924365119296 -0.16674735286329992 -1.23090715382519 0.08560796507880741
P 0.714981253414262 8.815697535296813 6.907228683560181 0.2277056377142272 0.08410438395008742 1.8105371647261144
P 0.05880111210568315 5.650077432900245 9.552599545722165 -0.10025528267833701 1.5895426204834755 0.6043298276404496
P 3.770222155205566 2.9732929878016034 0.7084790516617537 0.312940535724332 0.0458175725547469 1.4120038334316263
P 1.413884200630775 5.8549796039654805 13.042224907383176 0.4417993410719746 -0.3061147710517502 -0.026553325008496203
P 8.148220200136468 2.680263636587105 6.813958592162812 0.13769542980266608 -0.21892789152159714 0.573191197254116
Ni 3.2204728873529773 5.226189767776582 11.283740669573405 1.165418842314393 1.5960356844069867 0.6403129306032779
Ni 5.780991265822525 3.65741677372723 11.220981977149593 -0.36029459952826337 -0.2751615172033454 -0.4791214745612006
Ni 2.055554447862069 3.4607314166028336 13.108720029389543 1.5472065787194258 1.302434729551531 -0.4734131113225137
Ni 5.902161511943336 8.56266963303079 2.791377538799242 -0.35524212470602046 -1.7215386859085189 -1.9784389429088314
Ni 0.9092848448760774 5.758635609875378 1.6602303896685568 0.5536978644161948 0.07447148884601368 1.5625378097598572
Ni 4.908528481077273 1.9731734855700807 12.88198408110043 -0.005646142542183825 0.17729761757532048 -1.3893426443886847
Ni 6.740739192351481 0.6056069469463569 11.456060582475935 -2.0849196376715895 0.24620909583505335 -2.344698501771278
Ni 4.57537738971922 0.10803814888563353 4.598643557481432 -1.5421625885376151 -0.31723093556956977 1.780902886799449
Ni 4.923685171657333 6.643303324336808 4.417249061885454 -0.03311092362135588 -0.6089177041214481 0.22523737867939275
Ni 4.02498040004697 8.202739871014193 10.819677595926843 0.6112892896774181 -0.4910498505676705 -1.0868490150292895
Ni 0.7628173604299747 7.828810064524075 9.083403739313235 -0.630197953656463 0.025463948599059375 -0.9580526874884661
Ni 7.0685419521129065 3.3202313007495765 13.170977200061559 0.2622761766002451 0.0433138322962867 0.2898078063616106
Ni 1.8875909268551985 2.91265697231251 4.587511070035235 -0.1073957503778602 0.24942811699298334 0.33463319020641724
Ni 2.475666820093996 5.205101795962201 6.236378568353173 -0.7384262272379477 -0.07143887266727696 0.5350985041474526
Ni 7.907637809976781 8.24673868890686 7.527305735957759 -0.6417573763592883 -0.45298749647831016 -1.1414841858756664
Ni 7.158769601591642 5.5610156826969 12.152141313192498 -1.7668320105286794 0.09849407701285617 -1.974453990119154
Ni 3.9495023017187947 0.9345978135884173 2.313542048632924 0.6853190630003229 2.393507038633549 -0.2588293557022252
Ni 3.575655773748346 7.758180626674502 7.004466533761415 -0.8670896287453325 0.3160274021797719 -0.20075970525300263
Ni 2.8524466025906228 1.379767767072361 11.467721425863598 1.219956568350957 -0.4829819859578715 -0.07603009158238519
Ni 8.791824359657891 1.2670179046071384 8.394054688936718 -0.4472431377953652 -0.8027220611025401 -0.8548573483451987
Ni 5.031244006396417 6.993563524902755 8.986233437244623 0.6893940044006449 -0.4570518963556709 -0.528846866810786
Ni 9.176302778639629 8.682646220369655 4.998472058272242 -1.3701239053683887 -1.997433738843779 -1.1909252141156135
Ni 3.398022691290826 6.894240010442213 13.184913397670002 0.2520601552991917 0.0064768659735952964 0.1730216159077859
Ni 7.553361734128938 5.842219484118165 8.33755298929083 -0.10066691629445888 0.5975030345266032 -0.6076750899635986
P 2.7245400495453396 8.627950739283737 9.252542412764347 0.4210518241119781 0.40413910751703946 -0.6990145582095446
P 5.670508429726114 7.708296793391776 6.327562995491235 0.41230930203265764 -0.5941917107651832 0.8554844404062363
P 0.005746217857275597 4.19624730233411 3.417007417825081 0.248641616535946 -0.29210997213222595 -0.1431633948957728
P 9.147960322445046 2.362102678769771 10.275806866246118 -0.5088380277890269 0.9517619693837479 -1.20528251127855
P 2.6571584739629226 6.7912892537915726 4.5052781584448836 0.7696988120989842 2.044207247553892 0.6317616985991571
P 5.009832173672205 1.8190249456596876 10.339512157843517 -0.8352688846903099 0.08835518880664138 1.7966416376909444
P 8.912892820921329 7.528748304981831 3.0824563220196763 1.2149827692854493 1.1943272978186268 -1.6283611360125696
P 6.975714162186677 9.003194495750881 9.272667129701205 0.788495633090513 0.11165632542642706 1.0170417644281646
