# total energy = -340868.0994215275 ev
CRYSTAL
PRIMVEC
9.20509484471462 0.00000000000000 0.00000000000000

0.00000000000000 9.20509484471462 0.00000000000000

0.00000000000000 0.00000000000000 13.47258677048468

PRIMCOORD
 96 1
Ni 7.629329760958642 6.007069898187477 -0.07452076457599369 0.5902702642235899 1.5231716492574092 0.4383473779676322
Ni 5.422804127995339 6.908469590654941 0.5140879692910978 -1.9898435852013474 -0.4092918553625725 -1.4626815622921518
Ni 6.749663297055327 8.86074130317337 0.18748292508876876 -0.11421560151317103 -1.5285917918317158 1.5250773509205542
Ni 8.192276531847702 6.100529224579599 10.652423695250647 0.0861934052686322 -0.6017450976324089 -0.1985117897590904
Ni 5.822121135666988 7.858076364016284 5.525929724321901 -1.375870578044179 0.5496684315418275 -0.5757355609425246
Ni 6.788628462879994 0.3518334472204408 7.185536497271154 0.17684896007367606 -1.6789167374729344 1.7356347589902688
Ni 1.7985374260932516 0.6261627586757136 5.484151481559832 0.8237631980435555 -1.8034730587904813 1.4974608747548661
Ni 1.5778636910791333 3.6999233751628826 1.1915820179986276 0.48902150728373206 0.19554627937286323 -0.46430677814587135
Ni 6.9482540099070595 7.274445745357788 2.155559785190698 1.606948988885381 0.8601381371281638 0.9204960693909309
Ni 3.115988988379601 8.18710326863167 6.609462340844046 0.8018987938702964 -1.0560279158833747 0.2816800350481536
Ni 3.9487739050244635 6.256214991079152 5.455588993244841 2.1459758815529626 -0.2285296762774193 0.14609830915438066
Ni 8.949828209587531 4.178128044331674 8.846060097651575 0.27640567402309174 -0.4770967308216881 -0.0027132851661050045
Ni 5.816745360367768 7.458906637859681 7.987303926847082 -0.7517561115776343 -2.3872682568126886 -1.108710076768439
Ni 2.499597437717798 4.068302059579936 8.84235504703867 -0.5521212639576942 1.7112671287791816 -2.5130191126589687
Ni 7.771741780914569 4.1835498451043485 12.008115982409524 -0.002039399027531972 -2.285862662579992 -0.5691329680243423
Ni 4.86376952234972 2.9151706426127797 9.350284807981856 1.9053841319046863 0.43252074398352613 -0.7850524117369189
Ni 8.577601795589871 3.599578637942305 4.451248726854091 -1.5834020548033763 3.369607584762661 2.0262786880999295
Ni 4.4069851085256015 0.9790538712760869 10.7470953326135 -1.9710475355407668 0.07769899464437587 -2.9416356364920824
Ni 6.7282982722787965 0.8806854678855487 10.173904211843439 -0.30743143298064474 1.3914020980208746 -0.6843281598419634
Ni 4.847329223232579 1.009403068470495 6.121445040735236 -1.043767096238151 0.8681232122161694 -0.037816813737457454
Ni 1.3943417182356643 7.799522756690342 12.549916809775686 -0.3697256630341762 0.631025848874397 0.5574038525128724
Ni 2.538801936004418 4.728528271157653 4.584923270929845 -1.752803814570388 -0.602615416052504 -0.5368936483746625
Ni 2.530940785138775 7.189611592690616 2.553674607495775 -1.4697351267048235 0.5529108497385251 1.0284705750903964
Ni 0.7220384224240783 0.8950583027352147 0.8853331201947561 -0.6270684068885458 0.12031657220458634 -2.3361012470205704
P 3.7786545500502875 5.28342058419257 7.441246663696057 1.3325773145731825 0.4264130884238914 0.7375703069955556
P 2.1408933078204067 7.188341289623333 4.947537725051738 -1.4961339284133266 0.8345497471360982 -0.9956766684888272
P 6.003516731636964 5.311275200725866 1.9267956924531444 0.6956487270611051 -0.5076172680080484 0.5241232360828716
P 6.08905047150061 4.03392103091111 5.201967462805199 0.3983150446360947 -0.4371219902009633 -1.4946396032559872
P 0.7021443717790815 4.975243219051049 3.203888437578692 0.5146461498303717 -0.7490027172022133 -0.7821151834854658
P 4.4255886048949975 4.221318348619258 12.784178185062375 0.25440577271323284 0.04567487632929553 1.3895879276302714
P 8.57782271786244 1.4292934627752967 4.4335454887454215 -0.4143810969600218 -1.6638778408619408 -0.7623701396480548
P 0.4253674256456184 4.199879683085204 6.532169922256759 -0.4114279278689688 0.2457954053364025 1.1170425078935342
Ni 4.669716921180378 4.684684405147047 3.595347976422575 0.7682371399517931 0.30905637017857746 -0.34064520072845206
Ni 8.980656071705841 8.412361140801632 10.895347985150517 2.6160987521599783 0.786098079392614 -0.17446888987727371
Ni 6.915971742827657 7.78430673516703 11.593214749426947 -1.4972122490791697 0.9130316426930857 1.3275824324617522
Ni 8.988121403499795 1.092386997104887 6.603264550588967 -0.19344414542819588 -0.7740604315017895 -1.0376879799236065
Ni 8.063257924666377 0.5403988914448062 2.275318067113431 0.07808517433920101 -1.1141417893069714 0.9618504639680016
Ni -0.020208864883410317 2.0113316000523462 10.681497986830426 -0.04390235780990504 0.3131865902968671 -1.6730613071334217
Ni 4.134367024173283 2.6178000586378456 4.245400717348409 0.14344981578794003 -1.2665267028010123 -0.5577728058165168
Ni 1.0863760702720242 2.3014209541271358 7.982520959645925 -0.26314803768223716 0.9779016038935933 0.14628985633989644
Ni 2.170809865564364 0.2876122630935897 10.645579707348299 -1.1197128556368459 -0.044140699072956244 0.1975010891063889
Ni 6.928914105962427 2.0789338154589987 5.858068871452128 0.28361633283891796 2.0316414950737394 -2.213159835598627
Ni 7.847665401921388 8.195415469137146 4.361143736967168 1.0624816419285183 0.5650019765751044 0.44268354344914085
Ni 0.30747041386929397 2.534871360571596 2.641852971063987 -0.8777805328002753 -0.6287190551180915 0.7265364177788971
Ni 1.7696702491440055 5.890873987909948 7.365759364177566 -0.9848214709418781 0.2885140272508515 -0.1159888913635099
Ni 6.279503880645986 1.5656301202355274 1.3455850931887667 -1.3053783855608874 -0.591442173044504 -0.028140981210590246
Ni 0.6755471711805 7.967165941192787 6.652265110645162 -0.8179103388072042 0.27934418782612536 0.35959808768187096
Ni 0.13960078403746354 7.038583604104429 2.823261454166529 -0.7497966738584184 0.15398722498415415 0.3599518714768639
Ni 6.927809494599574 3.1781970182976504 3.0415713208641404 -2.8499763230128723 -0.5355258214928583 0.05133053195317611
Ni 2.0547704418965718 0.23255198920267292 8.165977576317092 -0.027234924456553095 0.015129399442270718 0.9817351187070706
Ni 1.4043476561641817 5.384446498420241 10.329984876905215 0.2057928968015359 -0.4383196100534903 1.0498809224453727
Ni 6.146876876346006 0.7795187157091141 4.045764305739842 0.2055057045784203 -0.00016892147769648327 -0.6012357620961581
Ni 3.076591183104482 3.4259521418910683 10.924327464254985 0.3107345292119487 -1.9744401061620835 0.7860299451588398
Ni 1.197214615439713 2.664414658150276 5.183564637500055 0.21950227596782843 1.4214536659906165 -0.14315182493154702
Ni 1.0694386960415994 0.021969799497693083 3.3235123251189447 0.2041103668927904 0.3886086159816081 -0.10316885678070618
Ni 6.83840961496594 5.8691039389670365 4.2773709317178055 0.23557886981471687 0.15140660874117148 -0.6666091452956455
P 8.26655244090493 2.4544556533558395 0.5973075483495651 -0.08279414977909613 -0.4664263955920354 0.3076345501303863
P 3.1880004441429786 7.241583557312886 0.3583681439411901 -0.6653680737996928 -1.43141797629218 0.5556552452528818
P 5.939716220337466 6.64790097525242 9.96029630751371 -0.7812422939622093 -0.639893326567356 -0.11284057554251534
P 8.754275177983645 7.922125412872424 0.8124094395475552 0.40611551451711997 0.3556221337532585 0.06610331938697647
P 4.888733739150216 9.144120143218824 2.560114491741213 0.25667245726022253 -0.32801439933831894 -0.9719338163459328
P 1.4277378017726108 1.6899081036512704 12.196234059031935 0.6064563870651491 -0.4654444912947403 0.5018245725856711
P 8.398443037629674 0.9855158477487816 8.66077166713701 0.2870251014101508 0.00011775652478689397 0.687210623596081
P 2.3261550435603704 1.907258799482137 2.2287697442827716 1.4166084220831732 0.9802341086815118 0.5305911031954024
Ni 3.297817223800027 6.656857532386226 11.51317368956509 -0.07717654648200258 -0.019947903876836613 0.7777461078834927
Ni 5.980255457354201 4.890547142804234 8.372929276676158 -0.14467906020935084 1.1646477684763232 1.6192028665520692
Ni 3.71239627846844 9.186620065404624 4.427792304563891 0.13788954809134318 -1.1112107317031057 -1.9396032009885564
Ni 2.420102239971086 4.637904113930189 12.576780958120292 -1.9988532448991252 1.5423739332174728 1.6226342608311215
Ni 8.44618986378903 6.334246578770083 8.34702153766989 1.1901950208178083 0.9509944950901041 -1.3127129715490877
Ni 3.3016097228124917 5.257931676994718 1.487979623464781 0.7463148859574049 -0.17785477563037114 -0.8942330219293438
Ni 5.608065863735303 2.886248235095391 11.674643017058651 0.8352004933462196 0.16030725366491103 -0.3733789435160473
Ni 8.27579435597414 4.438696659734196 1.7000926204167826 1.3878362350464872 1.26736231132843 0.1557186058529641
Ni 6.45058977056266 3.7176615926313765 0.4743735087586273 -1.5670868625831205 0.8435714910187342 -0.6940957807516885
Ni 4.152234112967443 5.308219109288638 9.864452861596762 0.41650894193630206 0.6105300429138906 -0.418108425212938
Ni 7.324567485947278 5.110640956852855 6.61553862384921 1.206446192569348 -0.5362171911329282 -1.0181491385597305
Ni 4.684813276472713 6.869706936913464 2.8126986080092395 0.7029187783599572 1.4492406062958976 1.1669926145594158
Ni 5.790087406144229 5.699674966094645 11.846836279866586 -0.6839049562616156 -1.0407000272770528 0.4256846948982991
Ni 0.8551578992899972 6.07590559628265 0.7519687878100713 0.569668014592206 -0.28006795336602736 -0.2554457839419729
Ni 4.466845839297587 2.969204548445711 1.6705203332142482 -1.2313591537609436 0.7551659085901318 0.6593426935412193
Ni 3.7116414607038233 8.76873638174234 12.494274773900333 0.5004575170348156 1.017794840544105 0.04556534733462475
Ni 0.15698460536037526 6.087292298414734 5.344979654934943 -0.09819274372235347 -0.5573830265772658 -1.0439938675369762
Ni 7.45373337464365 8.064233664703565 9.382996032473834 0.612200745748094 1.4087992104513996 -1.4550500138888232
Ni 3.6029753178830806 7.863792727819053 9.394326583528306 0.12455066489059193 -0.18628053780022114 -0.10778244429331761
Ni 7.15379456925008 2.8520513083203753 7.970288309311787 -0.10186016527161167 -0.7229247891682389 0.8048900152881364
Ni 3.3610009937552645 2.097583337301847 13.16899532757763 -0.27655479800644633 -0.0498644889306109 -0.2577644047728206
Ni 4.815194237668225 3.520470054172592 6.84959748705271 -0.24487366485308154 -1.1897643610382929 -0.5167228298537423
Ni 7.83746615700437 0.9068150496738553 12.172697552417926 0.8132412154663091 0.9958954693678526 1.2666732556812057
Ni 2.8228527479622727 0.10269479789504896 1.3483226883497057 1.8958785064070964 -1.1220011374503902 0.17487075330138271
P 7.590806439679116 7.35375684121069 6.533759642109799 1.3400180871219438 -0.1327691961456423 -0.2658919189759614
P 1.367214304182913 7.154365285120888 9.296556511292648 -0.2518315842281534 2.338370245560405 -0.8539068115064713
P 0.29581676399118634 5.3513817982921505 12.210717355017884 1.0329360670609178 0.4265570702009235 1.1303808768736532
P 3.0599483719041514 2.4656858688781864 6.029467734588276 0.3889480015988979 -0.6173439805119303 0.799698700895184
P 7.2496656304511005 3.2642370383692714 10.109761271021458 -0.04960789283511456 -0.09840383129189505 -0.1651380993946511
P 5.542553204823382 0.8539308601677604 12.326837783518954 1.7078365058310778 -1.0081634881019284 2.775487350665362
P 2.967105786856289 2.158576294720758 9.17211007464407 -1.2767301256965753 -3.864564740804538 0.18320678397090384
P 4.602455294277272 -0.10564963329068289 7.867425058183904 -0.5182171550110817 1.1334068081841706 0.9899274247098757
