# total energy = -381167.2899726546 ev
CRYSTAL
PRIMVEC
9.26506633431059 0.00000000000000 0.00000000000000

0.00000000000000 9.26506633431059 0.00000000000000

0.00000000000000 0.00000000000000 13.56036110752293

PRIMCOORD
 96 1
Ni 6.337935403445561 0.1434621402755746 2.096363942232017 0.7132870089681586 0.7721555011695928 -1.5952391566476205
Ni 0.2736752356799856 7.304337413467654 12.010628851856923 -0.030857094590172662 1.5553052965671599 0.09055888132617952
Ni 6.267780321092799 5.8971035468232085 8.849423422716702 -0.2154975256838095 -0.7699083570066289 -0.3406855670480842
Ni 2.213785687042632 4.86817160404903 8.454939133970928 -1.0999109904195703 1.1730228799138958 0.7530015539489612
Ni 5.299590153266416 4.008781110294028 6.975774998262311 -0.4871353460046127 0.1410815726660796 1.3530844333875987
Ni 2.3552169247757173 -0.18914910892186476 3.207255588387175 -1.5122534596830086 0.6811944993089881 -2.0614269538662886
Ni 2.162874147485258 1.4710979689499915 5.121856532586342 -0.09584918319084137 0.2326205585173413 -0.6845947832397888
Ni 2.618335543863952 2.6258587777348503 0.8141352772003173 -0.7054723980197463 -1.255547320971373 1.9950865787678416
Ni 5.298626586366695 4.030239003945507 10.691422380541796 0.18119798107099117 0.452883109689962 -1.4833465468406712
Ni 6.977790150192017 9.433505249595365 5.544045222712362 0.501326292793014 -0.9699509815879489 1.4472922243202753
Ni 7.921390831942826 4.99333338528298 7.030111832846866 0.7720156331576188 0.1473013283235463 1.2366247730352573
Ni 3.8980172421578314 7.39959156054488 12.755350252011954 -0.46263761797356456 1.1909830639367425 0.3349970013037392
Ni 7.769805081497297 2.5210801424565363 11.354483338958744 0.602893352304239 -0.2818494707464823 1.889503456118688
Ni 0.8469280530163988 6.144165805938208 6.670233493400591 0.9051794936385186 -0.14940320515789754 0.6222157067819349
Ni 1.3406365697675755 4.003638998473401 12.734196252536542 0.47695146349307543 -0.042173548044256395 -0.5614672239489684
Ni 3.297511232172098 1.3110532129328722 12.584055852440594 0.1096863461842498 -0.4720224016225742 -0.2596870757168302
Ni 6.315449087429958 3.1288129041901773 2.580021715013796 -0.9143693876679027 0.9830404677820554 1.3911966668782878
Ni 7.570485709250204 9.237132168445495 11.342577728707383 -0.8105760099293202 -0.2869587669485897 0.22616734669282984
Ni 3.403364615146255 2.849582334730646 8.42889039994626 0.08704212642217268 -0.37764903164631086 -0.6531597046589589
Ni 0.5188807754997533 3.3521936537312644 7.597043095417129 0.21599631969709895 -0.2829658437391127 1.2747817437209528
Ni 4.616254450170051 5.819601266860073 3.3628744222120175 1.4922366502414495 -1.0674762669296327 0.7360695540803129
Ni 8.9008751156419 1.8142297009804422 9.21065816787566 -1.757801010674663 -0.5676314437781514 -0.9674737236920499
Ni 0.9322231802810277 2.2239124045560454 3.4236115646266425 -0.2501778506748143 0.8136276522714504 0.4814272398762419
Ni 1.5992616316792265 7.6496186408897895 4.9932907659778 -0.0534833166301208 -0.624803265003453 -0.44154865851374925
P 2.90834138548094 5.6174004589801605 12.752217733081228 -0.526857604294899 -0.46960119377559123 -2.1452729419486665
Ni 8.098436984700216 6.740280174477135 5.4994450463481614 0.4085441785632706 0.768603007931644 -1.8626809366092048
P 1.2312717266492432 1.5084917767122406 10.426358097521433 1.6154968784553922 -0.3084786432982365 0.30509070066261007
Ni 5.699016428399797 6.4077291482109295 0.17118229226860565 0.6255285732052517 0.34709584144980227 1.6520307117153679
P 4.3158346739830025 4.995241988949735 8.814749838432896 0.2998641621563481 -0.7427413096735338 -0.5069724353351979
P 3.111357519199078 0.12514973664770404 1.1444376718649636 0.15714608232811 0.7740144087552024 -0.6243438088685312
P 3.0927995913131054 1.2783475287404193 6.8535289334066505 1.378744042937232 -0.2021015639928777 1.8872187738495692
Ni 9.07770817187339 8.659918535247249 6.931256354481933 0.04159556405359933 0.1780820611498288 0.3250355192156531
Ni 8.543215759584887 6.585803723332443 2.83850872743693 0.23554801657678143 -0.5927974015208178 0.6248410602199239
Ni 0.408627412519082 3.694676831117672 10.360630790374215 1.3432826168058285 0.45465279999587505 -0.18521455842955198
Ni 7.579130016148662 5.083019227487781 1.1118922733202528 0.3474568243336468 -0.5643486592618217 0.12761721963105763
Ni 4.803797923094592 3.142302840786271 4.698150224593261 -0.3051809463835712 1.623444929657875 0.29224289816566446
Ni 1.4730714280811508 5.7585630097892855 10.964935477560772 0.3817591971599425 0.13722208971067335 -0.7426808887492435
Ni 1.955503432585689 7.482986422702464 9.039878905992996 -1.1546289507877403 -1.2136169992861743 -0.41329454876406246
Ni 9.209596391272699 8.068251398553185 0.9207076293227275 -0.9553082919741095 0.11991316611858058 0.4022421476046427
Ni 2.483732660026005 8.220865571362841 6.967367877062245 -0.04729775664469919 0.5784547596459007 -0.5894395407921784
Ni 5.929929676878126 7.9768515190748435 3.717030656684565 0.3345959092105786 -1.9814761870732585 1.4052683144800058
Ni -0.16673783994364258 8.753579090913398 9.80342228842479 1.5032162891814047 0.27650980370112377 -1.0351970951809528
Ni 4.0409401555722155 7.596455690210953 2.077433558679037 0.7339468513103553 1.5983499343624603 -1.1337122552397314
Ni 4.937103697644455 1.7800879315047513 1.2207512438162318 -0.8053042200074195 -0.10809740443057513 -1.2502487915765952
Ni 6.0050230395919595 4.440422021103657 12.665174287797587 2.633665300288832 -0.7221873967815821 -0.2948895917598921
Ni 6.1692926658617 8.113205500451707 9.467546029847913 -0.7526161455850845 0.7187197499479557 1.8530799231843311
Ni 5.3639267739554795 0.9544593395053582 4.0737088422158045 -0.11236672122989036 0.5884995454764124 0.24698274077628432
Ni 2.663456416956656 8.943707517347766 10.625804401177431 -0.7522837019463302 0.9866585241506168 0.18120800837332018
Ni 6.92302434303576 0.47456133064575945 8.114845417194502 0.46136569323967636 0.5073894682679585 -0.7986193517880763
Ni 4.177850040929688 0.5171370900139121 8.544492485727018 0.21013060494494132 -0.5953877879558134 0.3704738540541104
Ni 1.4854680868487151 0.5880065089817565 8.32252280579004 0.6592239085751679 0.8106078916085201 0.5144183500902818
Ni 7.227548543612965 3.5041500068305336 5.087358984563062 -0.8444883464060489 0.22190959985774042 0.8561768384875705
Ni 0.8490034278773363 3.8252401460298664 1.6065504593716353 0.09704166083704577 0.8645064413991885 -0.6998859050709043
Ni 6.844956894025672 7.571653107609481 7.277412204166892 0.4997322088330168 0.6350917914136547 0.5408613747731589
Ni 4.544227824415907 1.880919648520747 10.366028618025922 -0.19661328718479687 -0.8189436651677251 0.5522932707591843
Ni 8.833888685978605 4.245633266298523 3.437727819707555 -1.0795751070756956 0.19685497088195772 -0.6748600724505281
P 6.818190117359384 5.29578221099925 3.764071251523636 -0.37623852445202943 0.49276503348656425 0.2823534069660944
Ni 8.070975328058166 6.822322336948572 10.246385110306141 0.042336298874365796 -1.8229393950452089 -0.9287781068940649
P 8.686286914060767 3.417957094637222 13.505997588600271 -0.7073631872845559 -0.8356152122861352 0.328658203569905
Ni 8.246344503807387 2.197960953727983 1.9372466193558793 0.9190004586820107 0.8332683093205132 -3.0085051446211217
P 8.199833870763163 8.665255213461087 2.8266707521698766 0.11375794515046214 1.0703623302281762 0.3926845858231947
P 0.2521052347257506 5.945485723268814 8.678658058433552 -0.6614967637697445 -0.1442687121448096 1.496424977291184
P 4.590534626000576 8.982268723469293 11.479293047671641 1.4081129830176522 0.8964133174101142 -0.6150335872111988
Ni 5.403145799787392 1.7969781474488993 6.560367410193077 -0.7884352121662229 -1.2689484248686276 0.0006409760181085736
Ni 2.067555144943628 6.533632134752357 2.663010767265535 -1.4675160075663178 0.8398948134980955 2.437436393026647
Ni 0.49319523207574845 1.5974734738749368 12.413995559706182 1.3419407580659533 0.2791408135660676 0.25676938784940295
Ni 8.499086248590935 5.199027123174381 12.191266144329042 -0.9587916225370197 -0.5619243660910451 -0.21007224090318016
Ni 5.777046817144511 1.9895618164642888 12.377775635849652 -0.39772677623279246 -0.8928703372538623 0.9608317928955
Ni 5.987604714866234 8.695681691333046 -0.32752472777487374 -1.0894360590301755 1.4802995324842312 0.09332615965867153
Ni 3.8428345070161183 6.494246337726262 10.293290435176598 -0.31485420780727713 0.03286589749008533 1.0092150692948942
Ni 5.9693340040369085 6.492523035386376 11.371108574005467 0.8026436424561209 0.24624791949278885 0.1811907819821396
Ni 7.849707013643391 1.4238090703329154 3.8678622307297363 -0.4172139384231267 0.14052955681735152 1.057558236484972
Ni 1.733781129920083 8.672528290540713 13.03234794048271 0.9745383438483152 1.1847008304724564 0.6636904289869539
Ni 2.964237530731101 4.191849556174673 6.349354597713889 -0.43772542811291715 -0.6856301664828386 -1.0684108629287599
Ni 5.974791128113213 5.886142973338882 6.178113935527319 -1.2828187550928165 0.7454306835802388 -2.452298911960777
Ni 3.080226896285015 3.991158954108746 10.547181048186735 -1.5022783507481676 -0.7427335963640498 0.8763211746459294
Ni 3.543897141444024 2.084704782745393 3.1511157718921807 -1.0652874868084299 -0.3871952805738493 -0.8582833433076121
Ni 7.99160150469365 0.768421439861631 13.546841707068829 -0.7768341375921848 0.34790805293845245 1.0048112838002439
Ni 3.399380636618562 6.279963883334464 5.244863259388802 0.5015466363339361 -0.58277626983939 0.7546789416513842
Ni 2.4852613959726773 4.294756648051606 3.4874812259719947 -0.21462206505739165 -0.2947016441188021 0.9461821613031254
Ni 1.51964691658978 6.351805207761737 0.46285028678761203 -1.6550209046919433 0.16762615592382746 0.04882062104712882
Ni 0.5629482105492047 3.8593263251074967 5.4455158746827195 0.7836154221800763 -0.38939845887275515 -0.2509409540930839
Ni 7.300807423190792 2.8670099245227156 7.702311852705013 -0.03572393576417074 -0.5645456057639762 -1.1313694660391675
Ni 4.730279621659149 8.621070112069074 6.5781581905858095 3.121395856675282 1.4584919496908366 -1.3791865297912893
Ni 7.379801378835225 4.002925588364954 9.753669808666984 0.8229461014588989 1.699821863056718 -0.7184618683008788
Ni 3.804013879036974 3.815910224221991 13.019059055826268 1.9297754162648568 -1.031730733898907 -1.4816568178430742
Ni 4.317150313403776 7.383562995770675 8.18412587728444 -0.4223440605608404 -2.6857872177950517 1.2579857552095366
Ni 3.67254258762312 8.640795438314324 4.741800731657256 1.260817568231377 -0.1238361553220706 -0.13618439247477837
P 0.8620829220344143 5.793214357913867 4.500141859233769 0.03972122984902192 -1.1710467300241316 -1.543056303996478
Ni 1.0466745448219257 1.0072702176631432 1.6172089916931647 -0.1581369854864696 -1.093982026529645 -2.1465582364189935
P 7.667490953866346 7.462677397277574 12.897313304553156 -0.5657378262998644 -0.613806142562001 0.338897621909726
Ni 0.3090047866609094 -0.026752879066772685 4.5895580880079745 -2.1510779786662177 1.5698945072352446 -0.5863806993611965
P 5.393704697183395 4.370266938750895 1.057504480870809 -0.4055156761495919 -0.6438715944888137 1.5059889668305353
P 8.627212851054795 1.9825018359105637 6.05905412698718 -0.02085961705782859 -0.8161694448566975 -0.221646833114657
P 6.635251382407548 1.9291535839048572 9.628860099954085 -1.0684545716825018 -0.06760124408874164 0.3663161231319949
Ni 3.4289639934532654 5.279429368903023 1.4535212115897924 0.7822069718683238 -1.1259603792084545 -1.4871060138831034
