# total energy = -340855.370344326 ev
CRYSTAL
PRIMVEC
9.42617617197349 0.00000000000000 0.00000000000000
0.00000000000000 9.42617617197349 0.00000000000000
0.00000000000000 0.00000000000000 13.79616164016755
PRIMCOORD
 96 1
Ni 2.359409540504835 5.525558348157243 6.414967063464397 1.3453065892143927 -0.9483452303927151 -0.020555969774480726
Ni 4.023902538944431 7.417919723579084 3.592534334999569 -1.9689099203724736 -0.04027427413901451 0.6736197722855237
Ni 4.138524838278595 0.7342199252316638 4.606883241816148 0.22901021545826364 -0.21307786049872338 -0.6581736129337826
Ni 4.321534044000044 4.419717092508651 1.8836176546272383 -0.13022380401596925 0.8091853002293806 -1.3600855472957802
Ni 2.9464434990273496 5.168447672970168 3.7527906372561484 -0.7987175679288373 0.5766722138241811 1.0550246714298412
Ni 1.2519281302440595 4.7099773279853725 9.125898499446173 0.26586055151739374 -0.8921098049387539 -0.06404849374047679
Ni 6.748651806225052 5.691902074830764 11.117029231519597 1.014499200511969 0.6005708748186496 2.401955426511218
Ni 7.816185082885647 1.986896493844731 7.687524379735826 0.5722830836175499 0.9428268716776473 -1.4307016669514456
Ni 8.884463027444877 1.030790042877324 3.035417173650308 -0.42815243971250133 0.15403479039263793 1.1099789161785334
Ni 5.5163772527993915 6.340715190412169 0.4620899965427161 -3.9572933760885265 0.7799084056421343 -1.5398123431378836
Ni 9.270483784215658 5.639369996361248 10.875968921320396 -0.8059721926087217 0.26708568217374645 -0.02727786187934657
Ni 2.4631634589893046 0.7857763944922077 0.04050333536258 0.1421768626127874 -1.110923282369674 2.627952566174771
Ni 3.799936598798069 7.657919588985924 12.253695025083703 1.1196418931895942 -2.214614822877599 -0.036246898147176285
Ni 8.026822410264039 6.612528399589799 13.383753069319418 0.7179247648504862 -0.33716932636470964 -0.7022019547985906
Ni 0.12857303971365197 9.00676766016369 5.67242948059026 0.5626645866911794 0.5312734739744076 0.15686120409783952
Ni 4.380786985909136 8.497414817497496 0.7201372183891274 0.4448350425745049 0.3519966211855292 -0.44595038712587065
Ni 2.5971282713361097 6.16529405631605 10.916074472058643 -1.9222261431626895 -0.2201054567694661 0.48539496627473827
Ni 6.622736948124248 2.4119227666224856 12.613568512436471 1.574925641901249 0.15873810940557825 -1.4755769301975814
Ni 8.798185239138494 3.229407874332637 11.331835756512751 -0.6768169390665828 -1.145122553959202 -0.7747587431203948
Ni 6.095351830899973 7.878850300482154 12.710375339258993 -0.48128402943015824 1.3300910578162188 -4.902864643280531
Ni 0.42447389886813397 8.717016438187303 1.4425546287362265 -1.3992797009967384 0.18235317772135692 -0.3528795380111149
Ni 4.738651755170778 2.443142261309554 10.921013788247057 0.36337092446074193 1.674805543518038 0.19305539463020946
Ni 5.623835658425171 1.8393108572760617 8.628257680375594 -0.5650369435780979 0.3031328056052908 0.6797240854110487
Ni 2.2286213494471423 2.8978421359215147 0.8231134773592 -0.661051705812526 1.6019399657065636 -0.5449741113899517
P 8.443365124702915 3.0264151756351665 13.566124122930264 -0.39420127957803724 0.8688336080196328 -0.4573789406777865
P 8.832901845096366 1.6110465809046692 5.318640589801652 0.4683626933827998 0.015766518805637363 -0.12818543342970182
P 1.7817074961550847 3.66414310832044 5.1628551227896615 -1.7586075657363585 0.6266930258269982 -1.1044163344890916
P 7.208093047330851 4.909491767763903 7.353905620206695 1.6424507813364166 -0.03723034510636814 -3.4616931871460124
P 0.716908753132388 6.688343132611566 12.48309798350769 -0.9692642399335694 -1.0196995137659857 -0.012914394068822919
P 5.484686449315718 6.945225279112771 9.911644730175398 0.26298734373465676 2.452975626312827 0.015365169602160635
P 6.754505461478877 8.064225476362555 0.7241188351028405 1.9438349796817165 1.3350370889675847 3.685254977895195
P 0.9550884239667419 1.0362949296216621 11.502121509961068 -1.4498769543283159 0.6015795185888221 -0.08607821984700659
Ni 6.294734304215454 4.900772555026724 9.137790563002092 -0.5183832482753008 -0.7059745344671454 -1.086332737514503
Ni 4.789562531379975 2.269625214751716 0.036814872720354774 -2.246280529411996 0.2700355088306898 1.2545111663973747
Ni 0.1790520970651585 4.44068090778161 6.715709206577598 0.3990506372505386 -0.3116812093959342 1.8149049547765066
Ni 6.820102219790263 7.054286134647006 6.738528093273992 -0.03565014510344183 1.580036737875569 1.3283871877512348
Ni 2.830143340377273 0.057870121899855104 11.909494440453212 0.7183788216687692 0.6426780884013448 -2.102855139104088
Ni 3.322491361661985 0.48697792885620256 2.206764875313415 -0.05035479830346811 -0.5786121111593712 0.8209820357539925
Ni 0.780679661165729 4.21143630911328 2.7871420683926904 0.5341348546826028 0.05167865932121423 0.7971579367512013
Ni 6.823684166644456 5.711291718723064 5.0189881126262 0.3793277049003144 -1.003636289655536 -1.2877280194689757
Ni 7.103651018003339 0.5193907774162732 5.7550961008970605 -0.5529728133247122 -0.21775778247289596 0.31963645968726884
Ni 8.036880139983573 2.81770078814692 1.898586422007391 -0.3359087144847312 -0.27509775384494556 0.5611072695063885
Ni 3.0765247268901352 2.6590865257377105 2.9292699490966823 -4.41955252767675 0.7033874904662596 2.1564364147646535
Ni 4.641119112801485 8.534723621836692 6.57669950487194 -0.7105300150483117 3.2207214284504984 -3.12082687154569
Ni 2.6627061772956315 2.362736980608861 12.239540679304081 -0.44745885335059715 1.8800819056944718 -0.52240059696481
Ni 4.763527433455553 4.337596247788318 7.151985620330297 0.7909006429875798 0.37356483427460824 0.22700064122740263
Ni 6.238846507114117 3.2250906857557413 4.5920388999582995 -0.6206033679894924 -0.5224075389433455 -1.142420838757323
Ni 4.411346648280959 6.93400812975359 7.867260817173655 0.6647173275895714 -1.8098008007807218 0.3486462166560576
Ni 8.371688482915335 6.702095923296479 2.1943760522858744 0.03418770162530241 0.05798120450047434 0.20505421886329844
Ni 8.116116574868688 9.552769474853836 12.471177641423974 -0.08051820926072585 0.6702953358979811 1.6153518682370955
Ni 2.3997818520219587 5.577242070792869 13.492908186612972 1.4716973926375172 0.11347306692019166 1.3834607316866108
Ni 2.890150376360933 8.703471023372893 8.989234030312419 0.1302880815950014 0.11517539432327907 -0.2521905102294689
Ni 6.056987294856383 8.664691735588294 8.35902535816817 0.41563656663367776 0.9086803077029253 1.951041524732485
Ni 6.6838279943400964 5.078833018383826 1.4664490421064709 0.9963428413179163 -2.424492688381785 0.4034276832723117
Ni 4.216026856792206 4.641288783968263 12.289634206059967 -0.892471816263863 -0.021349155099737425 -0.4696636715824105
Ni 0.177219648463961 1.3237461646706223 -0.09795682028623691 0.6037685558203408 0.03628880712870525 0.007802012542922047
P 9.240056088306885 7.12425663859088 4.78292179043582 -0.5516731206766822 -1.7280340638248755 0.7155796616570773
P 8.16899742184769 8.350328768253227 8.678806491428999 0.7360582412264032 1.1622815822369916 -1.132548059728301
P 2.4729384034308777 6.429000754192086 8.495055445661695 0.29554239485254263 -0.15467345241790134 -0.46012487885403985
P 1.1527364809107195 1.2430203939882383 1.8648548514344214 2.095003247159837 0.8422584286342655 0.5220038757470236
P 7.0168076591410316 3.1883191734446745 10.020248416176926 0.2000498236701716 -2.5063944082535996 0.6645651182824233
P 4.604206207851437 5.680345583138026 5.2974496036887295 -0.3812665737942401 0.21408084784194098 -0.042187432001327345
P 6.16357849229641 4.598361978773544 12.954098544159008 0.6920640950336404 -0.05149662521739518 1.0517133476684208
P 2.531474955969131 8.609312951987288 4.857490382999365 0.9127591057579892 -0.25696813412377034 0.6267282499403077
Ni 0.6155132638661261 4.417718743211049 12.849993029312271 0.5192265701122026 -0.5757049648149053 -0.3616043194786224
Ni 1.227853676913512 0.6056110660494698 7.724001795357812 -0.4998718197346746 -0.2199455341528341 0.1264584234362661
Ni 4.189888070932532 5.384335380342732 9.491317406099787 -2.0813306347687512 -2.7870999952036257 0.8888463036961338
Ni 6.041867708661317 7.628509920077815 2.7540034042858497 0.9066090269961934 -0.28644763164012604 -1.5026182505860897
Ni 4.489489646757951 0.29269124624960674 10.324343450069168 0.5756270603891184 -1.1308282488237171 -0.3717630051791791
Ni 1.5971241190529781 0.9628461667588486 4.170620967327348 -0.18844617799297222 1.0720687713963215 -0.11854173969235067
Ni 8.740563025665653 1.182523196856111 9.63921222123903 1.993769916838947 -0.38580662775643876 0.4721748680400385
Ni 7.871403621495806 8.276870579214481 10.756177307105077 0.5033762333435073 -3.421237650234127 -1.1016863371524381
Ni 0.7598157633576499 7.3026187395778095 9.211089449667586 -0.26232091379525146 0.8217078581764236 -1.6847940221893178
Ni 8.460398224612195 3.6691955386200377 5.004226721116553 0.3660880662815889 -0.13736555726707309 -1.054154867230378
Ni 1.0808618894285644 8.291820494242769 11.063251955209452 -0.4931360436727378 0.7874625638403083 1.573568356542406
Ni 8.885490480621474 4.77765727117775 0.9775378045665977 1.083256669692341 0.3656671766940864 -0.14340199326914013
Ni 6.4143996076732845 0.9970631853923204 3.152450688787901 -0.6493413593541334 0.0348980974287657 1.9874457743931317
Ni 6.7835757880534295 0.7513114674317221 10.642151684707413 -2.262202342848575 1.8083247304558276 0.339343451197893
Ni 1.2701772068485782 7.680165364185647 3.2967720406312893 0.8599393908537964 -0.6866994882876174 -0.290088570826823
Ni 2.2563814375671356 2.0230364523683484 9.716443708503391 0.28472576385301285 -0.6904036766120819 -0.05794366639431956
Ni 1.976687945310282 7.8193051471191675 6.798872586356019 -0.0855953666733171 0.7406911120127243 0.08608027672953562
Ni 6.6741284593059795 0.9524302423538937 1.0034937226131895 0.4272165581617932 -1.036753641034795 -1.9786400031760438
Ni 8.046004678285835 8.46154821807591 3.666536414389596 -0.30794076851689545 0.3690607757566676 0.674258177200471
Ni 3.901399956531042 3.616720017206115 5.037268295611294 1.1277308408453157 -1.6669356538516582 0.8667934376611522
Ni 2.3979720262429978 2.6575500590607803 7.055149572362385 -0.7814500390976413 3.0218139459148863 -0.7889905704490605
Ni 8.328535449498244 6.265032423853451 8.696479628684067 -1.0154044859350577 -1.6447781439180125 -0.12836078266530151
Ni 5.245205023585144 1.9829186476013907 6.306336041552665 -0.6035852361649411 -0.4175492102753583 1.1904266772126402
Ni 1.8561554336666994 7.790300803776139 -0.04760972939777958 1.4179973320108998 1.232958894147896 0.7977084099380325
P 4.961241473631055 2.5619120780538367 2.663500803926706 3.963759700539161 -1.1497623667240584 -0.12974866415176364
P 7.4573305651511355 4.489583908517272 3.219513217456726 1.417455857685133 0.23716806867870768 1.2230169524438357
P 3.4849797823792827 1.0928991160938382 7.524164037744812 2.557447003955041 -3.189999059665977 1.231413404037647
P 5.258580767232773 0.5212939223369614 12.596764468602343 -0.30019480602288945 -0.21229701646864083 -0.6970453502983156
P 0.6379833820530325 2.654722206281155 8.362901401711444 -1.8416814515394022 0.48035586118893403 -0.21055792229034703
P 2.80012097003358 3.8982516137697254 10.657203402435767 0.5936024139206164 0.5805211552566261 0.41334905615108164
P 2.2850275862247447 6.048428327110049 2.0435836306651094 -0.7243836331019525 0.21715023079588408 -2.0001593653050587
P 6.030386626376036 8.454949894923448 4.722922295392906 -1.0304467249801608 -0.39138592161642916 0.09558333112396442
