# total energy = -340894.2851373135 ev
CRYSTAL
PRIMVEC
9.04626868636495 0.00000000000000 0.00000000000000
0.00000000000000 9.04626868636495 0.00000000000000
0.00000000000000 0.00000000000000 13.24012863335373
PRIMCOORD
 96 1
Ni 6.291317892044524 1.8694204321009014 11.494920601111836 -0.4693674804982303 0.23360683369001056 -0.2079852764671644
Ni 4.580578055728215 0.32683987170504447 6.1246322532629645 -0.7063959382752802 0.3532250942759917 -1.418761463870434
Ni 2.7053408729808575 1.7858600499526611 4.6100670817893645 0.5562946786090937 -0.6151356600067018 1.1797440006878133
Ni 3.70799308861173 4.540729242979163 5.1832585558343185 -0.14468034576093147 0.18021427700148318 -0.5671660741059588
Ni 5.414987769768423 4.406545942296598 2.9337075889129594 -0.9814492120355356 -0.14180585242661384 -0.45466257018788797
Ni 7.228447984919122 6.122740678519303 2.5214365667335668 0.35032926078543536 -0.44607997072519956 0.4072118329050923
Ni 5.027798431636255 4.48354777978126 11.596671219962868 0.4438048015377776 0.4821903432945115 -0.9342208751761911
Ni 5.593009287609196 7.71877383023675 12.319171355624874 -0.5022691163222575 0.5304298950271896 0.42721218728641913
Ni 2.030787769630436 6.495238876605057 0.6779201244866749 -0.015078234489361129 0.6918532645744149 -1.2775047990790707
Ni 2.7122974534585014 1.5766108132447527 0.282363892617481 -0.3285365903903761 -0.30262912649599494 0.20952665281235527
Ni 0.6815522012900223 9.219685468661055 4.777144423997038 -0.49894365149345044 -0.32684351895866937 -0.8097463149391732
Ni 8.559678765061026 2.2846260637821767 1.251009375697562 0.578199706212301 0.7019188763405331 0.5359192002765351
Ni 6.977956810112933 0.5830718085022784 4.597832908267953 -1.6961585552725178 0.14634616349912863 1.790148316657117
Ni 0.6876792389460797 7.702951906627648 2.774191117918829 0.31943514230974024 -0.608413767901836 -0.9527456734532559
Ni 7.698419726108403 3.8103063853635546 3.8133287436699015 0.08973921363836157 0.4173913445412553 -1.1426437534014062
Ni 7.755944947509363 3.6539868656578496 12.401750217640704 -0.23558581179325233 0.238322493998125 1.1751455826838535
Ni 7.733048841932097 8.962852859635323 7.127279945759586 -0.45462374653015253 0.10857562961857428 -0.2493880077836673
Ni 6.824613512744217 0.8011293968500851 0.30979760647509214 -0.3761634482397199 -1.2822554263901789 0.34834462625523877
Ni 1.8407889922936933 6.401908524475209 9.278006761690145 0.07152551884381231 0.3255263428091426 -0.33998185611284026
Ni 9.423769286054615 5.132300925365439 1.5199802677985907 -0.8137472085684502 -1.7047480967137416 1.0576795925541849
Ni 6.176565976103155 1.942984687554998 7.058921817828096 0.8364575056817725 0.3712107322201349 -0.15308065400948476
Ni 3.3281402742342685 4.24503386447104 0.3086007851523453 -0.1393663897471858 -0.6267390485735851 -0.11356125575862377
Ni 6.212506800859565 5.794831537877383 4.883542110977284 -0.33249994591349835 -0.5200030432669108 0.1995805973432369
Ni 5.466913350966961 2.8541700823673306 9.346723121854295 -0.26482953914971813 0.9759902458034933 -0.07403697241175637
P 0.2539938899699659 5.648046785172246 12.61677006902571 0.4476318885933517 -0.9051157302801187 -0.672356589302384
P 3.946362263625927 6.117421472640428 12.626951644224135 -0.07046596723104638 0.3038835677283863 -0.04293588013157767
P 2.38553718891627 8.535543320699057 1.3647001643437067 0.3822595338351288 -0.26751531351199737 0.14765254101537797
P 6.356532441671748 7.821376607580621 5.849872653947835 -1.1911630411580325 0.15231909325311185 -0.07856082842403889
P 4.6233669057402516 0.9663404938659019 12.692344405340839 0.9924159954596844 -0.024833256993595943 -1.3822718535848324
P 4.154462624234146 6.172612756768005 8.250440217979325 -0.6183202283822706 0.07299978939649363 -0.3673273380053287
P 4.564367142573549 0.9898155606272621 3.8386175872658095 0.7510997089405581 -0.7991888511383011 -0.7802153953595917
P 0.1564181240323709 5.835385959569551 3.76150719455913 -1.413706932165662 -1.906609005450723 -1.1097739992565792
Ni 1.4917477684322982 1.0569750579823056 2.6201684457856516 -0.5256319594179141 1.151061030930824 -0.39333121826825806
Ni 1.8233387403543238 6.41802897494486 4.801863352677353 1.218932755072133 -0.07730150209564106 0.4013533172417862
Ni 6.206653865139102 5.859050997969444 9.149365205091593 -0.7686701137241536 -0.8614298593563938 0.6393945325540665
Ni 8.330030192882264 2.5069200196692294 10.126606452501786 1.0276840746333593 -0.3698249076162018 -0.21290379681470434
Ni 2.2755797952806893 5.425879477044214 6.968133467147168 -0.34484484063209647 -0.16954034222740477 0.7919951616033393
Ni 0.25559327024102896 9.147677171389214 9.177500909384918 0.18483454938231392 0.855465671353159 -0.06225412084421537
Ni 1.5197188306388976 0.970664610209613 11.27862974900237 -0.8995150962638896 0.9978973302892298 0.5353376167414522
Ni 4.2635425298250835 6.790282923781072 1.498107295188844 0.5266272334516479 0.5262238273656421 0.3808991631524924
Ni 5.3786308166609444 8.090548326842384 7.923501741947614 1.2668792010444248 -0.35949575777605186 1.549562737656428
Ni 5.189446203489336 2.799394926590823 4.782718734647655 0.3641101166196116 -0.3184339547387354 0.4226662197869495
Ni 0.5072939311458677 7.586354551911975 7.068176150505118 1.6197595103864881 -0.8241462924145871 -0.3526874766049668
Ni 5.47231397326235 4.6252937609310685 7.238986887723355 -0.9422470879147773 -0.4008424390436387 -0.8680972440742405
Ni 8.312815143923933 7.061336266891144 9.329391376032294 0.32437294593098975 0.4690982859972438 0.32602230860895465
Ni 4.316888375178355 0.3994162746387787 10.395830640120856 0.49917710766049517 -0.5166523816271231 -0.13145459109927685
Ni 8.111798011552377 7.454487095965791 4.665066585024708 0.2694410697798005 -0.26684528402816626 0.08147440252640807
Ni 7.41519010559533 6.35362858948277 7.0738961060786085 -0.15357199182360648 -0.48536205615427386 -0.4092831136118242
Ni 2.818735848647004 4.994770505337324 2.5400791168614325 -0.49343711985292443 -0.14291502633039257 0.8334488007624355
Ni 2.3160528005563443 5.2159246313931895 11.373905953486888 -0.3828166918901794 -0.6875752060243513 0.7067741475503053
Ni 1.1432312281439891 3.4040113281562445 3.8516324537588997 -0.5160306888827241 0.7360649260946226 -0.9681969750113197
Ni 3.749235026710012 2.5236465701284803 2.369797586350532 -0.1750684711344856 0.5132338428638774 0.5235298254732467
Ni 1.3405122516244297 3.523403979838877 8.284560028886386 -1.1273914552280262 -0.18109590827548813 -0.44168287009876833
Ni 3.6619385356706573 2.875899219307904 7.184292243736512 -0.01599688964888858 -0.21538414003439682 -0.15353908170314204
Ni 4.135130748446468 6.82670320076806 6.10708882475803 0.33230299941134384 0.34199760099128845 -0.8769562371267671
Ni 1.061416775816536 7.34452065606171 11.46604400742824 -1.4342119940975495 -0.014282992281575401 -0.04672491486036469
P 0.18708135574501306 5.5428477287684474 8.03281232738534 0.8985815287060267 0.19803922099804605 -0.6965007906487554
P 8.39629410965566 1.802505183995398 7.87129572642553 0.3875112691523713 -0.15887720608660383 1.5001037116943519
P 1.9354581921617604 3.208268170321057 10.436279220471558 -0.718672441649788 -0.2545145303769552 -0.4011378587968705
P 4.241162061552403 6.150295612374834 3.7325247595340643 -0.3759040239307462 -0.016551219490461816 0.35791298666996424
P 6.904437786001344 4.1560819062959125 10.488618216140614 -0.17180162745775573 -0.18971424607211845 -1.0399204687985508
P 6.442815750638936 7.685329775586751 10.173900344227564 -1.148463445406977 1.2396404199331295 0.6253455106601682
P 2.4093741064176895 8.325018560132438 5.78392354731829 -0.38101589123601476 0.5677692549075963 0.43363428876267895
P 6.989590311405846 3.8616620516464994 1.5159420135395265 0.9037031662033082 0.5087655226798786 0.291376179289995
Ni 5.394796498473103 2.908547202329772 0.48115926144507026 -0.8968799726338875 -0.2737011306077351 -0.8113131452056609
Ni 1.2521302083648964 0.9584159626585987 6.839691833082497 0.5419990879220279 0.9344376191726875 1.1147971635027834
Ni 6.714131435535551 0.7936110430984988 9.411441031340786 0.17007513168495228 -1.4755247368034072 -0.7112956895697427
Ni 2.396076091720503 1.424090726309673 8.940144916442888 0.7971877615478722 0.20748288290944913 0.5324268708525604
Ni 6.2629397477553574 1.901923674826746 2.5570661998535256 0.3146130383307485 0.22898039066159273 0.40752859281456266
Ni 4.073019068915254 6.812699577127757 10.508584235350249 0.4670108073405957 0.16347768097309265 -1.1378129076716663
Ni 8.343454855338472 7.2469476040046645 0.5586459789214119 -0.482041476421473 -0.7351550126858436 -0.21709469496760034
Ni 7.691752626222807 3.937732123475508 7.966068958381364 0.47666272860806297 -0.4991745365573338 0.5851483696159923
Ni 3.0439607955285393 8.290172333864708 12.218811148242521 0.9406185511724188 0.2813123672960897 1.5735138491553868
Ni 0.045689083693612964 4.943062034582821 10.169888324147152 0.19310655958311904 -1.0856925328273432 0.8288940915122176
Ni 8.49773896463134 2.2405888287169353 5.66661606052525 0.6530427194651205 -0.17363970910775903 0.19643768083888102
Ni 3.813454486802072 2.584817437735539 11.354389533821779 -0.9114277885410754 -0.27913695691132573 0.10091734174236815
Ni 1.0270047704368774 3.0997219945717083 12.531172467210935 0.5006567775298152 0.7940332750792906 0.10248648600170092
Ni 2.9388160167357493 8.127846091874018 7.919503291269957 0.08236657532337427 0.24166929898317088 -0.026950817557231006
Ni 5.556498547937192 7.925209677440696 3.5364251787199183 -0.16955062664004994 0.38449356537197005 -0.09767698042819951
Ni 2.993120766550179 8.197909441418037 3.5841424358115646 1.0166370727905782 0.39386240818137974 -0.06823733501084378
Ni 3.4836094447008334 4.4045919483002764 9.2442840819703 0.48364635901474773 -0.3493980072204176 0.23817054180129302
Ni 7.292151807706598 5.960170187279071 11.727284863094747 0.4882136666704559 0.7931267041046212 -1.1675677703365956
Ni 0.5378042809208348 9.162060738306579 0.42130100739757737 0.21992059445216963 0.5223913409934293 -0.6475590706427299
Ni 4.514666943426377 0.307607504870882 1.5056808311782894 0.1776673422099134 -0.7409397376884207 0.6017201579317444
Ni 6.027203036875093 5.358810442374185 0.32522239889697846 -0.39444964814341743 0.9383762921054614 1.125787858186332
Ni 7.88315357517728 8.462747998067586 11.607792702458598 0.49321677631200217 0.8041852759116279 -0.30796159445250193
Ni 0.021578064256598226 4.646362520271033 5.7987259564672735 0.04903839348488974 1.0052792245755977 0.30875246578491344
Ni 7.731592392703358 8.975155784797346 2.4357331235773243 0.1752078249258273 -1.115348665130879 -0.8862361197667963
P 8.406100264711272 1.6667659251305775 3.4810412090732608 1.301410916272707 0.4901911021118009 -0.1825159285514663
P 1.7189809869211636 3.1748874395505684 1.5974877916924857 0.25070415549192954 0.08623917090490309 -0.21413535522896027
P 4.529882767045879 1.1414762520547006 8.317832204434858 -0.03052619361331517 -0.20709464633209493 -0.5384231976453114
P 8.453421295242553 1.4790468074562098 12.189577226953116 0.41602428899039967 0.11581714167233602 0.04991822498668177
P 6.312241911088464 7.65078207617957 1.1920602716344684 0.11773467041002304 0.5124278020228142 0.6511727561359172
P 1.9168319253171975 3.4008994117917326 5.933377853858215 -0.030080107214832064 -0.20962229784995512 0.45224856142975667
P 6.912941278392742 3.691881684410581 5.826080063162071 -1.0175089338725702 1.4465108660695605 0.5696790703357996
P 2.3093947469392493 8.487417172271144 10.020301037460255 -0.20876560627661467 -0.6024277255217303 -0.12021758473287684
