# total energy = -340872.1512307354 ev
CRYSTAL
PRIMVEC
9.23512811607898 0.00000000000000 0.00000000000000
0.00000000000000 9.23512811607898 0.00000000000000
0.00000000000000 0.00000000000000 13.51654349893636
PRIMCOORD
 96 1
Ni 2.088671991569034 8.12522273730929 10.65223916266866 0.2924578423899479 0.5036261445707843 0.5254720368012821
Ni 7.948074509272021 6.006120998509373 2.662785738239524 -0.08699250413115986 0.16485990603259995 0.07739740424355702
Ni 7.6089883092488515 2.075788987809677 1.041852669826889 1.5588457056202507 -0.050701383009609455 -0.7429436554923269
Ni 0.985037237978902 7.15473082615547 1.3669818206876814 -0.1371848087148347 -0.4483445983896602 -1.3880290677835838
Ni 7.74653630780933 6.938998232737128 5.666864872128373 0.1487840835166599 1.5535032103614148 -0.2278398492992463
Ni 2.4964583098473003 9.246856755649953 8.23299391219859 -0.801210252443704 -0.3096778058126602 2.672709558675487
Ni 2.3995079346030472 3.0016475246488215 7.006097903285058 -0.7239552873152821 0.9708436686055473 -0.5646335374920921
Ni 5.716636671741764 2.0083356118538735 8.912011326470004 -0.35177190676923287 -1.5973194362154168 -0.8754518846670988
Ni 7.703999307583093 0.15792715583343467 9.076020737698359 -0.9996829614347428 1.1085038742949038 -1.5467851749112909
Ni 5.189043036065547 0.939637348028364 5.358836408049805 -2.4176787507837463 1.0997209858959511 -0.283930264534911
Ni 5.614135984483624 6.93084361458694 2.356852724736582 0.44946842758145816 0.2242775858692847 -0.17857211341236987
Ni 3.8720675872460864 4.422314992256858 8.622946274520086 0.0707719285072394 -1.4868003097172264 -1.6972381614899414
Ni 2.1306179435941246 9.119818332916102 2.4428724023108885 -1.2357153738471107 -1.7261712995845238 -0.3728963474526739
Ni 5.747971461530653 7.166995076329252 13.487645145616986 1.3359691138635508 0.0772020004032993 -0.05721501575841114
Ni 7.730162425611953 2.366483116364006 4.585960539436382 -1.2260480259606756 -0.8604358708742408 0.0020075173483320263
Ni 7.790486282641431 0.3093573990183332 12.504925001289141 -1.0270922066856312 0.31231370077361054 -0.019500274816456737
Ni 0.6692641954396902 0.8708023969023815 11.686079435318762 0.8480673220065588 0.5961177241433024 -0.5036659966697842
Ni 4.140431175950863 8.447685706675227 1.209840574259208 -0.0064231299175244215 0.4241584880617598 0.3089506978386486
Ni 2.58660239565023 5.014545289805292 10.451491488175003 -0.17148898131334336 1.2360434466104906 1.8548578410203604
Ni 4.811824991940308 8.46221256324402 9.383454459524524 -0.08266790861387699 0.9792164660502749 1.145608749567001
Ni 8.962996621921373 4.371475611830148 4.26933509456958 0.9367071319331545 -0.5758867418084082 -1.5933601944573528
Ni 1.0128903844579138 2.219145881972045 1.051701933991301 0.4390464609171858 0.5564445739233965 -1.627049616289998
Ni 4.7711165470863675 8.738730770098986 12.170498846926883 -1.0150309046457229 0.6657617096936855 -0.3959892247163954
Ni 3.214821987571577 2.7359436528492025 4.818526000920803 -1.109561883245773 -1.2170494220064911 -1.0119057287531799
P 3.296478990611174 3.332911571134948 0.7613328819476018 -1.7100980481717452 -0.5124668827908658 0.3007473360922498
P 0.8441978397482908 6.337024874997926 10.020908256075966 0.31756055099484665 0.7019312176357072 -0.6180402352480067
P 5.172465981049027 2.5070048261865017 3.787673292224932 0.36741861216755434 1.3181490549629944 0.18592006913700881
P 8.937886308500806 2.7804846758824495 2.619722335709142 -0.11372760613315896 1.3987505679661458 1.4885787417738878
P 0.9760606934239949 5.7044370674649825 2.9589470626544556 -0.655497094542884 -0.39719147255461273 -0.14143407090949192
P 8.883417522713932 2.73244353928304 12.60067573338763 0.053646067460230186 -0.0019494104168869654 0.3630737049352973
P 6.386358929537343 5.374151944562005 0.7999643464822022 0.605848321167505 -1.1536920407957678 1.520346263993472
P 4.188850952804132 8.50526673064626 3.4884985454969692 -2.53968170955182 -0.3194225439042499 -0.5979401220640218
Ni 5.4182219760599635 6.017960432788582 9.019534999925074 1.5607946018165055 1.6542557443911445 -0.6514758891986329
Ni 3.0085831058841457 6.769311988239328 8.874935057514671 0.6386322004667453 -0.465355788235676 -0.4588876640128291
Ni 0.8125287383206291 1.874001437887127 4.863684854026811 1.1668082664627517 0.8022255810820959 0.3632760507540905
Ni 0.6885517605661545 6.60560087164999 12.14191150776051 2.046407854749637 0.27332317844302606 0.7580907955464106
Ni 5.6596097554593054 5.847618494192635 6.531044758639475 -0.7218194719192021 1.4628787659046225 0.3372372034881676
Ni 3.141144135247454 1.0960619485129475 11.14721524925694 0.0031241474512784906 -0.5449759111621647 -0.11774444060203593
Ni 0.37902074113873463 7.8076266804746695 3.593143629509894 -0.3437464653615951 -0.9967634737951028 1.7732420278200816
Ni 3.5483486404527165 1.1899000855730402 13.634542787909346 -1.021869267723795 0.642826441053751 -0.2570190419663638
Ni 5.248581907202879 2.471782047449449 1.1148351170018518 0.5732559890537805 0.3671568738657354 0.7251459651892737
Ni -0.07353193729946572 0.7355733390185872 3.0109315989708874 -0.9881621052793368 0.028484994813570298 -0.34137025181993463
Ni 7.140693431378248 0.22027535295183823 5.909608368339094 2.303551080998691 -1.0305241151853155 1.408086243544775
Ni 6.752975046554522 3.7788482037715685 2.7258404226608604 -0.21388955776674132 0.5693666813017032 0.3241567161551256
Ni 7.929354904526345 5.609121309902024 11.674928018086199 -1.0756189506414249 -0.4866591776991425 -1.3348761379096883
Ni 2.1355679722787233 2.8620862681531887 9.466095003711342 -1.435536626446244 -2.2309919786840418 -0.9345430344023002
Ni 3.349645623329898 6.602193109365256 13.32179702037538 -0.8467717431235868 1.8025330634747148 -0.2425203341295565
Ni 0.6488693384488912 6.001161734696631 5.844404669598903 1.0926990460521633 0.4635794130615436 0.40173461184060494
Ni 8.169809935983253 6.8898027051198545 8.981107631722432 -1.5146134752747527 -1.5730055420604006 -1.1730879288238762
Ni 6.498196331347964 7.431544557111008 10.978515316444803 -0.2261920292831782 0.24143687125739063 0.2633182447115142
Ni 2.061880884826457 3.233162952063394 2.7642548616841025 -0.4780794064499314 1.732413938060126 0.38407293289478367
Ni 5.887819006998715 3.9095067967374373 10.13393421887858 -1.3184732710716325 1.1213264799808687 2.1450448850982604
Ni 3.5066889774000565 1.4480680928080463 2.807075380344326 1.4832532157959164 1.0653787609706555 -0.2143173893327793
Ni 0.3097074103749494 4.0283074851678125 10.731459938904159 0.4019554696021594 -0.1891051517332098 0.6950303767508159
Ni 2.7813343076715977 7.387049709718474 4.985685514358703 0.5332038582279011 0.10332749384575754 0.5624671259683925
Ni 2.4045226091846468 4.965996221158022 4.44736158329324 -0.1792313442629236 -0.634202703940482 1.0201124329336884
P 0.487003400462506 3.680955845456739 6.378484135769885 0.053841214190171786 -0.4150740092619884 -0.4490719634739879
P 3.7038774335074374 1.6442314496915649 7.744587695771176 2.5901195544873974 -0.3482860051031615 0.7623673114345774
P 6.374528730386277 7.847753312255606 7.795396600275015 0.7226977607590973 -0.2330836141966889 -0.2851047444589864
P 6.877612335971215 2.2900162553407246 6.603169262409962 -0.44234364361121886 0.7780407563057762 1.3472577994034927
P 6.5795208697744165 5.4355932520967745 4.556967778144535 1.4462915509699028 -0.49347568640034367 -0.785500555017931
P 6.201951890779746 0.46619296270527616 10.796609150388306 0.10118705046398704 0.8166044755115872 -0.8576122853825165
P 4.495521853045694 6.436394853815621 10.8703691953529 -1.1103602107773523 0.42437086118288203 1.1796023329036265
P 7.369225912402661 8.693026120919733 3.875287876429519 1.1992990400016055 -0.3761621626881393 0.9695871704906268
Ni 6.964016194876268 3.8975103652797993 12.874899934411896 -0.13681174164613213 -0.7721130779674316 0.15147474297494556
Ni 5.741312934139615 0.5995399014735456 2.8536259672614706 1.5406299539431725 -0.2786864996374684 -1.070154585092744
Ni 0.9781385972561493 7.366686252163362 7.919761453411493 -0.5606660682039118 0.3985726691728555 -0.9218029611278125
Ni 5.48974804352679 7.582418845581703 4.839936722007321 0.9830322402519392 1.4675481463558337 0.602055429783976
Ni 8.834194289712231 5.24607918747615 0.3319215876099015 -1.054488339310397 -0.11458995413345427 0.9970478378047408
Ni 0.3019175797864062 0.152000050591316 0.6609239512138295 0.45624842661776904 -1.4690386148584313 -0.9469653193260529
Ni 4.491495337175385 4.775669465260822 1.8190838248725076 -0.09134101090784269 0.18433626958965674 -0.6430822658182989
Ni 7.654092675098816 8.333576463341448 1.8072296143882705 -0.2898923956556169 0.10253945072682341 -1.2767725488987365
Ni 8.701448557786064 2.8539593553874294 8.554620178954776 -0.349934596450178 -0.7199122275941602 -0.6683518390183651
Ni 1.8829225716731768 2.9270646297666927 12.31535552589966 0.6064615292714717 -0.22872045213198675 -0.17440615496013834
Ni 8.735757058836969 8.263731189196632 10.68524643416423 1.5164333020923109 -0.3278688748993902 1.497141029521602
Ni 6.464996045674209 4.177390158778783 7.892890924566885 -0.572079452247176 -1.810428921283024 1.013575660256435
Ni 2.958436360068153 6.555842001215999 2.7092153449779968 -0.03526370829830056 0.9716885331043458 -1.8142722062885142
Ni 4.580032510681449 5.659766752637734 4.003208253901015 -0.04790710809392395 -1.7129815403671271 1.6582936619059443
Ni 4.32382235061274 8.108608741780198 7.122190852143932 -0.0587021418268989 -0.7022690605911002 -1.4109491669148668
Ni 7.547907171711655 2.4141917883502715 10.717375444973408 0.7199101707116311 -1.2681094739071 0.6559940887839606
Ni 4.823313491350087 3.730760891531444 5.867531277494374 1.3590635337891692 -0.03103115827419172 0.8786349103807707
Ni 1.8013763901712951 4.856042785488555 0.013063088758144013 0.5848429225604315 0.05065021805669987 0.860628189390705
Ni 5.463233990628499 2.215913587122027 12.152048907922982 -0.7725568503730695 -0.7987679615507985 -0.8361772554371921
Ni 7.875273994121473 4.653978181721717 6.282597647287695 -0.3731467729005832 -0.3196714266902624 -0.18182018803602237
Ni 0.9454462436302533 4.739209179352619 8.351047478762203 0.5418862164932474 1.1620545538278502 -0.3462923717119004
Ni 0.49104931010191427 0.9363496424094885 7.0939008841037605 -0.4292878388685252 -0.5148772920045713 0.17020085862953913
Ni 4.1704453424153165 4.598336534660694 12.58160427025971 0.9304146140562235 -0.6832840348481651 -0.6300166908835924
Ni 2.7389081289830757 0.4444331537749552 6.01918685780596 0.02567863571302674 1.0287413122532798 -1.3662425680361114
P 3.6124034892519292 3.138207364498009 10.878559830502846 2.4676594535772467 0.3348784734480039 0.7632507424807952
P 3.3401334413427026 5.76783622216605 6.727967243056341 0.22461954258973574 -0.0005764413287602975 0.08547503904536892
P 2.1915236136966056 8.886945341664523 12.993399557664812 -0.08361073214312051 -1.298253344480332 -0.49884029314636674
P 0.6483226188628309 0.9699008629526751 9.43119545445929 0.046014519056901404 -0.24475462277671398 -0.12276503374507891
P 7.8546242475939305 4.706101244960292 9.65521842241152 -1.0539874884145786 -0.08573060669960074 -1.1999546713077334
P 8.046170040405993 7.361468404762618 12.916354577619785 -0.12641600023410485 0.9000902520410692 0.7135760009634872
P 6.2528651522316006 0.5462051894226206 0.47757987570548227 -2.6270218268303855 -0.8716124563163505 0.48650336884756856
P 0.9307162142423143 8.329088191063995 5.812857471862728 -0.35327754478048196 0.08599774431805834 0.25706635026453145
