# total energy = -340885.3685251983 ev
CRYSTAL
PRIMVEC
9.12944743137507 0.00000000000000 0.00000000000000

0.00000000000000 9.12944743137507 0.00000000000000

0.00000000000000 0.00000000000000 13.36186913450821

PRIMCOORD
 96 1
Ni 6.551592597535398 2.4060475561955195 11.871806266849388 -1.4962149181629072 0.07047265209926573 -0.5247732109620447
Ni 4.685131889888834 0.7231754674393044 6.4092873389783325 0.32508179907255624 -1.5287252320857865 -0.8357900473011024
Ni 2.8942630052320055 1.9407835374725837 4.863011865431902 0.3639535364370893 -0.005759013970964275 0.021094358776453995
Ni 3.3800774096493726 4.597124018678562 5.08480539505262 0.5867208563094346 0.2917744431696781 -0.904290920385978
Ni 3.994096641390999 3.0430273476979166 2.665933704345787 -0.2616390572368784 -0.2374838001469136 1.2009712854977057
Ni 5.635571251723668 4.902166238673254 2.526996298868541 -0.10662981874611313 -0.12588609587256383 0.730487174896529
Ni 5.394636010114717 2.9834029278976795 0.7042692951893715 0.321846065744078 1.2900270999157977 0.6129749049099572
Ni 5.903894834995568 8.037044954861475 12.539084867788782 -1.4245425893285852 1.042803960993933 0.7816971221114408
Ni 2.2273203679503433 5.514122215342937 11.731079489716828 0.8982470281847433 -0.09007551393185777 -0.7403851507365313
Ni 0.6933979494386254 7.415420893584772 11.484499510891144 0.25276643733759696 2.3463568633103074 -0.43433542859476165
Ni 0.7052826638309007 0.2488669053545412 4.875785787983502 0.6056560026510408 1.5175589310563218 -0.2588314125847543
Ni 8.828832782890075 2.2298674837249974 1.4589285743149563 0.32105313752913744 2.21827144579358 2.570824710813527
Ni 1.5550917807277322 1.3976270750602247 2.7863100306780524 -0.8873157259842203 0.7551697652448737 1.9954645309325503
Ni 1.8195992550612607 6.653988477565939 0.548896145880191 1.1086612258083746 0.698693684535016 -0.06142468296438453
Ni 7.957399657305624 4.297157771338737 3.73380058106051 -1.3202031092785456 -0.5088439413262978 -0.10866767511174834
Ni 7.814752044477771 4.462090364833009 12.588043354400746 -0.4175792921823453 -0.536150856671367 -0.2792050911450998
Ni 8.085987921413164 0.1470315733833688 7.180895436869672 -1.0871336361492439 1.1840937930160769 0.7158665967698769
Ni 7.007928016876214 1.1261264441554235 0.5791986070960763 -1.1800106240856387 -1.8796913551242724 0.08169834561175607
Ni 1.779584887891694 6.912470516733619 9.24456955043918 -0.044413493118368674 -1.5071462203634303 -0.2139486931394509
Ni 0.05349764777023588 5.303323279010448 1.7454873154660464 -0.2076448624086101 -1.116399989213529 -0.5923376882755799
Ni 6.6011107192620075 2.3041994429982378 7.205093949673609 -0.2843727513889683 0.18856162052491396 -0.7975004076922846
Ni 3.8070160089386236 4.7232016848003315 0.8849556628081705 -0.489909309205324 -0.09063678575196649 -0.6739573581306006
Ni 6.585681953458548 5.989008671436788 4.641739627247504 -2.5692830773580204 0.08029349484442946 2.8804786053667875
Ni 5.575599912929034 2.97300448751298 9.19431559526656 -0.21596109558378937 0.6359898777478917 0.8208143998278766
P 0.28182877454589883 5.756152990618406 12.672195860049596 0.19392031373366603 0.5783280042600492 0.9396834409526592
P 3.8107773411936687 6.421488845189176 12.994457130447783 1.1195285075401817 1.1210768258639079 -0.5931388440206365
P 2.507439197031752 8.892309829417567 1.8783445090941175 0.8365598355875916 -0.880702848653393 -1.8080565643961053
P 6.218386032863976 8.00679909621836 6.080252018742177 1.1394373306489667 0.4933502165660729 0.18991299234648584
P 4.848886784691599 1.359173843365446 12.919256960743827 -0.9842496575988081 -1.3308557038963853 -0.9361929113008973
P 4.032613779216325 6.075857102849995 8.429521716780961 -0.04052984179324633 0.2931314714182048 1.3515399717186143
P 5.058982753588071 1.4677594886118128 4.199729223541133 -0.5703236458983338 -0.1573054907241097 -0.5651349026085428
P 0.23030947798844986 6.157291772061161 3.8134641375108034 -0.043347513747699545 -2.4868969616506202 1.0717900638136382
Ni 0.8365586372002977 7.684630033237106 2.6764362204288052 1.2168383344369493 1.7623253809075776 -0.5125735835720592
Ni 2.1270425196750704 6.703524858186991 5.016406663528296 -0.17262463757968335 0.8449511449750804 -0.6080124186983593
Ni 6.434580472504065 6.137060917019463 9.578829653319904 -1.780949166656352 -1.094019821746116 -1.2290117365746898
Ni 8.592024051425007 2.852039311834961 10.996216503945224 2.1231709678433046 -0.22386878046664027 -1.4665348745999711
Ni 2.3662340368648143 5.467817659038114 7.114887707572524 0.6143730708090646 0.024761780325712194 1.234150857573468
Ni 0.5728983755688762 0.27761827348758167 9.361379001742208 -0.35944279305092935 0.6142663700278712 -0.3804106535518481
Ni 1.6989170922470922 1.5834387143488833 11.51301351339644 -0.1858388222771122 -0.07528987098225098 1.148273697993674
Ni 4.313189080658782 7.24956622592118 1.769820031144131 -0.311246950071993 0.007712538152909299 0.1624104160508429
Ni 5.86283971084281 8.158941334156035 8.408089426484983 -1.1082426502137173 1.1589376054654232 -1.7141675902554285
Ni 7.110132178515113 0.8599975799954483 5.13257431469169 -0.9174567683439748 -0.04914303738355408 -0.8734536232901473
Ni 0.6465985770944245 7.876722732213801 7.043174986706983 1.0796591821490695 -1.7107387670795378 0.9352243767400409
Ni 5.206295513945846 4.923237002859281 6.985437623647322 0.16325193811553174 -0.05548723443402702 -0.040491789466459295
Ni 8.181965800047355 7.5431509896535385 9.129149601003185 1.58521288275987 0.4970106961367956 0.05330616762230819
Ni 4.843116974047938 0.830699357973871 10.642648533136843 -0.2084786711638151 -0.3803859709614997 0.11455678690267368
Ni 8.47478369021315 7.648459163347574 5.057080176787219 -1.864832692844885 -0.7468980121543847 0.24230538990527303
Ni 7.3016223339752235 6.386833463538326 7.147664248985295 0.4103159257517127 -0.13837754347135525 -0.7079576263354452
Ni 2.376084710416255 5.600988905650587 2.6089184805613064 0.6859497546057864 0.29176184476418787 1.6386792301091262
Ni 4.169929794867124 4.679051678039659 10.211620854437315 -0.5400597048074699 0.9364628771328324 -1.537487808769765
Ni 1.0540311994513238 3.9723320392161763 4.052975185353282 1.2882039306641297 -1.223019780657313 -1.0755880974034895
Ni 0.8697377872355146 9.194175001779357 0.18287287022822435 0.6294749594475095 0.5432895245986773 0.5348956441080271
Ni 1.1424681546809823 3.7333322404180733 8.51004070243586 -0.6060511812069305 -0.24378223156111564 -0.9665710093721226
Ni 5.437434858686684 3.5229806469994136 4.723607945201666 0.8964218020505466 -0.04372700857430534 0.2089720658604659
Ni 4.022397927776045 7.3095193058213725 6.641543215114296 0.757669648848592 -0.1484369845898863 -1.130354137400776
Ni 8.689407864931228 7.460721210695287 0.6927817117512092 -2.3822358365951035 -0.21909321345486782 -0.7882966297058295
P 0.21597076818317462 5.676398139695903 7.931953149066579 0.5340358672108931 2.2836574273985577 1.914593052097464
P 8.583844066715006 2.251495144191505 8.220568754676556 0.5360127884316059 -2.013792896928093 0.2152368158232551
P 1.909232167876868 3.7657326486053404 10.5059834470729 0.7110537487622658 -1.0284003839740934 1.0516434136624342
P 4.29011896753136 6.520278593567428 4.150383648367 -0.5844330887165226 -0.8656654947042963 -0.835305137244884
P 6.884196618690236 4.285006477087609 10.498714581195555 -0.27605137600746654 -1.0470097715451645 0.7086777923309214
P 6.5563216511958675 8.349883722782886 10.419518452442974 -0.12352608028081953 -0.056247252528503135 0.8345859996906723
P 2.356027314871756 8.688987910359064 6.0552784158691795 0.9168548730939178 0.9250422940007165 0.13398789904409183
P 7.283071297222187 4.128126056042245 1.2270287466206113 -0.8321041138090831 -0.7103505520476541 2.2655522331574143
Ni 2.70606858021867 1.7804978326137926 0.833811586531504 0.9874020871848608 0.4244821899497657 -1.8116743636543509
Ni 1.809693804826495 1.4442785503594457 7.262309108352228 -1.4582191556454243 0.4116976365905878 -1.702224044740307
Ni 7.293524514290211 1.1120944837767732 9.62240267901621 -0.1722914226099807 0.16456680027221335 -0.2797244539836795
Ni 2.542925358379711 1.947466292838343 9.376825113495387 1.0063968831198087 0.15290967564925922 0.5706892567678687
Ni 6.658872731829165 2.2622770213594854 2.760789573916518 -0.349432717113095 0.2530214907711965 0.2037748379302426
Ni 4.3245278541072425 7.401178955920038 10.246068084691526 -0.7355622754265912 -0.024500556244525545 0.562161936023148
Ni 7.542858847342466 6.670321058644277 11.516647946335112 1.7713707789392978 0.7844638862233005 1.038314814874328
Ni 7.717468654890981 4.260521299640934 8.390291569127678 -0.5264287442875967 -0.3512029216396403 -0.17337719947499172
Ni 3.052129406577236 8.756536690347113 12.733393283606008 1.2966291786133475 -0.4356667458116755 -0.5354409750885359
Ni 0.0020687327402746547 5.337723036139112 10.21828900268752 0.21636347322853058 -0.7240766433844948 0.1168638377692955
Ni 8.629053089353313 2.6104102322372147 5.828260103603893 0.7989800775616046 0.5967718127875336 0.24473353973079143
Ni 3.8705387027022207 3.2649185624038988 11.939177022616628 -0.5417522620185443 -1.0316443448326877 1.026069936068704
Ni 1.3390160239015163 3.7049761773497014 -0.09294872804626794 -0.344927887264206 0.02131547364832458 -0.0795761570624307
Ni 2.9586986437177005 8.760727106621545 8.377316798737217 0.9541291840643438 0.06447786796841154 -0.6133428297723372
Ni 5.548668043627135 8.395010580396203 3.978991058019161 1.820226881210052 -0.5534199281644597 -0.0038826228838578294
Ni 3.332439954050286 8.728682746875895 3.92479500753652 -1.7248086149090422 0.13478648368598722 0.5101883711693342
Ni 3.86393811236145 2.883572422536235 7.04254688073818 -0.4702298284985257 0.9325496581213554 0.15313387584492336
Ni 5.5837159915084875 5.6458783976361575 11.841635269673485 -1.6787187625295152 -1.0470740491241968 0.4954196975005919
Ni 8.092661547331701 0.029541065317655463 2.839730991091632 -0.5396249312628965 0.3685460409037782 -0.49220993231404264
Ni 4.624539748683173 0.7142979929616208 2.030269466187933 0.517269960606464 -0.5517502537715208 -0.49205592323468167
Ni 6.476813295348331 6.128616178340054 0.6407940745513238 -0.02862254883269909 0.3335936931983094 -0.030993620168036945
Ni 8.00112970949413 0.20084875180633907 11.956734775512022 0.5317496422798776 -0.5302098085965836 -1.0428571828293718
Ni 0.4135137471507959 5.15978098035494 5.906079511715548 -2.282369047604437 0.5111229671684617 -0.5725196251083883
Ni 7.3906070560381405 6.8413795112238285 2.8808189812543867 1.0490527701171222 0.029322146002884988 -2.016105347111354
P 8.617896904849273 1.9727092144043599 3.674981378505163 0.5550857459026569 -0.0800978338938556 1.391132646409572
P 1.9481783897215796 3.5428098063633877 2.10267693798699 0.2538180185305629 -0.3436299943883888 -1.3140473740897949
P 4.3960662025308626 1.306177402247642 8.459613287766041 0.8725339396893554 0.2856259070697791 0.1031914824885255
P 9.047820833379784 1.8779455522505606 12.914686759465003 0.03919081126684864 -0.13474817424888408 -3.457096311803949
P 6.375275583356562 8.20181321830577 1.5338886395570004 0.4179922113500479 0.9388447471014476 -0.2778136101142119
P 1.7870619051656789 3.466934970509801 6.064511025843759 0.7258381061602919 -1.1223374377438864 1.196574699091907
P 7.123826349346587 4.338952380716395 6.004810831631587 0.037746365510838216 -0.4398429886765522 0.20113405787328587
P 2.2841511769009597 8.65215972026962 10.420680631074205 0.6641596553138884 0.8222632164592613 1.913395432244937
