# total energy = -340868.08384641167 ev
CRYSTAL
PRIMVEC
9.29899268301251 0.00000000000000 0.00000000000000
0.00000000000000 9.29899268301251 0.00000000000000
0.00000000000000 0.00000000000000 13.61001574817437
PRIMCOORD
 96 1
Ni 3.0927146941541266 3.516813841611588 0.7299904331269407 -0.11903179195489179 -0.8760411815116654 -0.47350309993315876
Ni 1.2361243618450632 8.080247878470226 8.740501447816552 -1.3278259159311263 -2.0806351513636234 -0.04096641511003267
Ni 3.868334353203821 5.275681062542344 10.010098462789157 1.4743145185453899 -0.13656208752917126 0.6952113824133704
Ni 5.437009282097226 8.44643290111428 8.758847429968828 -0.4353422725927212 -0.34352689315162127 -1.3113873107591285
Ni 0.9285546080431466 4.120457934781521 5.2647761341273345 0.7338473496180137 0.5288689782979731 -0.30027759554468286
Ni 1.0277246426425468 9.022049831119856 12.983355510573588 0.9905627443010295 2.19223105586576 0.44341887895326865
Ni 4.415394077476903 3.8086441208375295 8.153147329574065 0.145311294476711 0.43487021805230913 -1.763729717454272
Ni 7.501841250737607 3.815404488329396 4.050082230221413 1.5769591273915098 -1.8701399639904113 0.7615833820807012
Ni 3.2656480562535064 7.215962326662689 5.2780457963156335 0.8174272285231987 0.2697213200243806 0.9576251130327441
Ni 8.257681952902567 7.852673636890502 6.194585176248408 0.15221804889887333 1.4744970668698412 -0.8822115719884355
Ni 1.4428037674492367 3.792064017346472 2.7572665610666296 -0.48088010912352014 -0.6881367349547762 -0.4989354239633343
Ni 2.238751023936649 2.713287906299043 6.942944839008682 2.959560596401619 2.008783873749276 1.8630977124316495
Ni 8.239260648911662 7.263945127567825 10.036692651221056 1.6201379767718291 -1.1581922426589666 0.13607974857611405
Ni 8.312118254549596 5.473665910230568 5.549606131856883 -1.5368175221756177 0.399747406207247 1.1603697099262598
Ni 6.990024707749497 8.36084497484861 3.870498228740763 -0.5128124390557427 1.236554067698322 0.7844795699525844
Ni 3.215665971977324 1.3358467565944179 2.9167758977034794 1.4183128063687895 0.998409751149274 -0.15339561414674227
Ni 1.5938473013837542 0.9675973576323522 8.608035440945654 -0.11275804313103806 0.29556759166352325 -0.5922775244616058
Ni 8.591562275867467 0.09771195258739913 9.368181576602684 0.7327168355579962 1.9514927533372906 -0.7487494635408266
Ni 6.405415652070421 6.1638464268933655 0.7501999333608805 -0.6657287995732212 -1.4197580234557485 -0.2760377491607117
Ni 5.581441232418652 4.8533115276756496 5.3823665428183975 -0.5015803177853491 0.7753824927473227 0.33277813927554944
Ni 2.1639499288822095 7.815682245029915 11.443777128973238 0.7146216686191822 -0.3008694634924109 0.05200904607743947
Ni 3.409689448893147 7.518012198562031 9.437211716959114 0.041894326240940756 -0.033106809856297825 0.19208763140030144
Ni 2.439692951215538 5.759433246396403 3.5752282522173786 -0.28116427175399966 0.5582145213396258 0.07427299968196242
Ni 8.600424215647038 7.817067794901014 -0.05660575657942432 -1.187081157779175 -1.6701999264252267 1.4855548673458996
P 7.502315499351203 1.4982908552401168 3.793506291071353 -0.0036638220048323994 0.5017019309648778 -0.2583534445070712
P 2.804464527011224 5.3491152057105325 6.376850077244745 -0.035461940352035703 -0.5736118297313024 -0.3738756806468077
P 0.9698942087609508 8.330688342419277 1.7068319191274701 -0.7561305864962461 1.8821328746862296 0.046560107147726265
P 1.5509882453039543 1.9616503487094932 3.995737058700136 -2.1583493155166504 1.7438635746579643 -0.9296723365735603
P 7.251112518023428 6.6289541309383555 7.493796692392058 -1.303445944424865 -0.9473232168861039 1.4875359023316703
P 4.5617137232602945 5.781267280606723 3.4526972888517227 0.12931337638655796 0.8821172125024164 1.372388018812217
P 8.581956416694016 2.3803002866067975 0.7713997762879208 1.465401018105844 0.40112808860485755 0.7404756535678086
P 8.490482228224286 3.5417537392913503 6.82120336009978 -0.5283807258076448 0.9567239413747138 0.2654900555518525
Ni 0.8825041377636097 6.536736023074746 6.6063287524727965 1.9767301877478407 0.26100270920446017 -0.22319309455585434
Ni 4.236490762241652 7.075594036030322 13.005158858108912 0.4752951588365749 -1.2846660927142004 -1.0937729958426325
Ni 6.920514739384017 6.00309474486874 3.4826670115333425 -0.7883506228722165 0.6756141770077332 -0.5192646224389896
Ni 0.9541789115652766 4.028751271501203 10.176494633214835 -0.4468937248757465 0.9212447746314973 1.9012611108752484
Ni 9.126570505959725 2.529651403920243 8.954001664363345 -0.5032903584979203 -0.31531700637630855 -1.2349394149130344
Ni 8.244598270562737 4.563127170108663 1.9499205996665208 0.10347738916006051 -0.4397144335184879 -1.0371264509931817
Ni 9.18226217158392 0.223120954108121 4.366977943524834 1.0177560168863697 2.005172245138618 -0.29318160792984993
Ni 6.613238833742681 8.974504082858624 10.593450294692582 -1.2162351536353118 -0.4897902671289565 1.7090346399042373
Ni 2.948292042825124 8.762449859633682 7.232620541690104 0.927548605362338 -1.133639750130583 1.1196907441496586
Ni 5.455095822360886 4.9474266299936485 12.36639990974945 -0.45468416745444273 -0.7988471515281661 -0.09526785676607463
Ni 4.215986483947887 0.08282333581817203 12.130470523477232 -0.05389829268035234 -0.0649650920174752 -1.5583811072790064
Ni 5.370995734882971 1.5809588978848168 4.052777078225736 -0.3026949467369239 -0.18308697056358791 1.0111356833563747
Ni 3.36924813084345 3.770304375075539 4.742791142924154 0.011459149679535104 -0.39651141576845256 0.42586004413389883
Ni 2.455231567555166 8.578050839876157 3.4879200123533645 -1.1410339857121252 -1.075202946149929 -0.5874109403979239
Ni 0.6193212644966704 5.901745026445277 12.109184199920655 -0.44450285604606676 0.3419729184009401 0.2274261588005954
Ni 7.917078458415496 4.929312192752717 13.11258267838339 0.13526085221924447 -0.318581021839561 -1.1171384100414503
Ni 7.035710657526034 1.965165367845567 10.378929978676934 -0.2598595967389525 0.8333724389985454 -0.10324830386838993
Ni 3.052738325725604 7.897550574326197 1.1409659125771505 -2.1259454452646485 0.4552536668046676 -0.42777011667241815
Ni 1.0551194743221066 1.3395477555789612 1.606131270375166 0.46097205734568353 -0.09277954312658215 0.13995234415764285
Ni 2.1255450901732544 4.948468117145078 8.503510116609574 0.3306616071531789 0.8661259792804825 -2.265944583499827
Ni 6.907440356036609 0.3462089271199433 13.14826849170772 0.2421218131395572 0.41704398850416563 -0.8961078703545534
Ni 6.213391458525645 6.125348598260176 9.39008070375997 -0.05744924325640429 -0.4906996663171033 0.0007299361874890654
Ni 7.001174199665246 3.6959682296422733 8.462558283875829 -0.5588056179564054 0.48757783285866996 0.4965851785636028
Ni 2.48815000073427 0.8810795321243333 5.465632510675927 0.9606618429765391 -1.0921033214496936 -0.7050389100267536
P 2.4478109716012324 1.5154939912235472 12.451980396821183 1.5773939009360833 0.27216643913076355 1.4421577313071872
P 7.114826485064967 7.6902109402599566 1.834943207846454 1.6709257488476577 0.7047113514840058 0.7903542835658065
P 4.515627916809549 8.90437108200077 4.1337833909243615 -0.025160815536343764 -0.2905354285562545 1.512350647382505
P 2.3791193145690164 5.89190669246124 13.437522020133118 -0.37640204661308724 -0.34749127711600797 -0.014687941029477932
P 5.071679766756132 7.162335037356505 11.046636690450676 -0.35112141766942756 0.14648114641509613 -1.3921569739090283
P 6.94294390910944 0.5497675908667982 8.029391688906237 0.24098641398353338 -0.08500735538033101 0.06454420242997272
P 3.6170011859821165 0.552581465974142 9.539749846614297 -1.5214407826092313 -1.754753996318223 0.4820329917810408
P 8.54657375052269 9.040220062315328 11.509037457801192 0.729651309258795 -0.32797557568058355 1.2507010486226653
Ni 4.520816754581848 6.082787109937927 7.558158738551904 -0.4006344367978906 0.7146692340276659 -0.2774271733090706
Ni 5.104681890867048 1.6204703166921657 8.566483823200594 0.988880214392284 0.10591248096411436 -1.0334076073806977
Ni 5.161145372862393 0.08580831238610775 6.4929024325889655 0.21366921422581914 0.6640910068594821 -1.2176186642463998
Ni 8.823990591492244 2.5177021986560764 11.993853446388496 -1.9885204955145497 1.2268484103747836 2.6488864881139604
Ni 7.63665804289316 0.8859475546580228 6.022050740923995 -0.015767033026269618 -1.1251628230078234 -0.06124007775740421
Ni 3.6147880257853293 1.1922796125683748 0.6737473372520318 -0.40698968959195714 -0.8541500378655289 -0.772008176958451
Ni 7.909797347347914 0.39191533467981166 1.8049325695981704 1.37743252321466 0.48391401085383756 0.32647482276534096
Ni 6.960398117888304 6.851637102503331 12.078915979582241 -0.1237417958360514 0.5478866570510564 -0.6441076217590198
Ni 5.80798328583937 1.712511743699729 1.6352845415220048 -0.34376060642898215 0.05634084068357394 0.16445778549817483
Ni 6.4474749948018015 2.7582485346665484 5.910067624664288 -0.7769922604366037 0.5842466837373292 1.105167353722503
Ni 5.903483938028466 7.1300210386849265 5.879077802513812 0.297674610704197 0.4493686687788003 -0.669429131242944
Ni 1.0105865996060808 1.5887235565584192 11.031775040759477 2.070917666965543 -2.6284130507509573 -3.1118928022808534
Ni 4.02470620979699 5.528502068551805 1.3157906897354652 0.1617658404883085 0.7568589800218385 0.9273969102758222
Ni 2.708266450390366 2.822495273320343 9.450971436048132 1.4587693717219392 -0.9014292825674668 0.8838444796061682
Ni 2.7131763183899613 4.41126532484088 11.836752548789326 -0.16425929633412356 -0.5365385790280888 1.0657546562528355
Ni 6.900642792575049 2.8100346234728852 13.320312870131415 -2.2353083466712085 0.49801316925938094 -0.6789550684555081
Ni 8.957626411610015 5.547909065739598 8.33124814176317 -0.7160465739911669 -0.8847369095134504 0.4651004776917603
Ni 4.991262080277913 7.976926773652986 2.2298918738548035 0.6135171505666724 -1.4209481871091076 2.56541125310744
Ni 4.455314651950884 2.564680708379476 11.82982572933308 -0.5041107975166866 -0.19706245890707352 1.507104054271585
Ni 0.2680843721733536 7.3834092832322185 4.114198782981279 0.7937787358663233 -0.46287801611914475 -0.5394791497136515
Ni 5.449776798694659 3.8746297710745137 3.2257367807719484 -0.9458209213089646 -0.8541934895089547 -1.5418273166853833
Ni 0.7424836294478804 4.1956216905404755 0.29813034659284626 0.390685810225611 -0.8087124743580202 -0.24152248899266143
Ni 0.42211474247429165 2.0140315730309326 6.132522770914887 -1.551448384714915 -2.567832203844106 -0.4697698581429716
Ni 1.0434678368154913 6.25109887280284 1.592412466852812 -0.22375873725133721 -0.8778507239165785 -0.14627262994871584
P 5.180784844860773 8.728806105045546 0.35852451268559465 -0.5806502246353227 2.1811166911201534 -0.9463850213425508
P 0.055322495624984654 5.429458500249363 3.6287290752266044 -0.061485618109307014 -2.2852921347885027 -0.9576901619427248
P 5.208077387623676 3.217469976507478 10.054263097405215 0.4107807812032732 1.6690071916687061 -0.4038948527167173
P 0.9063402450427053 8.842886144096747 6.43131706556677 0.07207650625127587 -0.006592308505537033 0.567554567793629
P 5.52362009752948 3.929568218312409 1.0678646733377224 0.08842872235705415 -0.4720385995724903 -1.3826441493225865
P 8.247360071312508 4.131598127704844 10.78503929539194 -1.6139043371572914 0.7146692340276659 -0.38280923569101166
P 1.4023624493995404 6.245584570295719 10.129009328404356 -0.1014917261885994 0.5723787286551497 -0.866220852987134
P 4.2523920392857955 2.104594460243163 6.07070678888059 0.5570366989814406 0.8585329974245729 0.8606199618605889
