# total energy = -340864.4056500486 ev
CRYSTAL
PRIMVEC
9.31386314994447 0.00000000000000 0.00000000000000

0.00000000000000 9.31386314994447 0.00000000000000

0.00000000000000 0.00000000000000 13.63178017966129

PRIMCOORD
 96 1
Ni 0.5545315909691464 5.5053780635978455 2.6401756996207197 -0.6833951065047328 1.7491425636687168 1.600959089850533
Ni 1.0147640409496146 7.010964075965725 4.594960028044835 -0.5965807798226499 -0.3364923549023431 -0.7430153892705268
Ni 5.062261700316594 8.730265997023944 8.162260039929881 0.15928806837177728 0.6839183259980544 0.2866584620993515
Ni 3.9905899542289176 2.2865813968100928 9.857236012660834 0.001714668698261563 0.7812641483390803 0.3686499134714941
Ni 3.433211115230196 7.143509665461594 7.258664409289086 0.7988162982902307 -0.09299063069612373 0.32130022054293694
Ni 5.377591858279644 6.569347244685657 9.00894423988727 1.1398703044213274 -1.3302404389098896 -0.8370084930892359
Ni 3.12113149558027 8.947940297642871 0.16158435268399549 -3.9169190860365384 -1.9921935734907623 -0.04354908823554435
Ni 4.49840972628171 6.81402243518924 4.26676090507536 -0.3797701917543717 0.14460295555577676 0.22779459788360765
Ni 0.9027629712562881 6.982482281806609 7.108768955123629 -0.19552313944441166 2.377576740556538 -1.6435779529623242
Ni 4.757232675231237 5.78610721917335 11.362320939179872 0.8284186945376959 -1.9012127741358162 -1.435099024688193
Ni 5.130597515799076 0.0664926019232634 2.9401845523542915 -0.5629229825588886 0.7493521301218321 0.9773264481164136
Ni 8.737977875887172 1.7255422095103465 5.293765225254506 -2.8853745000065083 -1.1827079684121438 1.712456521101593
Ni 0.49778501566723626 3.7687709844141732 5.09989436522827 1.3802139426145392 0.7754681104825935 0.10778630094805954
Ni 3.28340693692568 7.222556423809668 11.91234927721379 -1.7776702387947645 1.3396257367795315 1.8251240614013537
Ni 0.06491203931083636 2.1597917748715596 7.524007062591582 1.4961390706196491 -1.6994572806284474 -0.8131049469987609
Ni 8.275022983646169 6.301722694859621 0.9869295602941157 -0.44042225821878994 -0.2774086613663094 -0.6556331059001159
Ni 4.974105983601086 8.867952839095297 5.518976304105468 -0.05787244683675194 -0.030592270964560214 1.1100352233377655
Ni 5.911518389334398 1.7521984864506304 8.695140624129152 1.0858131175656074 -0.044294708152317265 -0.2773505544348643
Ni 4.013045678793216 5.092950880092358 2.3502966046789915 -1.6181798246041936 -2.0626824235399446 1.644303518274439
Ni 3.5522888583055026 4.905853992888857 9.134260408642033 0.6654634617269765 0.5378968928281962 -0.12760770654936088
Ni 4.093191473017934 1.6671070307810176 5.127525803662491 1.5122640012059698 -0.22415494424849136 -0.46601887574097156
Ni 7.961490401311868 6.851110239094274 3.7392516258765998 -0.9475106503065617 0.3259078945182774 -2.8728861377315105
Ni 8.182741225461568 0.5697420612246242 3.1736011448266317 0.49095009176501264 -0.18539145032704846 -0.2537653109157565
Ni 6.54771114009716 6.553951428549287 12.435591875606699 3.4055068697624318 1.3066636800312141 1.8288349345940376
P 1.8599319439517705 3.4531800382770053 6.830053456806856 -0.1846748838759981 1.2458668604588157 0.9505453233678276
P 0.41366406455987953 0.024042806881079147 6.439230710754436 1.382839038942212 0.8316711400367225 2.0476692379605637
P 2.5822499892172583 5.881620887944353 3.805598000145089 0.1328121335684358 -1.3921798567271637 -2.2892256655149543
P 6.097767714972013 6.315954278075817 2.70648109289042 -0.7808221757056553 -0.8188565047705575 -0.31202882254334
P 8.395628200312743 4.1345170847523995 1.8228962976815593 0.22127196627374152 -0.5031466338312044 -0.42387078161801195
P 8.290204580925227 5.71892632274768 5.5386602229334185 0.28858730369094815 0.3875189824618552 2.4044295990833233
P 7.215664164922244 2.659070734221962 7.067737661471383 -0.4739463581181645 -0.04759034818445352 -0.1604599771926914
P 3.05246969488014 4.8512095565476105 13.458902317576719 0.05693373707256646 0.2701568648999025 1.9460965220223843
Ni 1.977770943200013 1.605132583974362 5.761486021377529 -0.9214748883644323 -0.2177528973768895 1.5697903775572126
Ni 4.019621266326355 3.1574928181431163 7.265725249103352 -0.816660011339871 -1.2083302969659384 0.14351460758760445
Ni 8.001232656274897 4.480713385895078 3.93290454150018 -1.9450799078324115 -1.5810266125926644 -0.9514863471248581
Ni -0.005269783889871612 9.15034917621249 9.046049740132693 -0.2114243840557004 0.29530791024423336 -1.7284711513622943
Ni 0.8672883284854451 8.337658714751484 11.041987373819087 1.0017280168892295 -0.1104543346985259 1.681901531132871
Ni 4.037373489893154 2.985698608442371 0.5618802291612791 0.45765867670173443 0.9755696133263069 0.29232825879061913
Ni 6.559679454516539 1.7851416211598492 4.342608351358798 -1.3484232804665035 1.4105244206726224 0.1694953479220823
Ni 5.721292044041471 7.9595531177327 11.025097613999552 -0.40690355763605407 1.0548002141238608 -2.0589661510306216
Ni 1.3961760594616903 2.913208809900712 13.311365133614364 1.3234203306642627 -0.4764238731243795 -1.3224638802882644
Ni 1.65407693593844 3.98253346242132 1.6098994192427187 2.267113149886631 1.2006504118231776 -0.43515895293732154
Ni 6.435292809325243 4.371946089560825 12.50114657148947 -0.18270876128856275 -2.2663505606889935 -0.5738637978411084
Ni 6.187432277552067 6.815494025600339 5.9068689087443955 0.5792219768292283 -0.7669248488982726 0.43469409748576104
Ni 8.656826184419423 3.7857687850487007 13.270660756566105 -1.936090816959924 0.8019175629233737 1.8232733813458601
Ni 8.730750317918735 1.4773277509294376 12.889693940722703 -0.204589363411738 -0.27266214782025944 0.8316351445924645
Ni 2.984832419149762 3.632574360480641 4.483465632518368 -0.045273012905186545 0.32082148113430553 -0.9762967213003187
Ni 3.514362806697943 7.566182098664605 9.690846637868702 -1.4250912627432037 0.029573342781742614 0.14028607334797774
Ni 7.815681870389386 9.045856943161112 11.74812723842585 0.35061850989108007 -1.232798971531264 -0.9386444581651835
Ni 8.523498230401197 8.003095428947175 5.490336174269209 -1.1839289853034385 0.8533146864484272 1.6590457095806201
Ni 7.554595652643042 6.085994991683222 7.8595389901854755 -0.07323478822543517 -0.35815055660206707 -0.27674814496417505
Ni 6.455336243278943 1.7237912031984064 11.498720605334682 0.2987074228440856 1.0038712884844774 -0.7170135658901264
Ni 3.1648507701986106 2.0105371145053654 12.193804914131482 -0.8102319963263401 -0.09756410899941907 -0.12443625079991473
Ni 1.0341089351512112 5.070271622807385 9.715165135105277 -0.6457289594125266 2.4699302518892945 0.2632259421080241
Ni 2.524150109568939 5.60480355498063 5.826208989262129 0.21370289567723194 -1.3114137931216898 1.867565518395016
Ni 0.8252315784771113 8.002760129866164 0.3909717678662012 -2.4781696090799517 2.3785223922992587 -1.3079546309284957
P 4.846217325785909 2.7842676855256983 3.300103899773635 -1.136183085377727 -0.16895618758916064 0.283882184905795
P 8.221216795007448 0.1571574734283292 0.9772105438765104 0.9102779912073484 -0.11183141755171062 0.059404310100246084
P 8.00413858164365 1.325083340424239 9.875352408285066 -0.06269069416100172 0.7247700699070938 0.40078767454630326
P 3.7786995627574096 0.8646059358373662 7.282452016314062 0.15942870771469964 0.10551884507012149 -0.3350728488469971
P 4.66438277138159 5.164891160695695 6.9737188677698825 -0.5071953499792814 2.7774470454948936 -0.31710983661067327
P 9.281525627794235 4.147575121185061 11.36780121638171 0.4670563158665505 0.10814419850811052 -1.8100111170193152
P 1.4482778111052776 7.263258006698921 9.017763537104166 0.6370090630410256 0.0995986229309446 2.2636190206904434
P 1.4759213575618684 0.576553289500805 12.779712116606124 -0.2441352440251602 0.9066967016139933 -1.267360254445901
Ni 4.849225703651636 0.5808041367389412 0.46501511881653934 3.62264553059409 2.5951028666346017 0.3047819111729396
Ni 8.488468790299029 3.477638243464002 8.95546589923887 -1.3525637849974383 0.8654083843881676 2.1551423785435784
Ni 7.195182979390558 5.1657200945348585 10.277858464538005 -0.34758537949171103 -0.9530449498612296 1.0647231296645276
Ni 0.17868460581549825 4.936086793359912 7.25612824429578 0.6753886912604885 -1.7861952455466399 0.059872765096232364
Ni 8.466050321188176 6.932001142387903 9.947532986563125 1.5457284515120027 0.6959670296324723 1.1888341359145398
Ni 2.14775826340865 6.580272406408561 1.1415853300235768 1.4736342046489137 -2.398087973136012 0.9568635522763714
Ni 0.3183469183058019 2.215647013449785 1.6338779604666045 -1.7016542882797663 -1.6351035969427261 1.1138419986783656
Ni 2.6264442708670304 0.39316797684681576 9.739934423328545 -0.7253315988375185 0.3584287499641182 -0.3986765417405715
Ni 0.8299844429504261 8.861964024953927 2.7780478875729653 1.19281754604232 -0.2188679848179392 -0.5021567591141093
Ni 5.112230577250425 5.5395785698608515 0.43835418494457495 -0.2026893181755477 0.999119375621789 -1.095455525751378
Ni 7.180504330733015 0.15818944948877064 7.113144608130806 0.6624598990139624 0.39602522016065345 -0.29352356465030094
Ni 6.108851212372062 4.068593559880517 2.1163612300174215 1.4111165457306667 -0.1133933627221918 -0.038958126430752256
Ni 2.8603805769149364 4.439089730533049 11.468144123305592 -1.0605183475545608 -1.0432068528593066 -1.3204558487192999
Ni 4.104405364505042 7.305598829539777 1.9691379232503452 1.3311246412870559 2.5528552708193 -0.7855910578492082
Ni 2.7406042940875257 2.0205588314822154 2.2727037404016293 0.5986615736110786 -1.6515779404486652 1.662456792144698
Ni 6.632243763965089 1.5816802760303945 1.6622321546976686 0.496965444721157 0.5917059682288519 0.5540976709577747
Ni 1.941307168140191 3.1988463714676656 9.11847527301716 -0.28544824384133416 -2.190177001550209 -1.3133233514395768
Ni 4.530244511250924 0.5446011498532377 11.393878171020917 -0.08634792856862548 -1.8221132995994875 -0.1590409853579777
Ni 1.00229277790872 5.754663616465313 12.869968109509626 0.44679679428656605 -1.2027643728423867 -0.7609390636284831
Ni 2.459791313741769 8.63145522062301 5.464926092246679 0.6152878693138499 -0.2467217738054138 -0.12853921722469477
Ni 5.981418933861593 4.271132832537194 8.46570384547113 0.2958856371245743 -1.1650421757012646 -0.6523732042019217
Ni 6.5563637191598865 8.10683323906628 1.4773575552921938 0.12214848320700254 -0.1575965396019673 -0.6697109241494208
Ni 0.6612135132967859 1.9857063547839129 10.872285989215644 0.23094754169029255 -0.11523272992377574 -0.27044817088807616
Ni 5.877047781033912 4.056867405908533 5.575397825576065 0.6491490408376691 -0.6997447515073497 0.027436241834081783
P 3.001718453423953 8.885714376525458 3.0866851033245237 -0.10244020614479776 0.16376178787241477 0.43897755535246336
P 6.855087258749586 8.975155406384838 4.549538179204033 -0.9630485980411607 -0.621906145961316 0.5098795816796639
P 6.0954671907217515 2.4807009369880784 13.461574464975103 -0.19263887591808115 -0.135521819190115 0.23005845421711993
P 5.338939325329896 3.8013695061790203 10.566116015868516 0.1167000584979216 0.18998781144847926 -0.11834633585209295
P 7.055558853740036 7.9685409958764355 8.815890205677828 -0.44077141402809256 0.987884426137918 -0.5497861880666145
P 0.8984050145894962 1.8919436923248507 4.006025819977741 1.3990750411851003 0.5998262833431411 -5.04356235024463
P 8.734988125748165 7.03971597216232 12.472861299847281 -1.2328964163410767 1.1001650154119054 -0.7660267625640355
P 5.023506714869871 7.925604085780451 13.247336979936525 0.1813568752463586 -0.661319357651616 -0.14921294352396236
