# total energy = -340852.00971964275 ev
CRYSTAL
PRIMVEC
9.46699565805206 0.00000000000000 0.00000000000000

0.00000000000000 9.46699565805206 0.00000000000000

0.00000000000000 0.00000000000000 13.85590508414067

PRIMCOORD
 96 1
Ni 7.8693927605010945 8.082144552700434 13.194424422188257 1.3124910853462686 -0.5535297142694466 -0.5755702390092539
Ni 0.7022030385011111 2.995092333097044 8.871118286105755 0.5162692872560916 -0.0802292172653973 1.070596814836485
Ni 0.309974050249906 2.7954523298086666 13.667076484791467 -0.9045032935071003 0.5704748267642175 -0.8132941801914315
Ni 3.812160322655559 5.453945634220285 5.47165554289591 -0.08568509817364599 0.0766767240274486 1.2524545409786625
Ni 8.539002826538187 1.4828155213893452 5.842716328977501 2.298168476530539 -2.7341018457400397 -1.8128984658694391
Ni 3.298055126402936 0.563434870244218 12.832397043311605 1.3481934238438846 -0.8805863776801867 0.2832646059264541
Ni 2.842853576795811 8.33688247040167 1.0138423332776876 1.30716735914051 0.4646813878764706 0.3210778201194857
Ni 0.6290364162792526 0.32402969862254705 7.176804402734983 0.820539034679303 -0.8694969526352445 0.6652261489051898
Ni 4.874470833324915 0.5361311082239216 1.5946898485355774 -1.4736020658593973 -1.1965387036476491 -0.5521999397144296
Ni 4.065449790029446 5.651001147708884 9.534164884090883 -0.19293969498795158 -0.731936762858862 -0.32743615823734573
Ni 1.7347606753875235 6.225638313850823 9.430453947253621 0.4851293713181774 -0.13674797828773225 -0.10452254259512321
Ni 3.1857008225796024 2.9986140554615774 13.276340441746948 -0.7321424511117649 -0.049329442362747306 0.69391503219945
Ni 3.871130238270283 3.004805470586321 5.0980168939114625 -0.044188264481440025 -0.2676991473880293 -0.048454238846645584
Ni 7.054587382891835 5.4595311616263995 0.6504517070341197 1.3951613079529908 1.166898769294029 0.7960973566971709
Ni 5.021890888863924 5.74682607720836 3.6515849300258103 2.8515387824039857 -1.1216347552499069 -1.40151836051927
Ni 5.289740595476123 1.8854752453965793 13.481809274228452 -0.12556625063929988 0.3418060538057726 -0.6581592147560794
Ni 4.494475096792661 0.5890137456655413 7.749261319789417 0.9112331560317661 1.374075176706653 -0.12311264689248476
Ni 6.042243675018196 3.975626935742642 10.063793113034704 -0.5017263564449101 -0.41665189527206953 0.8008577542002918
Ni 2.1532586830395535 2.2403929105749394 10.867407555140966 -0.5883974726809093 3.1986739617321556 0.10598550029389488
Ni 2.8908607115015856 0.5131149485124885 2.8976712681388035 -1.237886156246184 1.7419475885821742 -0.7872015968694378
Ni 8.467479674753111 6.291594872220992 5.91120625537119 -0.8185770258569257 -1.4053454475748441 -3.7628526710750165
Ni 5.349344799796286 4.569870249779603 13.350746293693314 -1.908504679811539 -1.4679291838443365 0.18819343855221782
Ni 3.960972026548294 8.61461572042401 4.089224256088726 0.2553529671178506 -1.515719306744422 1.0985099963069855
Ni 8.663077270918757 7.3402634422255835 1.5321717029686301 0.012845745614416586 0.04456878774931034 -0.4615842370083857
P 8.929629999133265 4.27892107389466 1.2270570615620437 0.11490774248418921 0.3448332706678706 0.08044750392379048
P 2.2870083969269865 7.983252316625398 5.575255715884609 0.7006101848314386 0.7269297965625738 0.30572036382680895
P 8.279881689872491 1.2947441867285479 12.87306441632592 -0.4160217178872384 -0.681262376432446 -0.5150613829909194
P 1.6854186943016443 1.2898308160102878 0.32631881815949365 2.228511892574665 -0.32712454053419787 0.37686741628528003
P 2.5541859468513315 5.062712573906578 7.0874340708380315 -0.6381565463819073 -0.9942034263774102 1.34443344258082
P 7.061687629594524 5.30840951080639 12.227517559714018 2.8631977067991525 -1.1750039148996667 0.3755306997517274
P 4.653643693875717 8.214351146304484 11.79425671911776 -2.325597519275769 0.405967676085346 -1.5707884798044238
P 2.179794671716399 5.499690156976803 1.72101459777112 1.026717596955032 1.1386482590887679 -1.30081699144245
Ni 7.6041464776798815 1.634940673743335 7.941137439983295 -0.560864300257647 0.9746062209717731 0.891322276040452
Ni -0.010782907992482056 0.6335720538729297 3.9016149108133837 3.0182866494879184 -0.2878925916167687 2.188154571803541
Ni 0.41770656681957 7.3302946958550095 7.195593548909416 2.6026084309830275 0.17143267415411118 0.24115790656439112
Ni 1.445487157724414 4.6855096010773805 3.454125175824939 0.7450511887536331 -3.1423704020444205 0.7297204719338336
Ni 3.476763602411789 8.030218081814779 9.09642899467281 1.3723589653464947 -0.32467427922149245 -1.2905742306685193
Ni 6.058479572478342 4.480776354154275 5.465364724317328 0.9495063405803518 -1.870770655595875 1.2970467257667404
Ni 8.893172599063863 9.36427870128501 11.071284038961945 -2.8527718834801385 -0.6502736413604155 -0.3341086851615149
Ni 0.23207487692581596 6.516615890722578 3.4542908482480015 -0.1538707540109479 -1.2055607046406012 -1.0376936363505613
Ni 7.918886213516632 6.52452083205157 10.734903697874962 1.0797211457352565 -0.24881310911680374 -0.9082229084505327
Ni 0.2499154301407698 5.397067924633953 13.141162158222933 -0.3813704463619561 -1.271814690672829 1.36463151479525
Ni 1.41422713824138 6.041259107475423 5.303749855570306 0.37596804439946213 0.1678207884331368 1.6118649381297594
Ni 6.985260574086791 0.2717860833841693 1.8098027094384521 1.3718352316325406 -0.6835308607516486 0.1010135010006002
Ni 5.972585521367026 7.50928718173197 10.184921428383438 0.55178084989914 3.36194698289361 -2.457614153526103
Ni 6.067709893191836 9.011538445095473 4.687951139243545 1.3193011662895666 0.4433240052466172 1.2363810324555675
Ni 0.44996346093966144 7.1241982015649885 11.837875901361272 0.5216122967355598 1.6714764791448053 -0.9434333949133945
Ni 7.072991222345204 3.0054018913093468 0.7664934056450493 0.41282403688554703 -0.523190439855957 1.7967722497315377
Ni 8.662973133967117 8.545440383548625 8.627282560541607 -0.82922267849623 1.0784517921045298 1.9438694324640777
Ni 1.4223119524868408 2.4202847610342406 2.170236792955021 -0.6913033056082158 0.03383623182315463 0.6295464361153933
Ni 4.350245418772061 8.047504815786922 6.548286777814807 -1.0131108048048745 0.2127019652165434 0.059464216803904034
Ni 6.207707824177635 1.111501019825578 9.938660258545651 0.07953990450785656 0.16368285500536328 -0.286741508731461
Ni 6.534186634562829 9.089196210031671 7.505466302306364 0.09604638680331201 -1.5335041415316686 -0.7016224281460368
Ni 8.434477728079017 8.058486530687079 4.090983223871873 -0.4140944189575384 1.8393016384533163 1.6190133762490828
Ni 0.3322726116945875 4.695790758302873 7.2197580551875635 0.21531292047682918 -0.011404899402831972 -0.4684704226052577
Ni 5.331546848061549 6.18494916674662 11.685461058941812 -2.436663776526681 -0.4528319447370524 1.3198889204722366
P 8.923069371179981 1.4246313664097188 9.576993572201497 -0.1602190648264789 -0.5055621852512325 0.7297754935414851
P 8.281699353028381 8.710090371086155 6.222811468963593 0.14008372752918455 -0.23508110424269194 0.11781617438023581
P 5.07767042696024 1.401011212378777 4.098161099938509 -1.136000794163592 -0.013645615807892628 -1.0657400009648161
P 8.483876511138519 1.5620542745913426 2.5462857390201403 -1.6529028299076758 2.252640924412385 -2.2204432566339176
P 7.194272903022717 5.497257139106681 3.8191450720118834 1.2064906726540383 -0.29603116156350306 1.0776948593338471
P 6.38546960062613 7.677326353695585 1.0996739022180206 0.14882213584344692 0.27597115758883434 -2.8963785644264957
P 5.371611173455916 3.307531589002123 8.044045575593373 1.3582302392545964 -0.5563206467510224 -0.01727575636131218
P 1.2033403441759454 7.766865198114281 -0.08714842802879154 -1.7949076857189734 -0.947461285125865 -0.4321481911354557
Ni 2.894240428932065 5.721217854100666 12.930108745034877 -1.0223197249976521 0.6479177395337293 1.0835760007049726
Ni 1.141738603783425 0.6500143318372342 12.111279894294094 -0.07387267891975019 -0.3433751980651054 1.2838348550621566
Ni 3.3104852916304415 3.129353264747071 8.133360998915824 -0.5987497624495108 0.9883878481368977 -0.0007793013681857547
Ni 1.4725154301726462 2.3783270365191567 6.699135779161433 -0.8383758057504077 2.530272500422778 1.1094513258098375
Ni 7.0691949571081665 3.1389149303066906 12.326517719538936 0.0077498191487479435 -1.0977157825404644 -0.615893621218649
Ni 9.246386205033579 0.21652533664692938 0.8388780540300518 0.4302856840054202 0.34561077226384346 -0.6223535179113797
Ni 3.118201143926049 6.4955612925002075 3.559568572857656 -3.7380417826789243 1.6990351054893642 -1.7299040271540789
Ni 7.3810188582990115 6.690874878797747 7.783124763063436 0.433768243237382 0.26168585131441385 3.960645837500527
Ni 7.303635636235317 4.253776733571541 8.050100665981425 0.8829142544824149 0.3353297020528096 -0.570647604896656
Ni 3.440826887100584 0.6219390096752457 10.264607023777925 2.0905603808971347 -1.4058442415881338 -0.11081506047205432
Ni 1.4239402757306572 8.876349747876295 9.840782884399319 -1.9883040086283692 1.4541046192564184 -1.7427369172526888
Ni 6.333599931714094 1.6814141551613282 5.7875559323936585 -1.9038414700079147 1.2551801674399414 0.7786344240257171
Ni 8.68411293514992 3.816145927804668 10.791615735038231 0.8336758291715772 0.5200020148256463 -0.57262709722053
Ni 2.6341063237367868 0.8161903990660629 5.572027470383787 0.6475287316254267 -1.7090847764158825 -0.6714798431243855
Ni 6.13373272053123 3.5388008246020743 3.322563284621494 0.2454156533994806 -1.0905722295171476 -0.5362182195741927
Ni 5.815878343140901 9.01580806011269 13.168458346646748 0.14912372624426576 1.4341400032090335 2.0848188504276672
Ni 4.045322957376227 2.4763577759942677 2.3360777285394825 -0.33938176063499614 0.7834866099116959 0.4966240022213382
Ni 3.917490115741033 4.368374715352924 11.456657975696597 0.6171899714325694 -2.440966774777409 -0.9239197503604992
Ni 1.1294125755075586 8.577514564653566 2.595986519239396 -0.6558606485298898 -1.0593909188183366 -0.0019316698050740925
Ni 2.6090282523828927 7.69229367374485 11.19428303264195 1.8408386439231328 -0.6528012928782758 2.0913052294829595
Ni 8.674466066629869 3.5187023929356656 3.6593582801159132 0.12809158816431487 -0.07430642402305912 -0.2052046283982337
Ni 6.59869474260565 7.482665990094692 3.080306653924023 -0.9203718851082408 -0.9472841361180525 0.32379547616096493
Ni 6.087202437139616 6.589720030773453 6.1201807163246995 -1.5776463832665217 0.9866240713682557 -1.9048819954572869
Ni 4.556067370189578 6.451312555049055 1.1222479532347664 -0.299698068892129 -0.7221781408102014 0.5964064590283149
P 9.219310597607329 6.019683824494855 8.892747530961262 -2.0769787855579582 -0.006025380258473494 0.5840451092494846
P 4.685964016866353 2.2874249447335444 11.055987267465675 0.32393123040788085 0.09016910208692858 1.4359564875924817
P 1.5009258839790014 2.5257660260493724 4.6601702406448275 0.38823194936847977 0.23619053525678677 -2.5783742410260113
P 1.941311585466517 4.490091877828202 10.836135228563647 -1.6710306498566383 0.3218815469677037 0.14772710300705524
P 5.017555004877481 4.167333596715216 1.562530464470203 0.4058810299088107 0.8481349420197007 -0.3149735069939608
P 8.183157395790676 3.3079765377954917 6.3105335969259615 -0.8421370725650528 3.82886188808629 0.5478048959705276
P 5.28424027103044 6.825968906060888 8.32882605714302 -0.24314382664616835 1.0101522363971827 -2.4246793504712953
P 2.6066141685039788 1.0773819676702616 8.262248463861257 -2.578050539138005 -0.9051918349336927 0.16441921895075556
