# total energy = -340875.75512314955 ev
CRYSTAL
PRIMVEC
9.21375667576066 0.00000000000000 0.00000000000000

0.00000000000000 9.21375667576066 0.00000000000000

0.00000000000000 0.00000000000000 13.48526423576913

PRIMCOORD
 96 1
Ni 5.362249819178575 4.804255494087853 13.24127508254175 0.93945358433004 0.926106987819805 0.5140026027091018
Ni 0.6141650719985188 2.3071431282734265 2.940300517147649 0.10230445189788187 0.07812142689377513 0.5125147053096658
Ni 8.850624209478815 4.072517357167145 13.48539909700442 0.03742806293947103 0.7209355266523519 0.10855223257980659
Ni 5.149117197062054 1.1491950296604314 7.706491217800002 0.723874811786334 0.15955957686560907 -1.1548783477943851
Ni 8.410086855974699 8.89455540186389 3.3708169887645973 -1.4558935928360413 -1.5570287070161701 -0.1419125532078072
Ni 4.994095739033762 6.39861318316207 10.06035822814221 0.6194779961357977 -1.1453495823683435 -0.3685367849323976
Ni 6.96500124069046 8.492918529536324 7.306343288570051 -1.0033771224568784 -0.7709234285347046 -1.923450502488094
Ni -0.015282858391175517 4.332382153733562 10.795223514118181 -0.19656983554137114 1.137571995305454 -0.1505020946490311
Ni 2.2857119299748345 8.05823191159524 9.668867544794185 -0.29650321610391517 1.5446205631598044 -1.3599587919099287
Ni 0.740259019202108 6.520372979170621 12.120609529412597 0.4854659287219896 -1.7719076252793744 1.9274909911060545
Ni 1.2713694447246306 1.2095174953787808 8.606268929720661 -0.5291883093106047 -0.21976067183553766 0.48508540545411943
Ni 6.978978509744184 5.116104306475703 1.841493680632247 2.8835477312104145 0.1090098889425155 -1.1969143418195127
Ni 2.8007056521164904 2.205054703016162 11.414211066421723 -0.0898518279568259 0.8825422158549767 0.4926817297441386
Ni 0.9521219856326668 6.1985548819336405 9.098736859256816 -0.47610402789111544 -0.3592908408540973 0.78083580255241
Ni 8.075129941552083 2.206418339021403 9.165165281601336 0.7043007463091484 0.527243526879408 -0.4624859228870487
Ni 4.072710846059781 3.20473810121002 8.710064664111515 -0.43354789969645974 0.4404613389868414 0.012291672883159474
Ni 1.1101379146184147 5.338275624005344 6.745181273894181 0.08596174887380034 -1.1789718984084792 -1.2635359956038044
Ni 5.252633754622106 4.024753241956526 6.64228848766896 0.8593876321153845 0.4925097229426485 1.082221286449291
Ni 2.877290398573023 6.742203387698951 5.481409493020375 -0.13340991505343477 -0.30642098943825935 0.03705268187792328
Ni 0.6989122855972366 0.5073509108825492 1.4128780070415234 0.2344712385728349 0.2419541772134414 0.023549762295482023
Ni 1.6540075505467373 3.8801341153465962 8.647588022055157 -0.12688368389914279 -0.2832270678202993 1.745180493697175
Ni 6.5219024627981215 0.692495825367168 5.359381576689172 -0.63290712505751 -1.2615426193228596 1.2605756274239
Ni 3.7806531832615162 8.400301846261412 1.8886782505406385 -0.06060990037257303 -2.4903566380644464 0.14239257816801928
Ni 8.982952184527987 7.149552789237663 7.011393427514724 0.9786343682945597 0.05566746876563316 -0.21151925776235184
P 4.667320640642594 8.55152723649133 10.397611210757438 -1.5143324536992242 -0.47526044894389763 0.9164147002327055
P 6.896635165292545 5.411128798961046 11.066911403400312 -0.8211504430110568 -2.270365338275342 -0.08108205218399585
P 8.058296407892785 3.039940847225233 1.9570627534521383 -0.3881553304942734 0.36451223715403674 -1.739632310185436
P 2.889323564943599 1.682183218817199 7.164276372591553 0.7379773126259871 -0.08644897292286402 -0.0777262483378855
P 4.3702599079061795 2.8442498667162948 13.4018312442751 -0.7121850341532314 -0.5512519739788636 -0.562685669737102
P 5.584706763168772 5.928462815327914 7.727824750276596 -0.07177054497508285 0.7027909945328412 0.8353611872938
P 1.6238417108091665 4.385315186504589 4.492211350056008 0.418154447959525 0.4524768753904788 0.2132724930080327
P 8.075636698175652 7.779561837416001 5.296068325516083 -1.7049722969094054 1.1075211986666602 0.06325453708427171
Ni 7.625378831255796 6.439964523645337 8.853238152280753 -1.3720272930386885 -1.9245311371467821 -0.3500027306839521
Ni 4.853106832599948 3.9787305267796276 11.182035451767142 -1.4695875453833658 -0.37339719834849244 -1.2046104249121898
Ni 7.476945209333907 2.7270508803198683 6.507813707287211 -0.5590817544359274 0.3171538024747312 0.5480404090201012
Ni 4.606786258518024 5.123751724613205 4.716727568689258 -0.06321982719159436 -0.4963123845181904 -1.7651705636658566
Ni 4.372157941805367 7.940010198194881 8.21251258357744 0.163582324871757 -0.1103391492769003 -0.8285963577661407
Ni 2.5892038649521845 6.105597289657418 2.9043889786744796 0.9072723716118052 -0.7933938417230787 0.5019158467478969
Ni 0.5453733210368049 6.496140798807208 4.5665829521310615 1.352722936283122 0.02955123129455556 0.6555156064856453
Ni 8.74769733235346 3.829688796909455 4.697335374768773 0.15213397382549929 -0.7729047206307915 1.3388983716952036
Ni 3.8340561176289447 9.037783251198201 5.901421360518569 0.14134948161548558 0.44090254028931813 0.012446196183152758
Ni 5.060278154071932 1.258525467756343 11.960458772978106 0.4217617056948091 -0.2655347927468588 -0.6047653725159714
Ni 2.861866569702927 1.175214678841525 2.6016175594782776 -0.49813581088017433 0.4604596364856392 0.412627861714341
Ni 7.2675441587182155 5.4095256052792084 6.333597229733787 1.0439043931469634 0.11028207078671975 0.8512812009581661
Ni 8.185050060082693 0.6589844705383596 11.1018112713777 0.40593682284741056 -0.6319887270082987 -0.8000997929883445
Ni 3.0375913392432294 0.45520473294157315 13.5361042433831 1.4265002272755885 1.7476788346389964 0.025889980392884447
Ni 1.6510130795892812 2.739222253042327 0.566398192660862 0.31502287217465746 -0.8574575049722071 0.0008340658655211442
Ni 6.465385278634939 9.094447855470058 9.399903242019821 -0.7711010917631493 1.2248205813114776 1.0149619990810006
Ni 2.901393586341345 3.814172830471438 6.285899453572072 -0.1325647934443201 -0.7435540353828163 -0.6749330917803086
Ni 4.612636994081053 2.211135782498995 5.492885227105026 -0.4431962214195012 -1.0735713240837768 -0.8008868076660142
Ni 6.410222516720205 4.184464502192034 8.967606672590625 0.7577262131181401 0.7353103073167853 -0.11689211990406966
Ni 5.448260238833499 7.045133283511978 5.834830776054504 0.22488770864945784 1.1893537558634355 -0.3191091264288891
Ni 8.565642711896936 7.973999747001204 0.019816948108603308 0.5754828215017701 1.4512962032733456 0.37506121631447664
Ni 7.1234962850294 1.9188754170513027 3.595859312910679 0.17257630084025116 1.460662474979594 -1.1117010410759627
Ni 4.990870924156503 1.105807448926094 1.300261021897844 0.6531550766732687 0.8170852718027476 -0.5923615995349798
Ni 3.2511846491993586 4.44551787338464 0.9044002537032917 0.3884558924538278 1.0709092038705814 1.1532014743125947
P 6.834626582081228 0.17831844207729872 12.784812671798043 0.34080820866887757 0.16714613096361539 0.21113230673657835
P 1.72028210315283 8.132743562773532 0.4810677482571996 0.11451616347272535 -0.6889443184577361 -1.111515407427718
P 5.7849493395330445 2.1941732562446066 9.708230556561704 -0.3720113737445593 -0.6421353285239972 -0.08318392901834706
P 8.655145145376094 4.496460734688559 7.97006086597255 0.06063406874228911 -0.3040239499609926 0.551668749801308
P 8.408962777646055 0.908257132296495 7.452226542611867 0.7283189636006167 0.6902129007575145 -0.8930207467887974
P 2.8550207484063437 5.099685391872052 10.06202960362431 0.7427708773598884 -0.17537108997656894 1.0371858434762071
P 4.23077284382949 7.3438709199845675 3.8843355884438266 0.17374049635168143 0.6149253437681087 0.1940756083646077
P 0.9456815696349387 5.7617030311463955 0.686144782810324 0.46143922679008914 -1.7517416918544606 0.36363523386572216
Ni 7.104902923822798 3.146682219662545 11.17777408925076 0.514551019013404 -0.02819446015634499 0.6042133566672432
Ni 0.15030401455070008 4.740929343655256 2.7025551865121997 1.0382862756292375 0.8734983604851537 -1.8149705179071194
Ni 3.4413105206058257 5.415744891113925 7.7591653440051696 0.5877744943849296 1.5726494442725625 1.2550395280970192
Ni 7.370461822086776 7.41506561871768 10.99789391539719 0.15135390112636513 1.9645912383924615 0.5141273012124242
Ni 5.443505940328739 3.648168574346877 1.9919220808996414 -1.5657192928116324 -2.043757561610983 1.1905063814106398
Ni 3.0660065651902877 7.069374677632183 11.503564237040846 0.7485597161275237 -0.8488093423789059 1.521407872488767
Ni 0.7412955668412272 2.8128033147846123 6.87965605427593 -1.6352429507340676 -0.6301480742551341 -1.2326789010136319
Ni 5.409378185170534 7.698084586102824 12.486545858297536 -0.6233793880727329 0.5235565649461241 -0.21869957756087494
Ni 7.3131522548394665 6.1970438258197245 13.05682396394358 -0.33762672561710244 -1.6623004690724918 0.47811797299735076
Ni 6.6685025471183685 2.764034900083646 13.462015503641567 -0.5423747260938917 -0.38047621668246084 1.2717612117270742
Ni 7.607725273241994 6.116607729024064 4.00775293929929 -1.5589531777323926 0.014025367744814554 -1.1512152971205012
Ni 1.3684732275573304 8.789085527863898 5.900248449278925 0.32401659103283553 -0.4675736218226012 0.6452394213706178
Ni 0.7624973425956939 7.298152258781811 2.261923852688805 -1.0347065286977792 0.6552785507741747 -0.28907401351937956
Ni 8.912328738715988 1.098786566250459 5.16802566875095 -0.39381047189752183 1.0463086317130819 1.0164444971637978
Ni 2.022972441289261 1.9757335102157956 4.983870311745809 0.7029910263587893 -0.7320213521528682 -0.4315524665329858
Ni 2.2659299941420414 4.6297653679577015 12.426482299145047 -0.7252076716651447 -0.05986890844149044 -1.9947711044099514
Ni 7.456997425878854 0.48627352084477676 1.3762929429468467 -0.6991104603574605 0.39513741823906146 0.10111505957547101
Ni 8.641527212837264 1.6456783144066138 13.169709069409912 1.367425532600619 0.30929291166941575 -0.34913009827101166
Ni 5.136291647607352 6.256122434371131 2.1897101124544784 -0.7149422851833945 0.3938698643805475 0.42467065181148794
Ni 3.539059266413977 0.9713142410307609 9.37621006642875 0.07949465309221794 -0.5782560133715331 1.1166205898647672
Ni 1.3672938666879324 0.38964608923823246 12.087408678187687 -1.8051193361446523 -0.7841710375732301 -1.1558162862276222
Ni 8.661253866129305 8.469156250769313 8.855665055819811 1.6688498401552356 1.3579646442980355 1.3312174581111782
Ni 3.0938044694322704 3.671663654166915 3.0478315085420493 0.13045880284491082 -1.0100488780500991 1.1563456763685311
Ni 5.976116365457027 8.934598388882668 3.202952475143697 -1.252927881070655 -0.9563657867043465 -0.14590316242443904
P 0.6407393893385008 2.3680552744264745 10.91432606266787 -0.16138891676486397 -1.6496511557395979 0.1575669719156125
P 1.1548799176012017 9.33906388454543 3.7701025103588 2.4027465549539455 1.092872081294918 -0.3821168376096774
P 7.5042179294387354 7.215587784167159 1.9809991722225215 -0.06998594227083431 1.1150756139751505 -0.4366990437309317
P 4.101918455090966 6.44863466878677 0.30469248748737 -0.6866886896543399 0.8663535219102565 -0.28852765409760633
P 4.855585333177043 1.891547414405721 3.3626858483955058 -0.36346811216023855 -0.3326570403166529 -0.12557242128688695
P 6.633646905173581 4.131900019692693 4.620672311379507 -1.3361161809643765 -0.24877325701780384 0.25695245039448655
P 0.28358284930082495 7.750621427331788 10.6721572073965 0.3224176219768318 2.646523387198423 -1.5586353893816576
P 2.0951990807830962 7.197215553123568 7.478968550325468 0.26104204708282785 1.448028074045035 0.0845826091380866
