# total energy = -340896.93237951363 ev
CRYSTAL
PRIMVEC
8.99427001859527 0.00000000000000 0.00000000000000

0.00000000000000 8.99427001859527 0.00000000000000

0.00000000000000 0.00000000000000 13.16402332696445

PRIMCOORD
 96 1
Ni 6.400835177964941 1.8554909102399522 11.268272347852891 0.4628898431936867 0.519537416484402 0.9774840567402004
Ni 4.733522383858721 0.35902787175970696 6.031558335584148 -1.2813105459784062 -0.23463707472673787 -0.5932455448018299
Ni 2.784257215000554 1.7133454677689892 4.760532176552994 0.1398171041313592 -0.3922302718945955 -0.08351071623014651
Ni 3.274390962280524 4.3074368329743296 4.80515814639379 0.5130037291309423 -0.24158625235106138 -0.0919786444918416
Ni 5.279222730960609 4.525538885269848 2.721425043903765 -0.8027122909105273 0.21856999396154614 0.1049845698332063
Ni 7.347769908047699 6.1358729791702 2.6350692591497658 0.26410628783044837 -1.1507378432634503 -0.6176617688626653
Ni 5.123486946577876 4.56624695111543 11.538095050134805 -0.8987735901121746 -0.5985381606593368 -0.02615326135660012
Ni 5.508963368586261 7.994206078717975 12.438646330026298 -0.12700478285803934 -0.19213828213257875 -0.17170932485426557
Ni 1.9048064924386543 6.369022445111247 0.3612395627432307 0.1036080012006538 0.9115290900056302 0.18641963448124668
Ni 2.6991534326251903 1.6088140622768652 0.3242982971575095 -0.24095350386306894 -0.7105379854681118 0.8576549656949939
Ni 0.7439430513224969 -0.2437555090796036 4.411882792901819 -0.3242875853060351 0.6808448292790533 0.8044884089743434
Ni 8.668191698280213 2.278248581238602 1.2719813505010609 0.07348624211460893 0.2170227040790843 1.0074158113026264
Ni 6.876874904215299 0.5221839288606475 4.707862631085662 -0.5855337779798689 0.19443479147623932 0.23564494716596193
Ni 0.9067123548150946 7.3583741523322646 2.3611253823715073 0.1261969422447633 -0.5294423343029397 0.6646990727571261
Ni 7.422287434678421 3.9681010158682497 3.791002041473049 0.9291709714571094 -0.5862336322603711 0.5283462730252836
Ni 7.618317548488509 3.870881951854795 12.653720011625794 0.5339188820170546 -0.6883614493710726 -0.7177900390448347
Ni 7.990509433763814 8.43944043035032 6.883705152824034 -0.6359993908295885 1.1809259368110565 0.5255265441883014
Ni 6.946535525066831 0.6491056699948379 0.4230499847723974 -0.7896307751362207 0.0691621608179583 -0.09019378467727691
Ni 1.8473780787347123 6.309417418076631 9.06968331738198 -0.7154007128770518 1.0718551127236187 0.16628609695616522
Ni 0.27869015303692246 4.788036654095149 1.5152187896308842 -1.1000799118972668 -0.19723523703951196 -0.12902489861186167
Ni 6.237247395905851 1.8966576838535687 6.97944645828282 1.1496579799357103 0.48489385826860365 0.07999601820866868
Ni 3.262275680642433 4.328006728376195 0.43034883484612474 1.1568529550222528 -0.3189846850358829 -0.006030522464796066
Ni 5.89230814861378 5.567561037385193 4.937246196193844 0.07088582837728437 0.44076575760113773 -0.5895331289472492
Ni 5.139748586668202 2.9243969352701105 9.446871519620874 0.2639833890993389 -0.6279194420349316 -0.36817991581361104
P 0.3010858852409655 5.464396760927212 12.376353815127198 -0.998155726156939 -0.03451731705057926 0.11731455215346892
P 3.9249015372433425 6.2253209939369505 12.584569365881075 0.5533060282944148 -0.7539042682688888 -0.7537482023069987
P 2.4625771498288263 8.493298118879562 1.3424145791422821 0.9721184215529128 -0.05394457253725547 -0.28055826273888457
P 6.191232710783006 7.726779449953793 5.895784433953886 0.24989297244454384 -0.8764816114831937 -0.34864133156005117
P 4.588786591638857 1.1790588492481973 12.558872736601176 1.6355131736763189 -1.417579527747191 0.319450826039024
P 3.8742637973603054 6.1850896243993265 8.207202083956371 0.5885977616171734 0.20224991664528394 -0.5182348956228946
P 4.746438155523382 1.0511333475863076 3.7909228918973885 -0.20720083289265606 -0.3538465299100745 -0.11244205455251603
P 0.25188003313579327 5.660975525204949 3.7051859129167375 0.6995768584709178 -0.4289379117282742 -0.8387167340295942
Ni 1.5823888971300868 1.138755525550881 2.6250379498617464 -0.5113021730588032 0.8404715119371718 -0.7089120198289145
Ni 2.01426675786966 6.59760282191187 4.819349305538986 -0.5434023960274577 -0.39596428501573094 -1.3161055421704044
Ni 5.800098892968861 5.46506233690436 9.322313472632556 -0.33245675138038866 0.6641799670288626 -0.42112252944891343
Ni 8.71213770131192 2.1964546902090567 9.980159774175945 -0.5987232800869495 1.1691513127736317 0.47921352005437473
Ni 2.3487636577364723 5.296158941298045 6.893867778453491 -0.23082052919412505 -0.8466084780728452 0.1575865122996383
Ni 0.5432314199974673 9.125316474801613 9.037497322324882 0.028497078998428342 -1.0214620049830472 -0.20851620926996992
Ni 1.3795411266892095 0.9749788638225995 11.34130581993997 0.4915643283102437 0.509078168824291 -0.606264325659001
Ni 4.128630746140443 6.687617475686193 1.5841454780535604 0.04202905204659214 0.7565388776782583 0.23792423011844185
Ni 5.518991979593293 7.7395962846488775 8.128178428074955 -0.31342904532497634 0.3590473573847236 0.01758197474782133
Ni 5.202996293037209 2.880783720226976 4.865778626507055 0.3925987109776077 0.1108788238304542 0.08993076082387738
Ni 0.9943615155895524 7.3281713938016715 6.8349058417211195 -0.007504021686529012 0.4667907209099897 0.42717953427627076
Ni 4.921340729193993 4.546864299348477 7.097317265554791 0.266408967821696 -0.11074589779701571 -0.169260863313773
Ni 7.96221346046505 7.174962999278109 9.208352474512836 0.8047756011974593 -0.0870963766988758 -0.43754159423688516
Ni 4.504375368050525 0.5052000488924168 10.344249621069963 0.14081289238572522 -0.920994349183588 0.09411754521171532
Ni 8.021278831301979 7.1942826911553315 4.669608202085568 -0.40583757826538497 0.05328945545175983 0.7701988916638541
Ni 6.941480745348488 5.966924612214077 7.145853044547834 0.28807282594837486 0.3506406213782671 -0.5342083882330154
Ni 2.3291291664105986 5.233648765065876 2.7000204802494756 0.002521223759956948 -0.500196550063945 -0.19033439615462058
Ni 2.295751430583609 5.2657403202883755 11.31844058684394 0.36321023051316154 -0.21982829184867947 -0.0018787050799516035
Ni 0.8646389587893626 3.3296067855739464 3.8207128134367503 0.38760202909396474 0.4720789658921225 -0.18207678413151868
Ni 3.830245840168905 2.689511575226502 2.418139160230226 -0.29512998990547235 -0.45350274555183184 0.5350439967604333
Ni 0.974601104484218 3.5939663682812695 8.27973637406059 0.015853679202804956 -0.02973249406742622 -1.131796012053625
Ni 3.5805379232288046 2.6872270306562904 6.968507627155689 0.1501130867407286 0.08353257060701742 -0.15380724776286414
Ni 4.071499143345229 6.839080981837231 5.952876461961269 0.7050008576999665 0.8258481055970421 0.634762433098694
Ni 0.5348793409112527 7.257953128212529 11.223001488855857 1.3210662286097894 0.1174978718088686 -0.37070756733147125
P -0.06949242800325231 5.713897809658198 7.909563702391634 1.1732715055895921 -0.6771866637011758 0.965646440675324
P 8.383460094110175 1.5492540065920568 7.786717264976983 0.1172063087103788 0.18675027834778804 -0.039743084225892844
P 1.722969336627755 3.2430729142747095 10.412610569912065 -0.3730650118200543 0.09713602032306497 -0.7483794817959176
P 4.028884292267817 6.097971125552595 3.7635677192365944 0.17897731927058855 0.7250276944438546 0.15620891522582128
P 6.945905926169528 3.845320236624317 10.340669002198306 0.020785312176467428 0.06683351268478167 1.2280313749392915
P 6.291374912533936 7.727040283782674 10.33454840148953 -1.9520820501818572 -0.41954695743167747 -0.19582627250712725
P 2.491853498553389 8.613272685895518 5.71721399699299 0.1827594120208401 0.12745215480810307 0.0009065709746694064
P 7.02399417797495 3.922482078623709 1.6034040088950452 0.2514646878070379 -0.14998427447234816 -0.017652165864124436
Ni 5.377395187589979 2.940820472219742 0.42787001404474545 -0.09521129249652634 -0.2880499431302394 -0.08713082948123703
Ni 1.5892785079205674 1.236856028020559 6.976550303355229 -1.4413126096980726 0.30406457339094084 -0.38394926283272585
Ni 6.897273908487897 0.5770678635924914 9.144836738898976 -0.528053167264897 0.32336404505050115 -0.29167185615354285
Ni 2.7014739542752477 1.7176177460006843 9.121206992856221 -0.8028760701819011 -0.2378401550450678 0.5180505475262304
Ni 6.338450921512234 1.8935546607168638 2.61143951310701 1.3200388157865395 0.607349845413696 -0.30798422016032123
Ni 3.9846234897874577 6.922349933140456 10.324898449247875 0.9165753941802859 0.08105582693175073 0.12621082620183424
Ni 8.385429839231735 7.094518248742783 0.41707059410201675 -0.8982012625484725 -0.6247184185991305 -0.5257270902348816
Ni 7.273072496017748 3.7385402636418275 8.223328809997273 1.29498264414886 -0.2948762220234535 -0.36298937275160714
Ni 3.0571613541712677 8.259321180102061 12.194979864219313 -0.48338307805103203 0.5937443388151193 0.5857818894349331
Ni 0.04274346913786107 4.933878741520273 10.136811175240755 -0.302849212926601 -0.7575938013053339 0.03308058460405271
Ni 8.41840283291046 2.1675201237430297 5.575582127336826 0.6968885130054773 0.8972952057944353 1.3233701941526177
Ni 3.504653267563941 2.618429859721059 11.464060515801016 0.12732977029762588 1.2977836039327648 -0.7396935239861454
Ni 1.1555388332989711 3.4484031032249507 12.593533954751665 -0.4662965548823905 -0.8343525435236274 -0.16176172672325045
Ni 3.1556486102492887 8.482199189747117 7.874257595084907 -0.426774071307736 -0.43840342801654814 0.5674535234393904
Ni 5.749820923884281 7.759905346221862 3.4470386724717965 -1.1191307578811307 -0.2340179530855002 0.845736359880537
Ni 3.1580680688689218 8.454667729395078 3.4118512895285606 0.47276262222270843 -0.6621557375099821 1.0367626398958598
Ni 3.363227366689895 4.329104029311494 9.193767366343327 -0.5676916075921254 -0.26101145095520856 0.2198815136841181
Ni 7.123911522976845 5.8947545900432985 11.34255692289161 0.7405566433173891 0.971422681037469 0.7117176075985098
Ni 0.7124433190634609 8.989682883782748 0.24965844845531188 -0.3353669830486482 -0.13216704378526917 0.34406091127822036
Ni 4.812537045470173 0.18476029354837492 1.7150876578605245 -0.7044984641422511 0.41793230464638986 -1.620603860664654
Ni 5.9902827313039975 5.507407359882928 0.4324813762539876 -0.04756386582189228 0.787825860716998 0.00046202723808307517
Ni 7.842805532456667 8.799579993877265 11.327194709797432 0.2636185495607524 -0.04466211879406502 0.07384233990244701
Ni -0.06727983759273239 5.087851648990559 5.777874051894085 0.2016863308323301 -1.1174592837159787 0.29633995105317346
Ni 7.931264177527656 8.611455843363302 2.4088714644619342 0.38727472766153304 0.987956417026434 0.7249194510007644
P 8.487604745993956 1.4778125202881554 3.541951605667132 0.1682141672168135 0.03517474812892007 -0.917639316668426
P 1.8433846228718227 3.2024008255089735 1.6754112347795227 -0.2683493793775185 -0.221514935522483 0.25241599597671366
P 4.604535558341378 1.1700106136669652 8.213231842538535 0.9166772098654729 -0.4394874051093463 -0.24155745599565495
P 8.49765134554091 1.5289719278289575 12.379249970054788 -0.06619947864520857 1.6286403578158852 -0.5400401644234442
P 6.408633210021531 7.538439436960756 1.287586408884199 -0.9140145754316452 0.5745315133320944 -0.28577605949439816
P 1.6950781054772577 3.3928095205931474 5.996238736872478 -0.653957517969906 -1.012266197416392 -0.13280107782484227
P 6.884708913351734 3.906733111921187 6.029872809393369 -0.7121634368866767 -0.10765774578999525 -0.3760140671460492
P 2.320332770388288 8.383604002429557 10.013477248394192 -0.2130904589042137 0.24672125958478153 0.7166965488703398
