# total energy = -340891.3467607895 ev
CRYSTAL
PRIMVEC
9.08281955945212 0.00000000000000 0.00000000000000

0.00000000000000 9.08281955945212 0.00000000000000

0.00000000000000 0.00000000000000 13.29362453072790

PRIMCOORD
 96 1
Ni 6.383369073076054 2.179013764273432 11.647182572923729 0.5660774690274704 -0.29829038991132495 -0.637811761447979
Ni 4.716253921756443 0.3498384095856178 6.048439203090188 -0.2768957262856328 -0.45689223084935504 0.22596602931530116
Ni 2.7106584263864213 1.357981396428941 4.743244427589647 1.3260472267641485 0.6297495532651348 -0.5816820083339467
Ni 3.4394184329576842 4.342123511951783 4.680153348164892 0.8558490228345067 -0.3303546174357214 0.26576053560441976
Ni 4.984950965121529 4.449264448419841 2.4711254075131373 0.4209366386903525 0.5933833559312749 0.21748421709653515
Ni 7.139995169261084 6.233429892064296 2.5408769183309095 0.07735061016602163 -0.6492500851919076 0.502315910399793
Ni 5.240568748693973 4.38342309131091 11.731077849956154 -0.7222509030296658 0.6088135744434161 0.24871000788003617
Ni 5.787745031810725 7.916994029137014 12.548782272808962 -0.23947691931754245 0.6149487408068763 -0.24859379401714607
Ni 1.9609625213276314 6.386048504769686 0.2995795372685314 -0.4083827132847419 0.6130993463029635 0.89081036940104
Ni 2.795419296098181 1.3618688430895316 0.6646216780811653 0.20516914717460796 0.22119971827490936 -1.454878007087333
Ni 0.4047540433580427 0.2872759502441476 4.697275370828162 -0.02555856519539469 -0.438363061696916 0.5286841159806767
Ni 8.605562560303806 2.4940786001672928 1.3995661763141014 0.5723067377666338 0.3177065896544076 0.5115826804136996
Ni 6.96546879640302 0.7338763586832039 5.052667016134072 -0.4892436505968672 1.030365221009948 -1.6545527068062729
Ni 0.4205917553722299 7.417547961444105 2.3380693710170473 2.0879892777358493 -0.4667984342194735 0.22420945163551065
Ni 7.756437032363035 4.114090250594793 3.95854878663852 -0.4747266879276147 -0.925972776234786 -1.4714335974531692
Ni 7.921144877557319 4.009964810134483 12.80245088335953 -1.2497710806092284 0.14689457980343087 -0.8797024324133366
Ni 7.778235798684105 8.85525834569236 6.964130897120064 0.32471413132049237 -2.276204827775254 0.7881349073169847
Ni 7.076397268519364 0.8765692664570663 0.4018148430324185 -0.9300513171795337 -0.6786923017124246 -0.6566538338551465
Ni 1.8804160797712786 6.533435413558019 9.284359794467175 0.09223086971196374 -0.5857669770365976 0.1357601604531662
Ni 9.099895000730564 5.13371846244353 1.424943573439547 -0.13116945575869024 -0.8778232131127528 -0.04264405992277172
Ni 6.357283216045174 1.8837676400931431 7.333148587940503 0.06651135345867255 0.10843473316533583 -0.6216192108485166
Ni 3.3872558017152246 3.974796133803157 0.30693662090189244 -0.8755655274268276 1.669806804751866 -0.05801205773840977
Ni 5.857264930736337 5.633164530136439 4.685111659221005 -0.27936809908552535 0.5487436057347129 0.44630417092086366
Ni 5.015460155151726 2.6644450417857537 9.633835799562705 0.8996979016986569 -0.4003575289874202 -0.8367300426168687
P -0.021280137339014293 5.834367143279914 12.403668793691532 1.1475617595283139 -0.5631484683061334 0.9793373078988553
P 4.006994728223237 6.190368245760883 12.81587801513138 -0.1261393495339505 -1.4113379177128533 -1.1441517054055004
P 2.3213052114342143 8.351252702710626 1.26972545785037 -0.5032494779576558 0.48989773924109825 0.8020054946514897
P 6.252485646956632 7.602610404690687 5.849500028516386 -0.39164200349129324 0.2739117039566444 0.06246238020027952
P 4.8319599568248215 0.9477104486278075 12.880206174544858 -0.06564797701711275 -0.47501362304041417 -0.8749836867814286
P 3.894858241139934 6.044053109650003 8.18447215815198 1.7726905261919859 1.297901617567868 1.5461814798890208
P 4.822441162197954 1.1564245533327497 3.9287843877909596 -1.099348690158197 -0.12992272783578268 0.3738278581280078
P 0.03072081971989758 5.747326485923741 3.663616019724097 0.962617166930697 0.6687110221299967 0.037931484938450805
Ni 1.370860834196973 1.0494925217086022 2.613951832730716 0.04454976158591682 0.17787071646997107 -0.5548553750594056
Ni 2.0170125992306818 6.431053874403394 4.67074173080577 -0.8901711931551443 0.6930231165127999 -0.11580865703190377
Ni 6.13631638810393 5.537676850830853 9.183647677499975 -1.4068300025401705 0.8455029037134922 -0.34925968187034045
Ni 8.797773182339837 2.349253046421686 9.88983142841805 0.6415480885619596 -0.2891364913261988 1.3334892848644904
Ni 2.4472021697576927 5.399372761342966 6.903285998908308 -1.4513964762966358 -1.4877500752250055 -0.1872285035357872
Ni 0.7049702862595354 9.120331344156567 8.993282684345791 -0.4777819298141707 -0.1385516071553743 0.08844517741728639
Ni 1.4593274941833143 0.9519157939639138 11.506283521961704 0.22455835033449714 0.640981160314896 -0.9389007971503636
Ni 4.209550681442478 6.9082288691716105 1.6526098888967993 -0.4950952242816377 0.07662787306738417 -0.534987175380569
Ni 5.701612656384598 7.653274370748573 8.052080984028684 -0.8980863342371631 0.9117540615322427 0.26336658145094644
Ni 5.345284572408811 2.924840388310232 5.231040871247806 -0.42384044260070874 -1.0186147653422395 -1.2929309038261538
Ni 0.9807264967849277 7.501909187106645 7.030971364352045 -1.845270197331925 0.1136533012517978 -0.20541288775429783
Ni 5.057858755646207 4.530728254725538 7.027940427551485 -0.06479848453262388 0.6706208375581999 0.39450081309632706
Ni 8.184146993221026 6.988203093112036 9.17011518502424 0.49074260373989675 1.2301065123007655 -0.35497832952167246
Ni 4.596932924606488 0.45091202276097786 10.75856948807427 0.3992666099160866 -0.5935790168818487 -1.295306346036866
Ni 7.957276332734491 7.6034460240663275 4.5410754024726065 0.34915040998598573 -1.250530584483072 -0.2814779463396765
Ni 7.330461889991432 5.994951388511793 7.024124735163369 0.18375211495141258 0.05264128034479966 -0.4347244365030642
Ni 2.3714514567919753 5.063717174094995 2.5299493784305436 -0.4517322839149704 0.49993481176212606 -0.4036958493320338
Ni 2.0939349958861566 5.076814599526237 11.62807958737103 0.2622892892263676 -0.33964889825345373 -0.5531211659771184
Ni 1.3012955211748591 3.2609773649811276 3.946039927897946 -0.9218160737539349 0.09987861606520863 -1.081147850879454
Ni 3.5294019237672 2.6176685223884584 2.6376407337482086 0.431455021723173 -0.502947887556837 0.7153726878525938
Ni 1.154925888148176 3.3402158805582163 8.163349153586864 -0.5416131653375188 0.8016892489626516 -2.2683711906634483
Ni 3.884276756654915 2.4951140415675437 7.194881738011747 -1.1353546759391608 -0.06687850699010417 -0.26862114498166645
Ni 4.011100162547039 6.997576562630095 6.109948963674737 0.8276455638170973 0.1904963756537816 -0.9388717436846412
Ni 1.0353051579613062 7.433679048521697 11.411978425729036 -0.15946007517326732 -0.14688583805268252 0.5316072031647425
P 0.3473415425599253 5.62360032141307 7.847997300603109 -0.5265387875028996 -0.593823528792487 1.451278462661533
P 8.586679378978179 1.5113811315941688 7.63383713744562 0.4246734800249654 1.574121915053031 1.9211848463823686
P 1.6542902104673818 3.43443196516174 10.168931024727934 1.9325205831101622 -0.415951012550303 2.026643527638516
P 3.9751503637558745 6.173964674104279 3.627643513884681 0.003972097273870578 0.32090349932515055 0.9294496790397929
P 6.830298279573786 4.001054564400746 10.352928053270576 0.9217697938970318 -1.067691211153916 0.7560112873095625
P 6.376002906623393 7.810606966670894 10.279720529708982 -0.15905641197694545 0.9219667403991865 -0.6076743186326502
P 2.249596353057196 8.49359864678721 5.704253940237168 1.4968137280891705 -0.012601490814094427 -0.9121027031209129
P 6.849426697020525 3.839707362347628 1.5320499951942632 0.44995076653451543 1.6640614176276565 0.017215078326705838
Ni 5.24396572311234 2.745763522982644 0.4984869219747825 0.5149999336253647 0.5484911234042747 0.48982369147005317
Ni 1.5101367853500076 1.2507677974064795 6.7081625167226235 -0.34611625114535227 0.06406494880070902 1.7189079331538915
Ni 7.16965965709634 0.7661121926624158 9.447432732187378 -1.9441072595064968 -0.6309895963198229 -1.3696171409352993
Ni 2.6459433388707456 1.6114919659236815 9.122483972330773 0.36115000555002313 -0.5488873304014289 1.1398690188697465
Ni 6.254374873371124 1.9429058765583451 2.616930089179332 1.4899637950468727 0.6581671851758794 0.4250774003316034
Ni 4.230468414291404 6.73031460471448 10.63668077790808 0.2659112022496711 0.7921743674936809 -0.2400621023970511
Ni 8.201295356060266 7.570965862247934 0.291461313377793 -1.1109291959069447 -1.302310288158525 -0.44718168842981054
Ni 7.610330801096066 3.7010127116298217 8.328800881681854 0.19196730377235327 0.39409432168652775 -1.265631701790569
Ni 3.3033305513791063 8.358718780175591 12.452230995363294 -0.5692427541293293 -0.25048586883353635 0.9277347532312151
Ni -0.005695835983309514 4.928219675770945 10.190134866384826 -0.36853755626334594 -0.42447524797123026 -0.1228287971034788
Ni 8.685445956051225 2.5939351155563934 5.6538315771726735 -0.4197714147376577 -0.48676922091444563 0.9094822347789304
Ni 3.443687358028894 2.5366134429512806 11.620887811048936 -0.3047232900208623 0.26365531633595884 -0.265611154510749
Ni 1.093135468447244 3.027112933633251 12.828081691143458 0.8300865691584219 0.3762845471986165 -0.7514360092340542
Ni 2.950245033893579 8.250923880717902 8.045780232279965 1.7297397336620726 1.1357825075051988 0.12366209163805154
Ni 5.447293715972118 8.13431864653878 3.7797498555815254 0.8801063527199746 -0.9085854339962739 0.01805968571518825
Ni 3.078939500561594 8.379336779987604 3.374467192140197 -0.9140135469903806 -0.26190979439976186 0.6140213438966006
Ni 3.655162639801172 4.546632271320619 9.71625693502267 -0.6662072818715365 -0.42207023807416344 -0.1649946318382513
Ni 7.215627805575896 6.21292996890319 11.344246933923683 -0.1588808056310296 -1.1766208816777997 1.0495734185072827
Ni 0.5027222406145804 0.24575293353022995 0.24693460832121794 0.49035950936886524 0.5891824304760498 0.5761993879528207
Ni 4.653809539065879 0.18063638540147448 1.7197964115441264 0.013569768264634696 1.3521464949543616 -0.38670625675257275
Ni 5.934459811970824 5.788971212416285 0.43172729183457637 1.0355485649831004 -0.9266669740883332 -0.04912555388205733
Ni 8.333968097581877 8.833586738841495 11.128983208221188 -0.8688608617131424 0.2866124393527645 1.254607582765923
Ni 0.2863358784465515 4.911797938475739 5.799901477162442 -0.3658720936160409 0.20293434430681823 -0.404827906053948
Ni 8.142411438535477 9.137952013599431 2.4335970147275554 -1.6022682955802598 0.4312020251721025 0.3010080459528042
P 8.468584562433783 1.8693804543212371 3.5368089629067136 -0.31317142078821547 0.10597033078524329 0.7790224034927552
P 1.7373889242471598 3.2314854507125803 1.5665338269503353 -0.45728483830208344 -0.39438177101995947 0.36144516819293876
P 4.768434718637503 0.7301978168665234 8.339383274448803 -0.26892067849995616 0.7923867406148031 0.24555860673524807
P 8.50397122642832 1.831314358633069 12.192008222405525 -0.4206964976550884 -1.3499410026626106 0.21722299301534848
P 6.307009811217207 7.930118703026159 1.538139117253282 1.261349786585763 -0.3260503336334126 -0.4455395248406972
P 2.0063857006491603 3.3876826942223457 5.9648754489622275 0.3359408532742472 -1.1491021074322403 0.8999547549044695
P 6.9271937958709415 4.079620951349601 5.99038636353139 1.0589651441348278 0.10526533429841871 0.9532141284492422
P 2.535151109043909 8.550611503536109 10.34878083797799 0.314866034881819 0.0302081481522641 -1.5639897117150354
