# total energy = -381163.9347818126 ev
CRYSTAL
PRIMVEC
9.31880283878495 0.00000000000000 0.00000000000000

0.00000000000000 9.31880283878495 0.00000000000000

0.00000000000000 0.00000000000000 13.63900991358708

PRIMCOORD
 96 1
Ni 8.38752815347856 8.519957658668833 12.731170261586303 0.31826014816503256 0.6462370093971966 -0.2711171719306427
Ni 5.24251611096426 0.9782506323871778 9.72209066219775 -1.3409516546798068 -0.08990119313752258 -0.8948827396982008
Ni 2.4952771617612584 0.8407507666470464 5.337367544260946 -0.7526778520609554 -0.6582890554657244 -1.6104701146647618
Ni 3.5314161965298294 6.3036295369727116 2.0215875103623473 -0.7983180184975736 0.3873348914755071 3.3732143282773133
Ni 3.308407929081483 6.202203688370154 13.61139081707533 0.1377206266136467 1.4178410089386937 -3.0876591265444695
Ni 6.678608838876267 8.566784642243608 2.6571792442554005 1.0246098065834097 1.1772166062802694 0.8756161781591048
Ni 8.842071392847075 7.546301196013468 8.294699832248357 0.6361379732899818 1.293888896864049 -0.24935098389814478
Ni 5.004765497642224 0.42869381255497047 12.162750321325825 1.9527621069680174 -0.15307679735474283 -0.9494939992851777
Ni 5.4909460721821555 3.466370953673724 11.782467688804875 -0.2915677264755107 -2.2461239492294736 2.009225846382701
Ni 2.1408830950252007 8.497583213382656 8.544048627412616 0.23474197573571828 -0.25688663015355756 0.07026362141225319
Ni 4.251060735149131 3.935246511597067 7.4574827555856995 1.8818917052097008 -1.1129634527281542 1.5797341190334857
Ni 1.854544244417816 2.018014681406612 7.041111195842854 3.535794951357433 -0.02090358292188658 -2.0950225304335466
Ni 0.9100453835350117 5.253400472519551 10.990573540960979 -1.3160134966772303 -1.3742181300424205 0.6923286615489368
Ni 0.8543552867108899 6.927979999167008 12.55297611632922 0.32394871390937763 1.3085326149191527 0.7950576025787469
Ni 8.5158760230856 6.780798829300343 3.810998915178664 1.1986215543186067 2.2306060560995324 0.5633783249287523
Ni 1.6324212632261077 8.004618550476073 1.7641108554818865 -1.815121184552371 -0.7104307704662861 -1.6807602184395765
Ni 3.089099226305612 7.814505656563837 5.504459267979525 -0.711368194678891 0.2518436684130114 0.5268989990557957
Ni 3.1767891597262357 0.1392396862044918 10.658272491669514 -1.7100569105211645 -0.03905248591677145 -0.1637011098378084
Ni 1.371019528647797 3.1145488764832665 3.7741048434033626 0.4480761752196219 0.6849889333544138 1.0804348839728295
Ni 6.0591600669029315 7.651081813588547 12.77286444863312 -0.7253971619681313 -0.603366949506548 -0.7322208697581841
Ni 6.022173738980885 2.2905710228185554 7.731244950067211 0.11688132127079225 1.2151871719867717 0.7565216512870777
Ni 4.8063588693257 5.54137943240239 11.74155068990336 -0.8486522479757513 2.2148004565258437 -1.2675343181299203
Ni 3.9122849817407 5.822015175756489 8.88046858749812 -1.277255402072426 0.7216441226836023 -0.47555946824155515
Ni 3.097085440220753 8.55893821036899 3.2306453161787125 3.0190530953402974 1.6056672939594798 0.3553997333298073
P 5.282698788212903 5.167695444074336 2.2533144496181676 1.1360822981338048 -0.7036993652797235 0.6904206458929464
Ni 7.746180195156821 5.252822706752061 2.6036464502566643 -2.648893430092496 -0.021380522558305113 -4.437387498975642
P 3.3704152422569167 2.3681593741108093 9.312033523165407 2.331418239722604 -1.1549881338993722 1.172033776527749
Ni 8.839014825561 5.155431899719231 0.5095316303492191 0.1267651560434075 -0.16071065975091678 -0.08052258013610003
P 2.1826779251411934 6.61304174306888 3.7376748480025928 0.0739248723139243 0.547281933587522 -0.22755908483403392
P 7.1725892512773095 2.228041856691841 12.504626440393027 -1.509173278095788 -1.6906545947351528 1.564450453401538
P 4.1390860018885345 7.80558756237855 7.710746379764837 -0.3209050419870473 0.09526708543512626 -0.4111821304067499
Ni 0.16704792534588203 3.1501467028027967 1.641782000539712 -0.5571647399188727 1.1440550319266363 0.7395868232049521
Ni 6.307916186215377 8.331205309951008 8.080090601674826 -1.0465037784430233 -1.413291184784482 0.2991193135705235
Ni 7.533981738842155 7.168871048999432 0.8642360132152349 0.5077877321476416 0.10489612388445804 0.7041925028660582
Ni 8.6703724530729 3.8659891699199074 3.821841342121799 -0.5615338155208458 -2.122438460552654 2.386830655054638
Ni 9.303985805152436 7.562348174265361 5.9873204849972 0.054809234530395934 0.1301520702377694 0.24484949648336538
Ni 1.8197478351306102 6.535714318252268 7.096731401646715 0.49268147263382245 -0.6812513206888525 1.3033011913168846
Ni 5.845815397855987 5.03705514900274 0.08050327277726672 0.1750694995757501 0.5052875914336071 1.378756384232406
Ni 4.310710391241098 0.8316332500839498 6.508057975594911 1.7152651941949815 -0.66437074288343 1.0403333879662533
Ni 0.93970806441399 8.858724093274562 4.171941304573029 0.3495041937809787 -2.4804650899823475 -1.5781024969673338
Ni 7.930049491259086 9.164259677446928 4.659822560605974 -1.015590890914251 -1.5371589646754364 -0.21872631703375234
Ni 1.37798999306848 1.6688764193941712 9.101611230645638 -0.16476708920847752 -2.6303691460360636 3.0548315384914875
Ni 2.8933391379562994 3.8944674309755314 11.04188286863515 1.043835744692557 -0.19248512394903625 -0.9467375195859631
Ni 5.501075610718629 4.334641076578416 9.715557249623767 0.056885657443450414 -0.6837638026980611 -0.195681776509463
Ni 6.098476095500339 5.593723147176422 7.963558973893222 2.2274726526768736 0.5369550977402172 -0.8187726868074996
Ni 3.3622053770769416 2.1530534513532915 3.7000175662860424 1.1871078972520523 0.7137027563493387 0.7435848886207517
Ni 7.15939382665206 2.914008242348111 5.648336922288527 0.8433943420109218 0.8509490144297279 0.5183413392937719
Ni 0.8480911875349766 5.203926948977565 2.5826148444397665 0.3733275214528215 1.582346102735036 0.24045625251167618
Ni 2.003626450035577 2.437016007271807 0.5657118961954372 0.9803948026290921 0.43813680461872284 -1.0954917783059521
Ni 8.531680712467253 3.6783643963289587 12.027942657686141 -0.5632148027676945 2.057925111360617 0.13934479248063097
Ni 8.10856047580802 5.23343959713305 5.654038165781273 0.5274708123988658 -0.3089316716752551 2.4548571596062563
Ni 0.05491197679855094 3.3517030864324098 9.641470904386717 -1.9903503496344366 1.1730113099496702 0.14433736059921595
Ni 3.7268128515737855 0.519591277865432 0.7769411970291531 -0.1860535093910796 0.6026555252618201 1.3153272692434832
Ni 6.593369750566124 0.5346215747425971 0.2576695540963807 0.3945190679287721 0.40948134566555927 0.627578513755745
Ni 3.7684678996492567 4.8851213897583365 4.088880020454215 -0.3932666835789098 0.3342230992521922 0.17465272375330568
Ni 2.088837581937615 3.769166809851866 8.458408830586311 -0.6319596735425762 3.2335525187768956 0.3416394463209213
P 8.044978284976041 0.25546379349694803 8.991899102680952 0.3332795043920002 0.2593770006755791 0.24322173107195533
Ni 6.8332170944959865 8.525138912970837 10.513194575572566 2.1052956302247807 1.4996465695522754 0.7158545125850186
P 2.6448625827248975 4.349551160900732 6.353992074292415 -1.0909956902078115 0.32127168129784667 -1.660703042678385
Ni 4.560649998496627 6.010972538133744 6.20243479467715 -0.402026689159727 0.19885528914143816 0.2298576510602235
P 4.696881575189092 0.9720163533799092 2.703388391211069 1.77744938103321 -2.2946676624661317 -0.05914899955633038
P 3.7245017885038263 3.9795760560478537 13.117563233038593 -0.21796012829168915 -0.6024503512295496 0.6098340452881303
P 7.825287511289411 4.075298797397125 7.856056334049051 -1.323107170299218 0.40469935089588366 0.6025336549719752
Ni 1.6353380484716609 1.3171009362172204 2.4440423845086987 -0.9061266880431361 -2.1374444470431833 -0.14030149996694546
Ni 9.062675409198448 1.203197210797425 0.6206611482047939 -0.6556973834791481 -0.3608013639613528 -0.9848039874403814
Ni 5.330010349528153 8.259040501830997 4.7842369635927335 0.4447136865052922 0.24633173745584672 0.11670160115981836
Ni 1.6172036584146434 4.785475432471756 13.054578377459777 -0.16278091201638417 -1.636173432968137 1.4297878968879245
Ni 6.86703502949954 2.380413599663213 10.331945726789948 1.2608167969004285 0.06013656028058031 -1.4435862362235976
Ni 0.41136456705135827 8.724952680495281 10.5215274489482 0.23744986158518458 -0.4980293672092972 -0.39416194169966956
Ni 2.773704348875114 6.593397706974229 10.81183424574586 -0.31870726300478014 1.1653784759947605 0.9308319040993002
Ni 0.16121249109423547 1.3066731959943005 5.026643250744413 -0.154254876823244 3.593424428945444 1.227824144024492
Ni 7.0839022059676315 3.1976819153828813 0.9456842125864284 0.7542063728903399 -0.6980485947518494 -0.4347390917910835
Ni 6.298355094643692 5.59003290130665 4.379745013533693 -1.9053905596625897 0.45449107760703017 -0.21539159623356452
Ni 7.149702271842554 0.5482661656580569 6.7757098311450825 0.832963633595901 0.9124197201406996 -0.8622204735784893
Ni 4.757239460286369 3.134798634753512 5.346055464019505 0.22260276927002307 -0.13274682754813913 0.40777824693152354
Ni 1.1765361162685828 5.373342782089885 5.173658545922993 -0.4658710373091977 -0.5220864081585009 -0.7881734738644038
Ni 1.5182193361198657 0.3892445250789318 12.956581848251352 -0.1811450163458687 -1.708544587641696 -0.7412405567582911
Ni 7.869505230107781 1.5258327979269484 2.96060598337643 1.056636238891335 0.44805792038717673 -0.9832029615018487
Ni 1.1236239545297626 2.608957235916219 11.972868533720586 1.5300580919645972 0.13176929412621824 -0.1841966586879989
Ni 2.7688772090757636 4.086071333319999 2.0406686907738316 -0.31452536371294865 -0.3863247050434379 -0.698005657329056
Ni 4.720281088772428 7.769402651488829 10.118426796132487 -0.5791101338417124 -0.11454778804160919 -0.6742563774282582
Ni 9.320200521852957 3.0258152371600806 6.864759377879847 -1.2788533426871653 1.0058389537338097 -0.7003816137604002
Ni 8.457307348107 5.911783202179535 9.744554567989862 -1.7475384524063902 -1.1083953737414973 -0.06283210483487243
Ni 0.2000700345987322 0.5790825143114744 7.422622046559854 -0.8333616403652679 -1.3355294552229708 -0.3767159783090802
Ni 4.632740256195027 2.8548618016020217 1.6829170594244425 0.4379066908857877 0.11369495312301066 -1.7998830274463775
Ni 8.771714432451144 1.3715227439936752 11.321455336601016 -0.437827243798104 -1.5295983787193592 -0.33473860543602996
Ni 7.937998429963422 6.032033032239017 12.25707803791069 -0.738266818841948 0.5844420875775871 -0.9022286385403108
Ni 3.260742253263578 1.7324679290288505 12.360447788756769 0.49873744901991524 2.2676178574371915 -0.3337631288966381
P 3.6286113087059295 8.369654689897182 12.947784898501185 -0.9751183847215013 -1.72626720173244 -0.8279152725387161
Ni 6.30246468663503 3.409162823889537 3.248212191151212 -0.3373369622908255 0.17567422303928454 0.6199878458926806
P 6.397879907495154 6.463950218648418 10.58820907355868 0.7186259046825687 -1.5040547259223 -0.12201632850451247
Ni 5.109872273311853 7.771005485553478 1.3764486631016606 -0.4285149652582427 0.28339316108451845 -1.4103570418568228
P 9.009092293665123 9.062246744274182 2.1314636492545773 -0.7400815034531835 -0.8607991677509303 0.7709771645907755
P 1.5055364456431952 5.90589371887222 9.166819552549017 -0.04400443060540808 0.9285148259303493 -1.37613283056663
P 7.15560107395257 7.319761102341275 5.534928025292178 -0.3930129156968909 -0.4074419466380273 0.5707442783755202
Ni 6.110432119366297 1.3538636128744317 4.469421715690265 -1.828587594469922 -1.3955785979960675 -0.43380269601974325
