# total energy = -340860.8780379462 ev
CRYSTAL
PRIMVEC
9.36725551044767 0.00000000000000 0.00000000000000

0.00000000000000 9.36725551044767 0.00000000000000

0.00000000000000 0.00000000000000 13.70992529623983

PRIMCOORD
 96 1
Ni 9.190982216174973 3.1272206878450173 0.40296245872005215 -0.8468948989650124 1.6415205562126634 -1.9834983597096096
Ni 0.23331022588905018 2.96470817694651 10.717294959968102 -1.1174343440153143 0.6196111792795522 -0.640335042090465
Ni 0.3928317721942158 5.290026246745038 1.2074457555810292 0.495573963690269 0.9804295125217696 -1.172945489708741
Ni 8.814512228682263 5.78509505264146 10.518610793018262 1.8942695100487632 -1.5538526232810337 0.47164213546502
Ni 7.2148285848882825 3.037042121793952 6.774937595894717 1.6772408924324083 0.28643966122032605 2.2401299364295677
Ni 4.348682667419213 7.217591925179658 12.029074140970694 1.1355837612308313 0.07026696384636287 0.42727775041703187
Ni 8.069674929466467 6.337051199519301 13.610198441987384 0.8013359793882908 1.0639003766529163 2.534485767173177
Ni 2.9570644966829107 2.6401608851659693 2.8030078070760096 2.314553602756781 -1.6991065821572477 -0.9467287778352148
Ni 6.546587331647304 1.4650480844450695 2.1449318992051993 1.4208949652736689 -0.33790414764820514 -0.11641389471607048
Ni 4.405523172124506 5.908059011980022 5.920206468555801 0.04550878306507646 0.6246960500016273 -0.750707872818778
Ni 6.871977676398094 3.9166461219318087 4.812196937364703 1.7658765885939458 -0.21858130681545584 -0.10639173459337807
Ni 0.7456803521860457 9.233668798235295 4.909798116456058 1.4428781544129796 0.07228270872481099 -0.13456536881411663
Ni 4.755230911439394 0.29633780267045595 13.035451763147119 -1.1737116784508044 0.4689874714509923 -0.5911184711564981
Ni 5.426282341247873 4.9818248153321205 8.058584099280068 2.9010170916397713 -0.8579745538179417 -0.3456935617856369
Ni 3.7886894155583226 0.07349923139743218 3.580223960702537 -1.5739676488633538 -0.3319440734100283 0.7345487465604122
Ni 2.6971137969339636 6.5241433881282065 2.0549116397674365 -0.9964927366322193 0.5899771584632032 -0.571641593378809
Ni 6.894730739339617 9.222690375111595 13.450217900176193 0.1438262252907523 -1.3702809997715433 -0.6966067200990003
Ni 3.7527378900047763 3.9367388843894315 9.596138486068721 0.972838587548389 -2.989354025613968 0.18989293774182778
Ni 2.3568482508858746 3.988193217340351 0.5527064640213637 -0.2105442954435922 0.8840015740093227 -0.21071321692128872
Ni 3.1789466711974623 8.954992955291573 10.728825114424556 0.4323988736936811 -1.3285985324310925 -1.8423501954716528
Ni 9.359218120015955 7.124762425899918 5.845213159949981 -0.23816514248465434 -0.751013576984655 -0.37334191963052477
Ni 6.188271084780642 0.24930668763678102 9.075874573793618 2.221570685370142 -1.7486923635051752 -0.44996953558759284
Ni 4.980494665090172 2.1806595473588684 4.225399284677478 0.6041601348318046 0.5220231590207333 -0.4656203547509723
Ni 1.5190128417962885 7.639464998747938 0.04175266671438806 0.166673562202571 -0.20019200567499068 -0.8615432450058066
P 5.634937951384726 3.6688353849544604 12.86303525329922 -0.48788070881106943 0.8830217265945567 -0.5641697104817961
P 5.515374305692839 4.23519837036835 3.4235191480435287 -2.0355534285336363 1.334398169832005 -2.6469105953345125
P 6.369471269853023 8.699351192946125 11.130868645407034 -0.8548190389080955 -0.26346916846708174 1.0216365828876988
P 4.528271684592894 3.0340820691428525 6.359719020438277 0.17376209361823622 -0.03345082345927788 -0.1431302276649922
P 7.191298039763086 7.47165062139208 1.5907763208005286 -0.2934562017474752 2.478706712530344 -1.0403647554248212
P 8.115593214579413 1.3903254895152521 0.6467480861272187 -1.1247787001955276 1.3785887483062904 -0.7373401932626205
P 4.315953477663067 8.122777899336986 5.328170646746757 -0.0215764406191951 -0.2865512470975259 -1.1318474341168507
P 1.899801133947723 1.749653399946214 4.398746899694743 0.4496507187955934 -0.34751878791983376 0.10406077246735626
Ni 7.15991773475934 3.850119875323866 9.472941282075057 0.8889522331463787 0.1436213083687978 -0.3278709317819192
Ni 8.259633498174223 8.28106577812902 3.6539414491467115 0.6389219637930222 0.3666655360516136 -1.0155924335761477
Ni 5.314296805033011 7.418566386032012 7.38852559852544 0.8497897040143042 0.9255863394296447 -0.6326075915392202
Ni 8.61136456461771 3.454587523448283 2.5266428659962967 -1.0202309607894235 1.990296613578366 2.3871517858394826
Ni 3.43282738956061 4.24010681210625 4.703806553705195 -0.10408159840296267 -1.0650494026556947 -0.6758162657162103
Ni 1.0563828407440377 1.8143811335509572 6.611515524513862 -0.506850565045353 -0.5275546303619237 0.05781279724341011
Ni 2.5050007595244588 3.474183821378981 11.808920225045156 -0.43741920972640796 0.8251266540499854 1.1561795831043118
Ni 5.837448642093979 1.2531139349794669 6.292677574792959 0.0061068842286862565 -0.2668216298790824 0.06671138528462059
Ni 0.950289308065699 0.626076427296691 9.983348031676892 0.9304763205320944 0.13481116627633558 0.16646401729492621
Ni 2.764876521231606 1.334655891713083 8.252977126611338 0.5930043753253013 -1.4808052684760562 1.4275608073296189
Ni 3.2880189910373505 1.073215798383361 5.849874306149941 0.6208177979931437 -0.2657173410713101 0.24921240143775142
Ni 5.050243247495513 7.351749754512094 9.623078712095817 -1.0750846754045098 -0.39724675127258036 2.0720268408693214
Ni 4.947381417869799 7.973538789092303 0.8354842280281112 0.10534401005515408 0.21073995639416612 0.5989343676564911
Ni 7.097850301638496 6.522363609635456 4.557590256721618 -0.6788565952044309 -1.4965579033246226 1.5644291132452992
Ni 0.7515892167819751 1.928118346492895 2.430317507066587 1.7468306277060883 -2.7224742888034403 -2.142742462217329
Ni 8.997913718732518 4.65195692258378 5.765736682993477 0.8329163252977333 -0.1970578309213832 -0.8077657941740346
Ni 3.3914334887213395 5.633495394080076 8.00822760864152 -1.8259239315948297 1.6548445270150791 -0.05362318464209474
Ni 8.314394472219567 0.8865217181215183 5.875127489511016 -1.7798960428014894 -0.8200302133636845 0.774145535016428
Ni 4.218805673724602 2.5921537021378493 0.2894753514926217 -4.62798569031461e-06 -0.9288891785506326 -0.055559225322543024
Ni 4.4562000228917515 6.25375756605861 3.4804430213203252 -0.9923578885282394 0.380142487492126 2.879604944512583
Ni 2.4996426895357593 0.9109543299248831 12.349859543052874 -1.1380679611052658 -0.10353523898118944 3.1711652147889255
Ni 7.627175159892739 4.4708691445741 12.46392554665321 -0.19017215954514347 -0.4671882134587244 -1.023910980744172
Ni 9.397792477032501 5.3534331973630565 8.107089620286159 -0.5614674810592847 -0.4946247124031223 -0.1258768399011832
Ni 2.785531319002729 9.50467285914974 1.1917228176858685 -0.6369746102586643 0.5369646108219139 -0.49471187280029
P 1.4919133724303664 1.985745700637089 0.2606260788506698 2.7356547920494565 -1.094772126531108 -0.15726872394890334
P 7.155074863808015 1.7899138629032598 10.03410169393698 0.13709636276608647 1.9242714557274927 1.9615866472381829
P 3.3703852662307665 5.833242744497955 10.152254630991983 1.2905438916512162 2.3086560063254242 1.485073556834107
P 0.09044178592288789 2.9935967920604067 8.187512190020387 1.0638371275151484 3.1217910352311717 0.09051234435896026
P 2.866754789058695 1.8464265136756788 10.592027592569714 0.09485622314995276 0.4899368200091498 -3.662963770597162
P 0.9851917010340453 8.645339599318781 7.562202940926624 -1.4178692910734678 1.2435554387168195 0.36064144134472087
P 7.188637739279186 1.6056131163514045 4.110030295875346 0.6428089575522542 0.0498644889306109 2.04973357668876
P 1.1331100282920046 8.319930520057541 2.0525539016273044 1.2801311809583245 -0.45588564396171166 1.8968300716870883
Ni 7.33368031918307 6.853393042031696 11.696265866807227 -2.240292173039045 1.3141265640671627 -1.0963919215227182
Ni 4.998208144720644 1.542084391415461 11.068515511001827 0.4913285581503538 0.27679262504886526 -0.7119122401078191
Ni 2.658530072662192 3.454812337573683 7.346298948696667 -0.18554006008977075 0.20565637122367164 -0.09315723818097504
Ni 8.531677324418643 1.2279815892107944 8.467345825709918 -0.6367231563694905 -1.0920223317001128 -0.06178026653159038
Ni 8.910873183181828 8.925139512889501 0.8343339290864813 0.3807842348411829 -2.3289003583967567 0.47083738017553756
Ni 5.735120746016091 5.083169149611385 10.934281806902069 -0.7261111573160204 0.019876170098636736 0.3346758705188946
Ni 5.781507393890285 8.217949212422976 3.099485181849318 0.6949015644824355 0.5020217761981418 0.1557574295106995
Ni 2.8353651167997236 8.113551152940362 6.918946967547285 1.5876634011828916 -0.38805531458129944 -0.08680172827659244
Ni 1.5132894488538142 4.765263241785369 9.970200152243082 -0.17818824771038988 -0.0008852308184307335 -0.8539921721314261
Ni 7.843446348527516 5.7363197546848905 2.4370628675541086 0.2713477998842101 -0.9906442482712423 1.116740146161767
Ni 9.297441071807086 2.398691779975945 4.472040051477225 -1.2113616275930945 1.2939133223440813 1.354212376344455
Ni 8.632141136706757 8.258631201865148 10.062454502052008 0.1023371049080302 0.10057358524970421 0.5967209049449401
Ni 6.8021073196748265 3.6356378324370637 1.2440333177643528 -1.6178751488795813 0.5345660286827504 -1.4752933375188915
Ni 9.32169289558461 1.261300916046116 12.249502517474326 0.251790703687889 -1.2302430378786295 1.0307688842062699
Ni 6.393704359120096 8.645676820506882 5.50160069361 1.0443067707917046 -0.8936920618242092 -0.5933908121304425
Ni 7.15991773475934 6.576141021882176 9.223159674598367 -0.11691063184683091 -0.4819149781459378 -2.0305127807859353
Ni 8.308268287302417 8.372602596187711 7.572677405719217 -1.5357353448550326 -0.5705768995597206 -0.03772631090618019
Ni 5.4201748908411735 2.3833669504278467 8.266659876318494 -0.7199549079066374 0.7415992256492906 1.4092028736477213
Ni 5.691057177437695 5.852117763776328 1.7957805748506765 -0.30307264179131677 -0.9051167587213832 -2.569541216115413
Ni 7.047388897741426 2.153822361139246 12.41111483514571 0.46245532675942935 -1.072895381062675 -0.4403201854232868
Ni 1.712128175514868 7.05444244092585 8.911519523792352 -0.8843448162813545 0.5250388059186054 1.1845565915851084
Ni 1.7082594991069435 4.403734026376532 2.799539112466192 -0.16508821999332216 0.20148887010954333 1.4178561784473453
Ni 2.175245273838819 6.276772912146433 11.866954118066115 -1.2766216251431692 -0.3835193743841589 0.3620537483112151
Ni 2.043635337927583 7.125895863782143 4.5090706848326905 0.508614084703679 -0.7594663357376984 -0.2528615681545645
P 0.39945910526590256 4.788643910826965 12.55435609186983 1.1477093408497718 0.5265022778380094 -0.40036112853184597
P 7.431614972560435 5.726146915510541 6.8476687123637 -0.4838145091614958 0.48517230874097084 0.30593479383046024
P 4.325245794846265 9.090574607418208 8.580082615793826 -3.0133380472333915 0.08996187117212893 -1.0905606595529216
P 1.0307165614275404 8.40095727775378 11.563046636448336 0.14684212929894064 0.052956497592373315 0.23054182161144166
P 0.23268449324002027 5.649101241284924 3.5886413762477214 0.03520842958033291 0.6547938978282722 1.7733237889006106
P 2.1920875987333672 5.252866345267466 6.244130837863879 -1.240658576784999 1.3580685168657514 -0.8757071952110144
P 4.6321170760172325 0.988320364279195 1.8654682700970568 -1.7692331637710046 -0.41870183582256276 -0.9649959515755187
P 3.8649107713241393 6.230536140355837 0.2776229634564305 -0.9975962541090431 -0.4695060629586237 -0.5470685320251353
