# total energy = -340865.56636496086 ev
CRYSTAL
PRIMVEC
9.30974143022155 0.00000000000000 0.00000000000000

0.00000000000000 9.30974143022155 0.00000000000000

0.00000000000000 0.00000000000000 13.62574762621503

PRIMCOORD
 96 1
Ni 6.763638989378462 2.9019023152036065 1.187559948251517 1.3029929160478462 1.5461290293845307 2.4876392391332836
Ni 4.148253281659812 5.91865891252776 13.553586377544672 -0.43630772182978406 0.27580249322145406 -0.24475128034260427
Ni 4.982340960838386 4.8044317988603025 4.427673073123007 0.5243088697311163 0.9764029078608797 -0.25269238956655193
Ni 8.325357452538364 1.3152616737802132 6.559121654933105 -0.29091620893444087 -1.2148218182275532 -0.43112463496694786
Ni 3.9736211487249657 1.681413810912504 6.896004895448813 1.4320910910998046 0.4562507406106142 1.0029927425342662
Ni 0.5538337348680102 2.9774508682884924 13.593373420221058 0.3053041022249968 0.8079660831102988 -1.5051638998260788
Ni 2.5094501580510076 4.099125775236037 9.901517186868354 -1.0637024017094971 -0.032504143275292406 0.14096741568571852
Ni 7.790968974950501 6.8436003599817985 7.318702541111846 1.77777745379659 0.8284418344661475 1.8089070853218587
Ni 7.015867818550217 5.165724250877336 3.1807262832043945 -0.6318753413588859 0.8162967144631813 0.0362713236272085
Ni 6.810690423425414 0.10320314050800941 11.574432134674119 0.4985700702041155 -0.6680088538566495 0.349902714770978
Ni 5.50990539783337 8.311122857631796 8.687013915451962 -1.2447823691453852 -0.06756113487942558 -0.21716925695927763
Ni 2.5106324952342214 0.5799438361596763 10.889261220182568 1.1788186606600668 0.6846217798229822 -0.9399706331757748
Ni 1.8661377037418687 7.384244983924935 0.8733859604209551 -0.4590149336193126 -0.22914699814644404 1.1530757473680078
Ni 4.830852845521412 6.5771090066786755 2.804164923989022 -0.6713893402931081 1.1393493989208507 -0.9948469734986803
Ni 4.1162277705554375 8.360511036820375 6.864679476912767 -0.1141541521476163 0.9097288035720978 -1.1479361121485971
Ni 4.963358397715766 4.091156636426343 6.796372971818605 1.5881652805199746 -0.997519635234837 -0.27083949278922387
Ni 7.670379892004288 3.6273453099089084 5.072975019212089 0.4051608639133345 0.23668213018122464 0.5952049825210459
Ni 3.7193907251091867 2.9171609816861857 4.683101660482721 -0.8568826063053436 -1.3927035904411176 -0.38993581943346395
Ni 0.2397081576937691 8.829666155016273 8.022227611168011 -0.8518481292052297 -0.6029098073644713 0.6899190236661795
Ni 3.163375717784271 8.33954549873693 12.619595861255327 0.2504367607631558 -0.9153386935597075 -1.1508363165145277
Ni 3.6273639293921085 6.722629577629982 10.43102735985776 -0.31876896948065103 1.0549822482276798 -0.13646232872651337
Ni 8.796886554842288 4.515429490368115 8.053021443458691 0.48667049055305217 0.25292018930664184 -0.8616810561352514
Ni 0.7782804331567206 2.508630900790198 11.068699041731392 0.20662901954958607 0.3043769624250371 0.4995195786015784
Ni 6.6940393611760465 4.515476039076116 10.02500811627132 1.770831618606376 -1.1785350679813766 -1.1831095747259366
P 2.89874631280117 2.0202046174820745 8.811907822914065 -0.1717517480564268 0.42265979202904636 1.0461075714458692
P 4.803147054519488 8.812685186337674 10.89344501805766 -0.738105096453103 0.3966672246200265 -0.48978795313611134
P 0.4007880997813368 2.785698120551045 6.894151325896231 -0.41614795905245755 1.134109747788466 -1.6224704815597477
P 3.235042108621911 4.906969292843904 5.781118652076067 -0.7172534498150744 1.043149774369126 -1.1659266351887467
P 2.162168867142138 1.8826531853404624 12.573144905541582 0.8346767596322657 -0.811485409117467 1.0377679412319225
P 4.397633329901935 4.894494239099758 1.6725881758756007 -0.4219959331928022 -3.3957834718270807 0.0803721706011648
P 3.0112545400384887 8.928973168664637 1.934733741799793 1.5254792143446632 -0.3260361925660256 -1.1911578989517098
P 8.874539109528799 4.036461904525702 10.091991707084105 0.6445135989481867 0.049721278484527266 1.4744631283081124
Ni 6.135622440518302 1.7502407305621108 5.486011946016689 -0.9790660565153395 -0.06804295961185054 -0.04336114059445435
Ni 5.1679772083445625 9.2415849818547 2.462948929732623 0.2775549571361865 -0.6949540149869258 1.0846332383248933
Ni 0.2095594904959758 7.083596188691011 12.563007527913223 -0.2803985972325687 0.74849620987944 -0.0814800589533629
Ni 0.33591688933761654 0.08271891606528936 11.900714372429782 0.7919763925502619 0.1333986021995251 0.5724031541351818
Ni 1.4797089494045403 7.7939574020041364 10.271142788591646 -0.11641338049543822 0.41353571824059104 0.8333104754123584
Ni 3.8459752816458703 0.9124161211052524 0.10441247594186359 -0.9505792619295566 0.006566083253291917 0.7630512248754794
Ni 2.163341894583752 7.6665256589818425 3.4487853969929754 0.7766945266905269 -0.15800020279828916 0.7377181454273295
Ni 2.2206992125820237 1.0048841985741759 3.323605680463749 -0.053670235829946275 0.23125093186332432 -0.138700988249045
Ni 1.4834514655277844 0.5046885399351944 0.6733885055224513 0.3195603550336948 -0.6879863254198408 -1.3978586522794958
Ni 0.07906670443556656 8.341621571113754 2.848994122716027 1.3434466531875187 2.994882411631365 1.4780091937881579
Ni 0.05458208402727963 1.7614775886734424 1.7394628427116643 -1.3822353439199422 -0.25539873275412145 2.4889857258588486
Ni 4.696401557332637 4.889727651400502 11.344552271187585 0.46121759769758636 -0.39316023990803256 0.9040780330442236
Ni 5.914041280694105 1.4325923471663882 9.469335707437288 -1.4217082052035839 -1.8249397133046894 0.267714574006997
Ni 5.953905594225772 6.740001555455785 6.0241885574616365 -1.0303518512735095 -0.9227211020667075 0.24019194310669603
Ni 7.475061513233999 8.515006198674186 5.639015687266162 -1.4413899999032274 -0.24032718313297963 0.3648361961523588
Ni 9.0454101068572 6.270892985967887 10.043933889970184 0.21960666275617663 -0.928486029574943 -0.6667310155854904
Ni 7.241861795892866 7.9128800412039295 2.796507661522932 -2.7656068583268567 0.18006772412128988 0.5843346154654453
Ni 7.663621019602608 2.2286031832005166 10.625521826496438 0.9763720546229444 0.034331683402334424 0.7687680727545987
Ni 0.9679990023545438 4.98518974176802 0.9751004732471069 0.691159323831184 1.0409594515860268 0.37040263449654276
Ni 2.2424840079262793 3.695110919016102 7.202502070355925 1.3946175196343786 -0.7587983631363964 1.6252606427103753
Ni 8.782279570271719 3.932593117493285 2.660536092530858 1.1239893715250127 -0.3326765807006787 0.4736036300667649
Ni 6.064309819861466 1.2320139643920378 0.034389254496643 0.7106752823769245 -1.8504124036544969 -0.6180705742653098
Ni 4.663854700698654 3.789334813750806 9.174720555734396 0.43831112541305806 0.8816842387300556 -3.5552587165089995
Ni 1.6906490745798126 7.7311538851698 6.379234172864997 0.30368045057864473 -0.49812398380563244 -0.36256154118556916
P 1.3879521361938651 6.800291442058091 8.366100605677081 0.08106225468965395 -0.2643947656051447 -0.007551072874380544
P 5.480467994893825 6.0597666659606135 9.428854158037534 -2.3083767845221086 0.07925862582201189 -0.81002810784565
P 6.176492206142782 3.160554866079438 11.846170458343064 -0.16319074586029314 0.1508111412490177 0.7689282524815467
P 3.2952482075498164 0.7354072111398982 5.125297628953022 0.15008711859879958 -1.1776040715266751 0.804963548838549
P 7.577943467656805 7.813498549622764 13.22391073897577 -1.101916193775057 -0.33620233446575004 -0.3007553065120498
P 0.17999547507066932 8.89260931797461 5.295497393912058 0.6147528227459864 0.5384190838802534 -0.43497126240654765
P 2.3450773603594812 6.296075836996183 12.721625043347562 -1.7273666054442058 -0.5150672965281904 -1.7526719169782137
P 8.194704538922432 4.458910049113853 0.5307567473896598 -0.4433000939872172 0.7073703863734077 -0.31598755008077195
Ni 0.7688301144584498 4.921445941032074 12.06085775451238 -0.3434497600567827 -0.8105423284779072 -1.3378431909578121
Ni 5.464660053656839 8.289626664277145 0.4349995382134177 0.5501980787930524 -0.38340573162443 0.20564660103165872
Ni 2.8199858988642466 3.914159829125069 12.54558062261198 -0.18392643574574777 0.309025516940642 0.21270813586413045
Ni 6.966135178922435 7.416335663220511 10.054071267598543 1.8994867925836452 -0.02460597147413827 1.2908146288140996
Ni 2.6108891025257965 5.263439298712082 2.9001586006019062 0.21759580297373493 -0.4491706938353813 0.6837440052037193
Ni 8.346741928993815 1.4265503248679174 13.124483629660762 -1.0435179563418222 -0.5050744469815365 0.5043267701822347
Ni 8.616994417903381 6.324340212494113 4.8861657442643 -0.883878161057581 0.3143191612394135 0.33325019381596155
Ni 2.467211860411313 2.688550966953907 1.3975113788688571 -0.00985555263784109 1.0391673926826104 -1.2774019549526194
Ni 4.767649009798271 3.110142615314847 13.612449080759681 -0.3667550104416264 1.8085617861672982 -0.005774954810564248
Ni 7.696112017786989 5.194565830354474 11.954767663134177 -0.4499373967980767 0.40958136157853325 1.7433164439052427
Ni 4.427694485528687 2.000058336659438 2.2902699805854794 1.258725718699355 1.844969635372371 0.6154681036454561
Ni 3.742004087455852 5.77364106762286 7.74997073489194 -0.6563375881663084 1.8549681413459793 1.047756677013518
Ni 0.7750527457439627 4.485526600348565 5.4760654180911335 0.3688054652127519 -0.15014059754455433 -0.8402745654350173
Ni 5.463151875517622 7.124093564651486 12.19219679608424 1.7323118652646232 0.11544098927983991 -1.9154482010089076
Ni 4.3527510656478094 2.5577397877307737 10.843356746300751 -1.7095637729348299 -2.1427769149996903 2.7549216106988688
Ni 6.191043332263752 5.82050630683781 1.0043460955096897 2.4283079483628183 -0.09223318370480889 -0.945400031721462
Ni 0.15223010172250395 2.051550517449642 8.870797524379714 -0.10208333702601129 -0.4354554011318178 -0.1736664485806364
Ni 8.66555403008955 6.816955879522286 1.4942135268175105 -0.36192005094682833 -2.5352378148478527 -2.8467968968436264
Ni 1.7542159902253573 0.9353683580461615 6.816511804847961 -1.3701336755604017 0.983569600812648 -1.7274365394501927
Ni 0.22509558727823784 2.052658376700055 4.2867422047805555 1.1785060145156543 0.9339272551951723 1.7093105192734435
Ni 2.640736134095746 9.11270091914279 8.549366592971868 0.8439797822007465 -0.6079147167782305 0.9949086799745511
Ni 6.799891123169287 2.6782823219689864 7.838960692899064 0.49145582775683755 1.7840445177522244 -0.5605850784543313
Ni 3.820140748705567 6.9933103146531534 4.9939045908798825 -1.4192725991788977 -0.9831106588983585 0.4737800077436292
Ni 7.797010997248972 0.8733394117129545 4.005696932433982 -1.570407442315921 -0.8003111376682024 -1.5659244668439032
P 1.6826520065453188 3.172406167136377 3.269689242960877 -0.14084631672682194 1.1373321113805057 0.43671241346737044
P 7.048135382936196 4.993866420939322 6.770470477764622 -0.5126628008517558 -1.4815606585848422 -0.6922731257206529
P 0.5544984504182581 6.122216412614145 3.188547397122646 0.33084724080142375 -0.603992756016005 -0.48575106406257634
P 5.595666737453574 7.844769971657531 4.220289269238977 1.3677132390443671 1.6551695144546656 1.1534889236460262
P 6.019529962764942 2.9999711332191565 3.720401763046959 -0.3509298704839117 0.15319995319616841 -1.1255508024748615
P 7.572394861663139 0.5556752017565119 1.7645889043161989 -0.3724168367130941 0.026599604865399352 -0.47720908802983625
P 5.973316405462 0.6343406563291137 7.345068660297516 0.40218069823908803 -0.0724644857183139 0.23755450548384896
P 8.801662452283145 8.89589565675945 10.09997667245452 -1.0589463750817505 -0.029519606725671742 -1.2728264197667951
