# total energy = -340894.3655035507 ev
CRYSTAL
PRIMVEC
9.09599409023649 0.00000000000000 0.00000000000000

0.00000000000000 9.09599409023649 0.00000000000000

0.00000000000000 0.00000000000000 13.31290678824004

PRIMCOORD
 96 1
Ni 6.462667513171293 1.9943240219020875 11.477203627289754 0.17902848422349812 0.522748467222532 1.1679428942878272
Ni 4.618008980253971 0.315913885041863 6.1788925045260426 -0.11989336862423867 0.7751793755975812 -1.7651993600212632
Ni 2.644487497145379 1.4697944189000498 4.8792068216323505 0.4052369685669086 -0.581288886660586 0.17505664405994367
Ni 3.2770502235625174 4.102921019257901 4.824863713732109 0.5989407954143944 1.0730385915087584 0.5319422179066581
Ni 5.162022202886821 4.743879348345086 2.5594062959592354 -1.0278002884962494 -1.211826483044655 0.37414821758190403
Ni 7.132632967843285 6.207615835091017 2.5952317788154042 1.41700977128665 -0.6632435712575223 0.17868549906178258
Ni 5.106391102204261 4.495067522303437 11.517368808990861 1.068776730908611 -0.3830213517018178 -0.24418718030901815
Ni 5.833770472426992 7.895095587793391 12.369114979459248 -0.8919671087133026 0.14128263293329216 0.7306730656550899
Ni 1.819362572976478 6.262664792143151 0.41949906728074216 1.315537071261444 0.9860723126298439 -0.3693772785558219
Ni 2.8698953300450687 1.5298916527472814 0.3527190064761075 -0.6258733581391801 -0.16446421325607805 0.6665389541793425
Ni 0.43054615226749304 9.063285030167558 5.028258331006903 -0.62334570662132 0.6900576061265729 -1.081985259179085
Ni 8.593349584506383 2.488382044249028 1.3493161561857536 0.3363578862070078 -1.0767378947372166 1.0208999618319903
Ni 7.051624043271853 0.7782605427207844 4.8739620713619844 -0.7072084068742466 -0.10388413768017593 0.5882802303767545
Ni 0.7116887801839115 7.428798539822377 2.474816278461263 0.39790983877787606 -0.37385434049056904 -0.21264565805731117
Ni 7.590989212855522 3.843876199712675 3.7860438684275683 0.9187214939890113 -0.08036060063693902 -0.19493949902679975
Ni 7.732713898881512 3.793366143779017 12.825481930534389 -0.058042910976345195 0.3930535391268392 -1.1930551159744227
Ni 7.746066818404403 -0.023705980150242962 7.268167829798889 0.8075966155860221 -0.06337255071937473 0.07477822145315509
Ni 7.024336060595647 0.7407422953392682 0.4825543184500746 -0.283208298767222 -0.3434101650680989 -0.8004260659795118
Ni 2.062653130523308 6.4990878740498035 9.322735531055237 -0.48452773317843656 0.5984018921917887 -0.21173780153106114
Ni 0.15945550756956647 4.771713090674817 1.3163777418967277 -0.30999867948718873 0.5230456867479766 1.4431758881590564
Ni 6.40674534067352 2.057204629982292 7.021732787048337 0.06209265556568661 0.5465291145818976 0.5227518096566416
Ni 3.5243521145627494 4.088822228208528 0.4021784750767315 0.0536758922569011 0.5903777363357317 -0.028776815022376247
Ni 5.974731094938048 5.917681019156325 4.816409896699019 -0.11694637018077278 -0.304892725719191 0.4040072099248655
Ni 5.497309646029367 2.8637555339429217 9.46465123295996 -1.044427355529969 0.4832866616824838 -0.6189522055393147
P 0.15203499548048346 5.668123321588193 12.568369100162638 -0.22886006303364456 -0.5605673378425184 -1.0334189202346074
P 4.2393063566735805 6.114054438488532 12.701498071645622 -1.0283713305083708 0.31639969791752603 -0.23583546591021318
P 2.341263433647374 8.413485394693282 1.214740012021507 0.2991967037756783 0.20439653067464156 0.8492878246772212
P 6.491410854923563 8.01203368955516 5.873574543157351 -0.29925481070712334 -1.545513764398035 -1.175152781772705
P 4.751456311534846 1.264361389319343 12.635679457430614 0.8033398971921971 -1.3535878553865786 0.009174210300100329
P 4.078243586924385 6.164755510300923 8.176108142992385 0.02095243388195101 1.165677238182102 0.9260717637064955
P 4.538473606747056 0.7730812836088403 3.680832322421187 0.39157181237499017 0.3973295407943737 0.5062936641006184
P 0.3346261643623602 5.544645199978359 3.5263759732779016 -0.3944861578083077 -0.26343497279503664 -0.02645408042647057
Ni 1.343596595016821 1.1267753806659109 2.427994648186006 0.42799046021334036 -0.7293497188579762 0.3720576536014625
Ni 1.6976217862636962 6.66980149367215 4.906604865838685 0.6275240063687257 -0.1463119678270835 -0.3210102001063439
Ni 6.153840317230441 5.838145645649409 9.226816452749526 -0.9925134402694972 0.08595377845400035 0.3352510262960743
Ni 8.763535636463656 2.499788421007682 10.379261638718944 -0.39354384849969637 0.23647489926642498 0.15272378489069827
Ni 2.327619442309271 5.346197893962763 7.174232587833739 -0.9559621235080246 -0.9789405866810689 -1.2616408354636206
Ni 0.44346883126352177 0.011219908877033495 9.196449476028022 0.1192449364069624 1.0947806111715404 0.21381011067905756
Ni 1.5308831161178502 0.9997407253139451 11.521828574959576 -0.5232071520265054 0.9202361308613249 -0.1404817342985516
Ni 4.165938067251487 6.89758338106467 1.5693919172705126 -0.17441078294582865 -0.18988033933633752 -0.148120481790732
Ni 5.481100584319701 7.9578215639717635 7.7548344472382675 1.2529438219102549 -0.6285581040601949 2.4147749468733894
Ni 5.175702578201825 2.560149438687451 4.958618489617801 0.033808463909012744 0.21105697341395266 0.016487713242378056
Ni 0.612929022881608 7.720288770769613 7.074212125731795 0.39534259227133206 -0.6994102509860665 0.18991402078775033
Ni 4.976964200371015 4.622593361343575 7.015795831617417 0.8313785484969682 -0.6397058931468983 -0.5571968787083889
Ni 8.418588247453732 7.104153409923551 9.381246423509557 -0.9360216758303557 -0.15043498885652157 -0.5784660724998103
Ni 4.523419736304016 0.30976044494837845 10.569929140873555 0.40970760274375245 0.19435817260203303 -0.40195932625690123
Ni 8.222032908237018 7.11646029011052 4.652807525362093 -0.3881401609856219 0.2788330525176617 0.1787096674314987
Ni 7.162340484983448 6.226972110802674 7.19649139530272 0.8074397782931836 1.060961605739566 -1.8896001295975522
Ni 2.4429566490873698 5.141365200000933 2.586418670010412 -1.0695020391104098 -0.3999708350719628 -0.17333091961808858
Ni 2.7143720207791433 5.0441290217313846 11.416789852843479 -0.6429459973507508 0.7954648653194946 0.11464034775541546
Ni 1.2280501803715378 3.1268116869415508 3.8673993503789874 -1.4510696890848365 0.7284552320681648 -0.6802588748685962
Ni 3.7429470477876134 2.5747394134249957 2.972851979082972 -0.4747182032871824 0.8826720565646217 -1.6948848307664166
Ni 1.2260126776650477 3.2931410373472536 8.364765430423184 -0.9045832548154163 0.42974549523123406 -0.6007793912850299
Ni 3.56609363206312 2.6219476234548322 7.1359711977240075 -0.2050418775681243 0.052272069930839014 -0.30362208653688355
Ni 3.919382047777738 6.905933503763588 6.067170955452542 0.15486757070657844 0.21985914508661492 -1.049629982776831
Ni 0.6996393166335212 7.5378777025733985 11.303642961474857 0.49014199404142034 -0.8839732918745487 0.8361654283626503
P 0.24865446534154967 5.744638825012276 7.874877011829167 -0.22322291935252525 -0.5188041378628033 0.8728563560257806
P 8.45778288657099 1.8690812774125258 8.227935298889882 0.3122440238779397 -0.35474744445778905 -0.5930509122925206
P 1.7519703517604737 3.2616961853100386 10.502738850729356 0.45039453894015336 -0.3747354575439417 -0.6665132431477295
P 3.945560319158445 5.993277827163643 3.802512165972659 0.19803742122583312 1.7498632438848252 1.2825924980146233
P 7.029902809061594 4.117792969816434 10.301300781812445 0.736993351446163 -0.009944769917537712 0.8054952529723031
P 6.427138559726873 7.89011098295787 10.271719698992015 -0.30113840088308136 -0.5711386856004615 -0.7026570400581382
P 2.3221891337567064 8.621738182483863 5.868302504904308 1.313383515253551 -0.9049398668238867 0.22624345134640392
P 6.969250719566612 4.0176096894178555 1.6628750883226602 1.7361973163619582 0.11232944023405171 0.5430334427238132
Ni 5.603068770888118 2.7948169937085994 0.6893744871501549 -1.3872783056604883 -0.29629007165184457 -1.0065588626189699
Ni 1.424851111432338 1.065632107482758 7.088364583147098 -0.5093885009758582 0.8159179909675238 0.2656854593921102
Ni 6.8402331374735095 0.8744843368330455 9.438917755696874 -0.07844847121589069 -0.9785857744448115 -1.0654926608407007
Ni 2.602973379500644 1.4202212503716083 9.214595074908276 0.7793497049251867 0.6838123965478095 0.6157205859758944
Ni 6.347648666191083 1.8344164434195183 2.736494388334744 0.3319119346205123 0.08104220008499592 0.34040968767887825
Ni 4.154950106227202 6.851512170313008 10.459231800749835 0.6514740894264199 0.5987052823648206 0.1722986216988323
Ni 8.148328067028585 7.391796035313441 0.0891225514204898 0.417472591401152 -0.18972864424982164 0.34055341234559416
Ni 7.692782484231997 4.105977273317636 7.971862140658095 0.6312508204010097 -1.0377095771901612 0.5978118240162736
Ni 3.1348798338194825 8.302996352837322 12.489263967182584 0.49476098087067044 -0.4566338349816458 -0.07201994198172759
Ni 0.37952308225952247 5.024508962187191 10.268857189609282 -0.8057184247267026 -0.4359801632870362 0.31980460983401693
Ni 8.685437430044354 2.541584514473405 6.014531527270718 -0.09085918617541773 -0.3064911805545625 -0.46516166994699887
Ni 3.478408247730244 2.6271778201344387 11.532491808990015 0.7765801125998497 0.22251689442443615 -0.4400363356342808
Ni 1.1500975098598418 3.5373139063339476 12.701897385792119 0.027343939230591616 -0.41754072563492606 -0.1067858847080032
Ni 3.2338533469860824 8.458410510172543 8.012745905903008 -1.248450562025592 -0.20274356845225083 0.5860359144272682
Ni 5.778439539553871 8.110734322894999 3.5424977134430042 -0.4128142666935342 -0.19185648922610182 0.29676212619225667
Ni 2.922006280962397 8.330557215340292 3.435315975087401 0.5539917415075298 -0.36375144772861223 0.15032443142058627
Ni 3.591662471830725 4.238096589441602 9.098865830779063 -0.6401980022919684 0.035055448942236396 0.7338491493902264
Ni 7.341386035316263 6.038457630481215 11.465048650206349 -0.024190738313590598 -0.4603786467360587 -0.12192222612880937
Ni 0.5253527904794366 9.274912431815764 0.276450914094956 0.4050935010105088 -1.2630875952124763 1.1218460999297648
Ni 4.777261647152312 0.2114000017925703 1.376501354127213 -0.34879791174257346 0.07980961322947545 0.18103960111625594
Ni 6.07251303286112 5.529218393772078 0.4341381603871043 -0.01053021010736251 1.1418518536277302 -0.9338460083352755
Ni 7.960241098435721 9.048431271597476 11.398777055478915 0.23513766851224022 -0.36794645964656636 0.02248275448354838
Ni 0.011913933236431676 5.008127076587242 5.711383870124206 -0.37967788915088163 -0.507528564948984 0.2943990252767188
Ni 8.021466235566901 8.929137307331327 2.534657914870761 -0.002178495708557538 -0.41069207814420877 -0.02685285852678601
P 8.621892814385696 1.519249339503561 3.667759559520439 0.49279717227608033 1.6152899046509084 0.004919548788804431
P 1.9332717086611886 3.1152688702695155 1.623895114669122 -0.34388196249819486 0.3883275944060796 -0.3833435109279269
P 4.820522195688325 1.1599393756117269 8.254601115561071 -0.8414778417144991 -0.8548308659826375 0.5054727108612198
P 8.632862583421531 1.639798550972815 12.537323562271919 -0.734340230094032 2.1071511953762805 -0.6082229920472686
P 6.461239442077905 7.77054413886496 1.3489168420392588 -1.0388434336842884 0.506124999733238 -0.1799777355106449
P 1.6759005520534358 3.298807841749679 6.042049638600826 0.38512142876395605 -0.25514496487210253 0.7954700075258171
P 6.7349015243433525 3.9637795955919253 5.786308484158266 0.34242671810890707 0.42846380030533304 0.8039309938089768
P 2.3552166887891413 8.558802998438306 10.273410644318519 0.8790102914423183 -0.9130339566859308 -0.5077129130456481
