# total energy = -340887.8931899103 ev
CRYSTAL
PRIMVEC
9.08513591248856 0.00000000000000 0.00000000000000
0.00000000000000 9.08513591248856 0.00000000000000
0.00000000000000 0.00000000000000 13.29701474754193
PRIMCOORD
 96 1
Ni 6.373831634956688 2.2522597347018496 11.478940375414691 2.058019985067269 -0.6169346608886537 -1.0443232258519368
Ni 5.106800392788328 0.7069507756814668 5.7686171211453035 -0.6031995706907483 -0.9363957713403228 0.26507482239130475
Ni 2.8264585025922044 1.7754354548696074 4.596113085400664 0.16419733274793658 -1.614874928600677 0.5203843378657297
Ni 3.5928442382359935 4.517983641012407 4.846004294701132 0.5630790485207786 0.4225548910200659 -0.42539441735139
Ni 3.722888875487703 2.9235695217052076 2.611546884066261 0.25321355217734454 -0.6140617102162328 -0.7957325171585844
Ni 5.272440593037955 4.587902847962886 2.831572525668143 0.7824795088034202 0.1529407859975108 -0.6907152943152298
Ni 5.524480437011473 2.9862933009133816 0.3606244813892433 -1.2858665407802048 0.9934626915566439 0.2670124057336498
Ni 5.774430699696189 8.200561767898332 12.61372110930125 -0.16704251550621552 -0.03571725089595139 -0.8433177231367153
Ni 1.9010919714148353 7.061939838494795 0.0747261524283244 1.2532706091220545 -0.1935577881879247 -0.41864784265617583
Ni 0.9193612562560769 0.4271385793525809 13.690739456770133 -1.5035209649060173 -0.825019953268792 -1.3935934492452386
Ni 8.2922035351163 9.050667032134724 6.705099316265488 -0.8239390614997874 0.5438819067670375 0.07630571384127503
Ni 8.872789153641556 2.416509909137623 1.3260837179034712 0.12568812092914483 1.4740083001588806 0.10572633309523725
Ni 7.182763062667667 0.8214889027430674 4.6120965652327826 -0.1701072704744683 -0.32680675218346295 0.12952934905210595
Ni 1.2160999695378523 7.655489946146653 2.3277226916628773 -0.5371834117009393 -0.6165189135074737 0.05232606309722601
Ni 7.850929392601785 3.9733933314707537 3.7417269050630435 0.73686736739126 -0.509000007288188 -0.689191915692168
Ni 7.53870052237477 4.058321183156445 12.46291966174292 0.8249392206295276 -0.15060031078979225 0.5464085298436331
Ni 8.60592236765359 7.548576065248363 9.617465048208308 -1.4508670861557271 -2.5396290019370134 -1.4357952794242692
Ni 6.937273601777737 1.0768520894793814 0.3450098580802792 1.6426816664003001 -0.8856373098405329 -0.517783924128405
Ni 2.1875281404292193 6.555234546232703 9.26674245658717 -0.06365305807427102 -0.17396263966481654 -0.9394060189215563
Ni 0.512332625524193 5.414123289554681 1.153931292141616 -0.28219939788673337 -1.2241906610369626 1.0975836278379743
Ni 6.898425560078121 2.227175674100203 7.095845566189596 -0.32459457502349265 -0.39825950880781086 -1.0486444789351101
Ni 3.711886775745366 4.6422773871518945 -0.05764155410836912 -0.28087939352372915 -1.872148509780008 1.8803996940452068
Ni 6.401913790450961 5.749183106645853 4.771500728105745 -0.25852056621255476 0.8895477006385325 -0.5260672471831198
Ni 5.346965963959834 2.799148583661183 8.803421414448598 0.5716716752857961 0.9403005057113677 0.5464815491734137
P 0.18505877001781262 5.923381505043525 12.341717587397252 1.0139692961504279 -0.6234680911317972 0.10911941793718627
P 4.138397572197703 6.556015867931994 12.619491987712756 0.3595996303437678 0.9705968427020638 -0.4408449475785053
P 2.744337957942337 8.817151780543227 1.0694349844177429 1.1458941420179038 -0.004487860568024529 0.9270616384235905
P 6.402604260789869 8.000770541280872 5.704286181371962 2.0256518531492085 -0.5881377912616194 -0.1788158539920598
P 4.70290249993523 1.313274584603123 12.466203938420751 1.1238672441248514 0.8788760798572992 0.23345873814792054
P 4.358057991330847 6.118357609560707 8.002980954878982 -2.0700643178263123 0.650844426262221 -0.14723165142787548
P 4.7739391786184155 1.1824849661962757 3.6437273596454984 0.2830748585131512 0.5838617895940849 -0.46619911007257775
P 0.24979763239927352 5.902721905692513 3.4618111381833216 0.17392715844119078 -0.5504719012797294 -0.7732019401562361
Ni 0.8256580716710269 0.04900068122237633 4.396272799048596 -0.42448887481798503 0.8588330451634951 0.12360012805186453
Ni 1.7087323860766739 6.85683380729495 4.764094525207353 1.3904258501505344 -1.2831625115854806 -0.838704135624104
Ni 6.234211264320648 5.78651393062708 8.96077869617214 0.46154927000539225 0.19263219104986182 1.9731373281902598
Ni 8.83398653762213 2.675627074084947 10.34071637496963 -0.6844492588008599 0.20832774740824764 -0.0012521272395462307
Ni 2.4784432815104678 5.404129639912591 6.757543264046367 -0.03330941278540715 -0.3080754943225469 1.1504146555960768
Ni 0.7591230778948012 0.0640992688043671 8.824324495445437 1.2853055260704123 0.5421638956346663 0.908475647891287
Ni 1.529900568299487 1.2532854313424662 11.098606599904038 0.2269577038046091 -0.07573775715294698 -0.5052662512773685
Ni 4.544948324773974 7.342388902859963 1.4580444103456505 -0.2340439212274292 -0.07585679922931451 -0.544112791830921
Ni 5.651799533451703 7.945978085834102 7.8199881447962705 0.6761782770413193 0.6293088661832904 0.7622431271518872
Ni 5.575766029947473 3.053623244092955 4.82644399681075 0.5230726833311701 -0.09672130138314955 0.17597349944725824
Ni 0.7942116903017841 7.410300294745986 6.877588800574363 0.6047715431635584 -0.34103446574707075 0.9843468452983046
Ni 5.611234401040854 4.874611571058418 6.790439633127316 -0.8667903523373587 -1.5966002986612051 0.09185548865041598
Ni 1.2152913924304467 7.861668023399013 11.232081784523796 0.38124600496894984 -1.1766093117135736 0.49261950904763546
Ni 4.949391325789368 0.6937564326130963 10.207640027821952 -0.5427328807642589 -1.1953613955100961 -0.37725462442136964
Ni 8.33789268425273 7.415642354736486 4.700813827160033 -0.8263574411332929 -0.06878935085957186 0.019017421642767245
Ni 7.6478493467384725 6.371514925266931 7.073878615762677 -0.259458761756108 0.9551478551368455 -1.2717103038844808
Ni 2.8941155106691556 5.792201225787033 2.068922597963288 -1.2774646898697548 -1.5120446861063122 0.035028966579675164
Ni 2.4896452542456466 5.429913255989184 11.470457583895763 -0.11219677131092937 0.8644905005595885 -0.5716837594706542
Ni 1.724131691661531 3.7532786555356963 3.6200324163441024 -1.496402865803997 0.3155376070275469 -0.6620912028206339
Ni 1.8331442389846597 1.166277083504013 2.4643358822702517 -0.43929637214446277 1.2311658068032152 -0.14727433174035282
Ni 1.156982989336869 3.829984459106758 8.56532543726661 1.3524707110629999 -0.6242419931833443 -0.8870881833544465
Ni 3.9366439561959763 2.6790430852353344 6.58659643583679 0.14281398197615403 0.6062990355516784 0.7957592566314617
Ni 4.440759984687164 7.033230808613881 5.804253567255394 -1.0762864090220947 -0.11067287846723521 -0.470390522446106
Ni 8.394474911499037 7.452282708378804 0.14580825679170112 -0.17691915118997917 1.2506123455636011 0.7777394230152733
P 0.23062345279051755 5.861593494847293 8.372146372657797 1.3812354419005182 1.3561797844834709 -1.147555588880727
P 8.868282926166575 1.970139005305641 8.093320822102665 0.26636474484732187 0.2634645404813914 -0.22583901681913363
P 2.1191715768773216 3.396505363313073 10.58603321827483 -0.31504009856583803 -0.4709649068923373 -0.6213685282902912
P 4.222198867014649 6.287386565552606 3.5909781512937347 0.661077673954455 1.0212586307229896 1.340228403360537
P 6.947140059515292 3.8635267813600285 9.962375878305771 -0.8177794696562948 0.3444388634429294 1.3035886406503163
P 6.549728953793515 8.079920246446227 10.165368706863116 0.43625552843560994 -0.16688722087527386 0.30092191399690116
P 2.365942041948646 8.599163026441124 5.7524083299394375 0.9386326310906414 0.826839265865718 0.0008973150032887772
P 7.040989514790559 4.031810756196791 1.473149357522868 0.7220328734815888 0.7305481100414515 0.07688266939066758
Ni 2.6284752180463578 2.1423205035028183 -0.22501338128688958 1.4004253845654075 -0.2919289664696714 1.1992530172550184
Ni 1.5579463832496079 1.2478434348555463 7.0525903249978175 0.6355016252575635 0.7070225161156856 -1.6580962011831573
Ni 7.40180569255021 0.8682319276599353 9.137562724286303 -1.2577718394265176 -0.8903311157717763 0.46751602911178836
Ni 2.98928231066997 2.20578926386613 8.776893725730472 -0.09663131277250454 -1.2281594158767235 1.0286567229592736
Ni 6.561439694146837 2.1904172136893876 2.6903050198683665 -0.08426456367703551 -0.33375798669031553 -1.0359350017882416
Ni 4.589011234559553 7.162539549846491 10.42380902917559 -0.33391148154904426 -0.3145945263879872 -0.16386257511633714
Ni 7.310163925332242 6.255570419146607 11.51166503542452 -0.2982168563609122 1.3913856429606424 -1.3215125721185885
Ni 8.020939543285817 4.2601656505185534 8.035970900861125 -1.3684395756874304 -1.7424309559764959 0.25152999382733454
Ni 3.3211895855558655 8.90237944171818 12.076867701609782 -0.2679847969492482 -0.9611904617864994 0.7259203814614531
Ni 0.26619630294833985 5.158731030383045 10.387761026402966 -0.46923686845763707 -0.40277667995187405 -0.01887523963794814
Ni 8.848095753889554 2.2545401038474537 5.51729046035079 0.7331307831669632 0.7808252610294488 0.7177180481563188
Ni 4.218237747701966 3.013058111682107 11.026349787450913 -1.476687903873573 -0.7078678948351164 0.3975503985559283
Ni 0.9793413243806951 3.7077802942560707 12.411500517307157 -0.7226982749797296 0.23520734540791102 0.8295975453371454
Ni 3.173565210070115 8.483981671748014 7.782037714537235 -0.06774779696893493 -0.2851211995192186 0.20495651694316958
Ni 5.908881627926457 8.292685047326328 3.3442394841985443 -0.4041133964854266 -0.45936743186272494 1.1129467405576057
Ni 3.2698676520757126 8.40534981933684 3.3166479260503365 0.8174894492197018 0.19185288968167605 0.9440843982338322
Ni 3.520226745882151 4.560056906005606 9.31957161413607 1.069902102762306 0.25416743145018167 -0.6852504145459166
Ni 5.317130377210176 4.976610393360007 11.414011633690029 0.2321310204754325 -0.2208798730416454 -0.37161079587203094
Ni 8.374087866229173 8.986280673031548 2.298029741549019 -0.7971070289086079 0.37931690626703707 0.21967428276931844
Ni 4.839597456766948 0.7168726527488549 1.3520008854798264 -1.066950990553782 -0.22032271498659475 0.4417520327738069
Ni 6.177147524864313 5.832357527076159 0.35903004001452804 -0.2564045483108165 -0.2953678169478913 0.17157845570335611
Ni 8.385135391651701 8.9941756562488 11.26888748764201 -2.0120139506507995 1.8789490776416091 1.7300719201905108
Ni 0.43794807421090737 4.792799921033851 5.366076547616322 -0.2506609609588199 0.3816355270978847 1.4819319258813315
Ni 7.3832720150321505 6.058849968510078 2.5298106406708114 -0.025528997509039905 0.703200314156118 -0.5581520435328065
P 8.758707100409076 1.775980563031903 3.44089533799603 0.3535002023142492 -0.10426260406551721 -0.7651286762297984
P 1.9632524721886369 3.631019979868779 1.4153206496121107 0.4254360692226028 -0.030504339236444238 -1.0204186513201976
P 4.816657488270332 0.9033605146654865 7.920792271708827 0.04169275175309594 1.7120274039839742 0.22551968580650195
P 8.816306862891668 1.7787606146596118 12.449023946172394 -1.1017907239407865 0.3165737616015451 -0.5370720829340557
P 6.658705160572491 7.974569008946518 1.3523597483533378 0.08717788066908856 0.15334573474541335 -0.4990503522746437
P 1.8603087957390687 3.146337057363438 5.975784569712231 0.5511257328136444 1.7472867414069004 0.17182502449652343
P 7.442761485810703 4.04468439396301 5.902518398645256 -0.5662083381783797 0.05166117581971748 -0.46159323586945017
P 2.8142662500288544 8.492667061800594 9.98460902321861 -0.5709710496743456 1.3089241939306167 -0.24863056079235246
