# total energy = -340869.60143413354 ev
CRYSTAL
PRIMVEC
9.24809690784368 0.00000000000000 0.00000000000000
0.00000000000000 9.24809690784368 0.00000000000000
0.00000000000000 0.00000000000000 13.53552463659183
PRIMCOORD
 96 1
Ni 3.5086354027462203 7.235886563117886 12.125839882728394 -0.008393366270017803 -1.338996587835965 -0.210365860884199
Ni 7.00087393006328 5.597012852710487 11.343053234702225 1.0509828972602997 -0.4416419895585039 -1.2880980012138847
Ni 0.6672224318035045 2.228051454254512 11.786856447460144 -2.2962044108256325 -0.7876921633526112 0.8092508633599933
Ni 4.934913866472552 1.9877766541840054 10.667387290621889 -0.7647936614878829 -1.4130998947092823 0.09036913391287663
Ni 6.052056202183918 6.29252521228489 5.573834347979464 -2.212827649070189 -0.5249768423324185 -1.5418162609417898
Ni 8.538388500761942 5.059014075938936 13.456950807479108 -1.6645802662456044 -0.2600233760103264 1.462476131149565
Ni 2.881984371116278 2.917719016721622 0.5676555732330457 0.23981321961103863 0.9646192849623902 0.6689005124329834
Ni 6.2433530821907866 1.2176783948148062 0.924430496911119 0.24024722182466368 0.5617497881863939 -0.04466751811070372
Ni 2.2635456493459487 2.6973091283385577 2.943313124307747 -0.1332376511416286 -0.21690597599556194 0.2945296373173121
Ni 5.097033001426402 9.042650220812918 12.764202704004974 -0.639849360703298 0.39737787753380593 -0.015780402762708305
Ni 7.760151916306638 7.3382260010756335 3.8317306079031908 -0.3711523681783737 -1.7547851066664746 -0.09520255074577798
Ni 2.8878476644169475 2.8730322135215642 11.851827101127645 1.8397770354278378 0.1444144936940545 -0.5605341706117378
Ni 6.5131293106984165 0.8409386800050517 9.229332300572098 0.15873630963336532 -0.9658217899109238 0.5053007040597298
Ni 2.8088596705983035 0.5149118281977463 12.776777341072673 -1.3260148308643163 0.045610084529631126 0.3629243238416266
Ni 3.0401915611707855 5.196967934245073 8.887993375077224 0.14310631640559224 -0.30240621185191147 0.4488616472353948
Ni 6.8994408055810315 1.3022614871301463 6.825585505424645 -0.7682476814747543 -0.4847689026549652 1.2301360799871202
Ni 4.034944585303187 1.1855782512081425 1.8756175871621399 -1.4961077031610812 -0.9060796368552846 -1.392622086470905
Ni 1.5459488348788033 6.682166021975455 10.156921947312094 1.14570645148713 -0.28537393895997304 -0.09735764941556782
Ni 0.9351028004899405 3.5003676043064744 5.6689482479942885 -0.27793008108741807 -1.2071563312624953 -0.33921206782635127
Ni 9.172086582068713 9.057132740227505 4.597097541006424 1.2435652089088323 -0.03639705057179538 -0.35380384959759714
Ni 7.161874045317791 0.7533000165437473 11.99699539966068 -0.47609708591258 -0.13369427906307296 -1.7960654534725
Ni -0.051623800526291355 4.030209559798545 3.3394303761094473 0.35278235031161825 -0.6039053385085213 0.716532769598966
Ni 2.3314636714281547 7.266590244124548 2.031993654072274 -1.3658787569387896 -0.9075112270954886 -0.9492949959004942
Ni 0.961959273274081 6.174232807539043 5.098886320002828 -0.6471800900367564 0.7024058432792806 -0.8894487131668231
P 3.4002014690705846 5.119246929672788 11.3846345270342 -0.3001611245714766 -0.6187521737133667 -0.5883655910017093
P 7.94867436730688 0.8308092397018599 2.9607337640403526 -0.5013106090637302 -0.020995885525376744 -0.3322461780314794
P 8.221067807177429 5.178730687574851 4.847802344522506 0.21681547316428468 1.2581132819263365 1.3546540918675638
P 4.490256129580591 1.9064858842898615 13.14275042171738 1.4562306644604857 0.396304184853653 -0.4452150516217429
P 0.3904648151055337 1.2956490979976876 6.15351984538524 -0.28767996138533036 0.6146867453947413 0.5722257480170532
P 8.643567104403136 7.251543590811947 0.3362071566422854 -2.0726120239488304 -0.024278412931390447 0.24260466631324668
P 1.8123957485784827 8.055684094092447 4.073800463540985 -0.5327161199582051 -0.6393482526971633 0.1666383380892614
P 4.4071897251222065 7.14852904179592 6.902143099433485 -0.4185989916961113 0.6052631380879964 0.6633055348437091
Ni 6.549539067362039 8.154675721048866 1.6990464515127746 -0.3575180652243907 -0.45703775528828383 -0.030876634974198434
Ni 9.262801162488698 5.240027072427911 9.367584872401281 -2.2269741157739005 -0.6923978242239753 0.6276435626657255
Ni 4.614337842853598 5.862100296196919 2.6141696639163317 1.074399476412027 0.8866580377955633 0.3185591674626901
Ni 1.7606341514115287 0.8746146992874789 7.793430267431448 -0.09599316496787338 -0.8020057517618059 -0.732122653617423
Ni 3.391961414920905 6.4919049287977275 4.837095822985937 1.0527674999645482 1.4105478177113902 0.33837157420292696
Ni 9.124246177897792 9.017180962532091 10.351982802671285 -0.7505050127793526 -0.9484380472168376 1.4484456211984282
Ni 1.3836447379911778 7.528607319510314 13.405042165574802 2.0161487987547795 0.023984021619423212 -0.1653461016403991
Ni 2.1004462161430903 5.254241397038524 3.203763572114439 0.9886261893999491 -1.0787934917146644 0.19628032932541034
Ni 1.3869925489925068 3.278265314229369 8.44804846825785 1.3907055861744824 -0.5495211073306859 -1.2938593291776943
Ni 9.33364158312455 6.108793275369421 2.1429985586273834 -0.3609674572255719 -1.784810192273655 -0.3850741204657884
Ni 4.505950149661406 0.10379786280556354 7.728432794283552 -1.5251902223493345 1.929760760976838 1.4112600132870663
Ni 7.931704109883017 7.232751458340399 9.103451832493128 -0.6888741273414329 -0.7409577354105498 0.6585880747633819
Ni 5.411551521714223 5.3652463015936345 13.02298849440769 -1.1285533367466114 0.936709960146632 0.9183278580950185
Ni 1.7681621021161742 1.0883807550093425 10.068967923753704 1.6220182245136776 0.8094434389867736 0.604502605772888
Ni 2.9287797403613713 7.712274519748961 8.632348238310009 -1.5789033956020744 0.043883074536195395 -2.4041316082269306
Ni 4.982365850582547 6.987159002673859 9.306958974558158 1.0447410301156457 -1.0030487925831821 0.19001712202451793
Ni 8.695014266282671 9.347791171058343 8.063734562260008 0.07985974974112053 -0.41994779241452196 -1.7131982843636235
Ni 4.694389367791449 3.3577064647857617 2.105180316838063 0.9504257670708278 1.5837226713675885 0.27016457820938633
Ni 7.863739847317367 7.111222219753489 6.387549405761832 4.00989454722401 0.581088854834638 0.4121077275448129
Ni 5.738897152109344 0.6324320168700824 3.544506920182558 1.3085038185637463 0.45889049222630646 -1.1636409244783636
Ni 6.626510976102536 4.273083075038591 3.7186957461249004 -0.1347926543335743 -0.04178736834943126 0.5599394744505325
Ni 9.11229763697592 6.734334535396713 11.691173789498963 -0.9965307889590065 0.41632845049437983 0.057633077132436226
Ni 3.218439376749822 2.21649133339357 6.465364740920342 1.083548747011463 1.409797826919243 -0.6785321219854765
Ni 7.685519776028397 3.179754588300766 1.8103630169262945 0.24780369401568295 -1.3918024187830869 -1.0509893250182027
P 7.954472923930728 2.0672270528370875 13.350276786603342 1.1461031727049167 0.9210457712468136 1.0381201823650186
P 1.173213545935279 4.0967681116675045 1.5275654682808988 -0.19939444947435983 0.796401775311467 -1.050835315938842
P 8.503060771410903 1.6533932222087424 9.566773153312663 1.2349227027424863 0.2506167379844458 0.44225545477278677
P 5.5277538566084115 7.746020824566223 3.8770610786327855 0.6697006397367757 -1.0075567077558647 0.04637550194074593
P 1.7955734607016398 8.414047840781649 11.322967293503922 -0.4825186731682077 0.9310159950856483 -0.11217183161026488
P 8.779893297692052 4.150934213973534 11.523658390127224 -0.03232750848811207 0.9837063835008284 -1.099886307829222
P 4.160709452173546 2.013495611075429 3.8800528379115975 -1.0659521169756223 0.8092166676879482 1.456777280992575
P 6.330192710098182 3.129259980380171 6.147700018139008 -0.5349496372744141 2.0366823999317565 -0.9155749779402297
Ni 0.8249857132169517 1.9848912480171146 0.6797702493908052 -0.6703308171216068 0.7384038586404444 1.603807615042922
Ni 5.310238622488927 4.197655598445117 10.459847053590893 -4.236490496813827 1.732821972131822 0.9426605213031121
Ni 1.4737304478363265 3.923976673134832 10.497083590098493 0.8295435521707585 1.3918540979566287 0.5771496676812319
Ni 0.5438481979271873 5.274744427397491 7.220484782892437 1.8008006541646406 -0.8563413890898929 -0.5682202264020858
Ni 2.285602359948626 8.468602363148605 6.1930027445785365 -0.24744348246278675 -2.2414414561521396 1.3805666979682676
Ni 6.16667711254433 3.2470252436147593 12.353142377573587 0.9699201283500136 -1.3308145662458046 1.2834836423703253
Ni 3.072319449067515 5.390373380296977 0.8856818965949104 0.32392711664282275 -0.42535250836986094 -0.9108099524514184
Ni 0.018197479854460418 0.202135649326087 13.162092815941909 -0.6292736420699807 -1.5508238637570388 -0.8749402351380028
Ni 3.926186968243444 8.781594947482782 10.32549347932569 0.32802956884697054 1.893019439691746 1.1935351409346349
Ni 2.064323150476819 0.9491506593601573 4.802484821128277 0.8287112860774503 1.3465504889238227 -1.3823196761036323
Ni 3.6805390239967717 8.494275079556585 3.0407150034433688 2.153757839491226 1.0803371820527008 1.9704003888750712
Ni 4.502408128629614 9.11452642827791 5.528016502554372 0.34036649314576867 -0.07538731579206372 -1.4877421048052055
Ni 4.798828123697543 4.598024200294637 7.135332932630738 -0.1631308391566352 1.8604664454563893 -0.8752197140516347
Ni 7.076625090040862 9.054857708442073 5.299144605701099 -1.431535989927283 -0.6864704029959467 -0.014973333480380666
Ni 5.36134360479098 2.760260922498903 8.248075023937595 0.09490841654412688 -0.9636366093341469 0.2423457562249052
Ni 6.351148897194898 8.15287234219456 7.677891021069844 0.0685864908201464 -0.0033038675622523747 -0.6238123618450934
Ni 0.08601932173110366 8.302774741422565 2.1557220900517704 -0.2455647773828352 3.1156964922976598 0.21830208501214016
Ni 8.163822088674044 2.2189235828227125 4.801970626952381 -0.6679420051744561 0.06017358416610282 -0.3561175853324383
Ni 7.596173913918348 4.883032044048645 7.038905802886111 -2.195270356912716 -0.5691093138752585 0.23539143639425913
Ni 7.138605834048888 3.295226323556543 9.717735384421202 2.178732250048377 0.06915778994258412 0.5642321882886153
Ni 4.4188423269500365 4.295759408119415 4.6998457448378135 -0.2857935429958949 -1.46422576685082 -0.12899481670487462
Ni 1.4716126336946018 5.047444706981306 12.68373408990646 1.0386256612465272 -0.4775135066441324 -0.2872819546159633
Ni 6.874517185004841 7.64031507941377 12.633733330349047 0.7369977223215372 -0.7800318185938759 0.2841956023811557
Ni 8.525080489626824 2.873013717328187 7.726929978571628 0.1029593118730614 -0.9514056144855938 -0.6923883111422785
P 6.347782590000191 4.839159073357197 1.6144087954269704 -0.6336959395073926 0.2236810899358664 -1.0654304401441974
P 3.452786146842837 1.9558152320276732 8.618759085035553 -0.6058845737220792 -0.3286548611357953 1.505654466309252
P 6.2101616631748495 5.252576739634549 8.958216022854266 1.5416460539125127 0.4112376662350337 -1.5353134268262654
P 1.9737380434104776 0.13600990838216115 1.4007638897717296 0.002441005341324828 0.6462346954043515 -0.7566216672000518
P 4.445985490731528 7.3884894065790085 0.5173940173490078 0.6364120528869749 -1.0166581558365007 1.4043141780968527
P 0.5850863858720085 7.233509802268877 7.880652766541759 0.4616852813626242 1.5814930107061216 0.7660846123851645
P 6.184646164410578 8.392407294529965 10.636485700346087 -0.22751666163187267 -0.3210048007897052 -0.025220722240001728
P 2.6100348398867896 4.760235816215375 5.924580437426139 0.5154082248073768 -0.22628176078350706 0.5655401084667615
