# total energy = -381177.30919643864 ev
CRYSTAL
PRIMVEC
9.10629021492463 0.00000000000000 0.00000000000000
0.00000000000000 9.10629021492463 0.00000000000000
0.00000000000000 0.00000000000000 13.32797620747303
PRIMCOORD
 96 1
Ni 4.685978671621615 6.531996760559855 8.066758200209451 1.8377859731397381 0.1910591901357871 -1.7114044256879946
Ni 8.653744217317396 2.0349280838327677 6.276424166599268 0.5278539067698974 -0.23315534797488877 0.1793447299123363
Ni 8.762527962750514 2.165521394836982 1.7416062735388105 0.33577630267192493 0.36657760432349773 0.2522542735878688
Ni 0.8480569892279591 0.28201452947156475 7.85850826570745 -0.09555762009235157 -0.26300431301552124 -0.9599519613937079
Ni 8.055360767111837 8.215103313770781 6.29636238948775 0.5389785559281492 0.1636075216827376 -1.18585551290219
Ni 3.9791393024382864 0.49597775058705307 7.680659681793804 -0.14135848047655009 -0.15582659218573808 1.7556903920895635
Ni 1.6498685931547679 7.40983405136909 0.4334967600847719 1.0320094414815904 -1.443454852852056 0.16973060386133992
Ni 7.803389711014869 6.783976922947248 11.305176358675107 -0.722499528705362 0.36721549501781275 0.7488553929910716
Ni 8.53762990809107 8.73934334732504 9.880015498709872 1.2650241501135568 -0.7000635682993492 0.5905438295999507
Ni 4.60862984074024 4.085664687845671 10.577081997007646 -0.3172900709422794 -0.7598705131546526 -1.4898614651410536
Ni 5.9952993217023565 6.123898355103201 10.057677403669777 -0.6497496505361455 0.6206859004009698 -0.8984275196266656
Ni 2.469325456040705 0.6879237827097243 13.286539420962027 -0.780184027901024 -0.10016889361211781 -0.49289538841684144
Ni 2.10376253316551 2.336792505175679 7.854216471029515 -0.6296780765972512 0.4820790145276278 -1.7945981248983547
Ni 1.8790283917337407 3.484066717119612 2.3417253826996305 -2.418482477631964 1.3444997770423812 2.2566631581979006
Ni 4.32397630830312 4.775047298281695 5.979690229282559 -0.20619244623279973 1.5599463948835972 1.3583981322910283
Ni 8.041409930178677 4.511802654636913 0.7074485800128508 -1.4340716118649433 -0.4384062562300256 2.2795269501699513
Ni 8.51861597368086 3.186892035346268 8.42477382957929 0.19552725320946973 -0.5084009402516083 -0.2570411534535509
Ni 0.19653560249754917 5.3024745334851735 7.205836754496193 0.40530176036657295 -0.16831264046789077 -0.6081070352946946
Ni 5.480502511320219 3.445164644418266 4.66811030854704 1.4903430327631624 -1.616512721314416 -0.9447042912060182
Ni 7.71720777841994 0.8790211085646603 8.152016754955149 -1.5058156744774647 0.6631047316868128 -1.0189397527818258
Ni 5.981730948967103 5.984107690768378 0.7328077775921363 -0.5801288049142138 -0.24778646762450227 -0.7018368581496881
Ni 2.8830424426904133 6.420854485906313 2.2773511944177125 1.1033791514738287 -0.21974061723087962 0.08017650965059095
Ni 5.985154914167409 6.406921861554005 5.555847047678755 0.7284071524390487 0.3513314767977046 -0.22444367913350377
Ni 0.19280930845508878 3.7048305159254946 11.132539304772457 0.6407860135849545 -0.4227402675579945 -0.3176867921600658
P 1.3215868232850292 3.44749585476741 6.046316403186912 0.16970566416067545 1.1647516410440393 1.343167431384203
Ni 8.25046303949628 7.057365974126979 0.7042805015735254 -0.03926100238315174 1.1571596876293941 -1.5418440288559316
P 0.8644209931241013 1.7013828780966016 9.553853673251385 -1.3860804286976451 1.183926414200277 -2.028248924452423
Ni 3.7247823982496167 7.231824286114897 5.973785710570117 -0.8162635472324007 -0.0785194336631422 -1.5585353734686835
P 4.076358059029945 5.933276377608521 4.126581071989324 -0.9881492497635305 -0.3752221673723732 1.4380092563564524
P 9.238878014952622 0.5855572401400518 0.003811893172468033 -0.4383856874047354 1.0072821139382395 0.7160447742189539
P 9.170034459329454 7.381103705073971 8.178353057497182 -0.39749511983796054 -0.5427431651769039 -0.684459286103189
Ni 3.486261333112361 2.4137588718591476 1.5421001991041876 2.2810654983016647 -1.3174648844117762 -0.4416311909252265
Ni 0.46557366811157225 8.042584641643675 11.953102581945194 0.5961442065058636 0.6346017391511135 0.007265166202845553
Ni 3.228571526627649 4.709755195924802 0.7866040989148123 0.7463735071094822 0.04881290773764497 -1.8972525039364876
Ni 6.66039545557132 4.391426601491058 11.53335085662995 2.2205705262404014 -0.019796465900636873 1.245577611353171
Ni 7.654984495936724 1.953672654358491 10.41967885635923 0.7859291579149175 -0.16455471608735533 -0.5775990965138246
Ni 2.397504143448122 0.36245403532364107 6.083767843823341 -0.07786457368796267 0.40408280035780725 -1.0262925936024714
Ni 2.978603854424478 3.5327216268675734 4.589409193537353 0.014240054858781928 -0.6363518890730008 -1.0303235691387354
Ni 5.672135287052225 2.2081297277418503 11.487355894315522 -0.5938597813470611 -1.2723456234756347 0.9678465336504365
Ni 4.021920654861256 2.4461681594865095 6.434427411786781 0.45074318052882373 0.3377776493726699 0.705875804105752
Ni 7.359558221925239 0.06733555392856576 12.299430287552822 0.6226350537075406 0.486142128853408 -0.4206291347522626
Ni 2.6771127909890464 7.730666875670079 8.096519378580831 -3.0029731590592994 0.10482336166499368 -1.4924091712635719
Ni 3.2406373614425563 5.835574987624264 9.64886870755987 0.10454516830294254 0.384031538133887 0.5115191741656159
Ni 1.8502069825343586 8.966955076531534 10.058090829255134 1.026857979187638 -0.981230668266826 0.35992898865872847
Ni 3.8098715759933848 0.46783020687922056 11.387570074452677 1.1517372310622425 -0.8787858341363382 -0.602561422886117
Ni 8.303416118325476 5.126641171642877 9.662542713264068 -0.9956291030803434 0.40933942077105634 -0.04005418770840844
Ni 1.4982124323944175 4.296784925090054 9.067768996583514 0.21313828142301358 -0.4082222764474776 0.14565247986621369
Ni 7.592679256839672 4.586510661294648 5.339360473486127 0.9306539837605392 0.6665767493958134 0.27720297311340647
Ni 7.926288206608823 2.574785405468207 12.806132516374982 0.4787707760900013 -0.6316241445800284 -0.8810640886475535
Ni 5.456443692013816 8.687947444158748 6.28251536426545 2.2751265071094107 -1.0487761194169678 1.1999384733578173
Ni 8.063592853657253 9.06976509544497 2.4921986363335984 0.39522997795286774 -0.528360928313303 -1.8936115647497904
Ni 8.553110601815856 4.277770990679845 3.2751365427227643 -0.6412464981611408 0.7167176319162625 -1.7505409866781398
Ni 1.3200660727838296 3.083089430776361 0.10503195377746369 -0.7143157073429891 0.20263301101631553 -0.3306976025974369
Ni 1.231398122902508 9.179869252989908 1.7972912394959102 -0.596388975526818 1.3167493464019904 1.7270981822741676
Ni 0.8820179887439704 6.546712525888828 10.035126586057977 0.9585951902554974 0.7048170238239345 0.25947727369886925
Ni 7.091705795324725 5.55816095607609 7.720150020856692 -0.9124896541466866 0.03809115044476666 -0.22560221821797918
P 3.996805505865396 7.179299202935739 0.3098624762243706 -0.07262775076905556 -0.2550012402053866 1.0902945503757289
Ni 3.6405674243867776 -0.11587117127194217 1.8961181669768625 0.6520885830819673 -0.058268653833906094 -1.010909940498814
P 4.498170537868674 1.3995275630441162 -0.04209747001195048 2.0722201878270505 -0.08339038860219833 -0.09888899845842969
Ni 1.118707778876488 1.6072420476690465 11.541281524962253 0.057377252367888286 -0.5212615982643604 1.7728157389159402
P 3.9347279240290014 7.9302585492347095 9.649415084985451 2.036078704909487 1.0704898569449757 2.2579181136509243
P 6.541676747283059 1.4278845514317549 5.957365247673332 0.11389369939737803 0.5464183000356461 0.24153174496404214
P 6.490217100083783 3.1939767292979644 2.661449971455733 0.8657943069726768 -0.3200007850052231 -0.9908530218479387
Ni 4.939097120312301 4.727011616282725 2.5799495827689873 0.04347658312639609 0.020999742180118672 -0.1034647907545702
Ni 4.14892608743749 4.019252511766337 8.311819403130906 -0.03957981917515119 -0.2681290358365963 -0.6772260015795433
Ni 2.9430255777287475 7.126000085070341 11.715917409613484 -1.1442797463429326 0.7799192042754117 -0.6075131104644376
Ni 6.665649785147321 1.2778675229481467 0.9468784529346556 -0.7351511560311016 1.7890234590240544 -0.6741512193089616
Ni 3.3659854491611956 2.0062888004419124 9.671180029733458 0.19011302417243386 0.26110992420628576 0.7923152639469193
Ni 7.69436009574024 1.850981017220598 4.033138694037469 -1.644359311213039 -0.1595932583170219 -0.049458511741443854
Ni 0.6321422900741052 6.975955737715455 2.63394168933583 -1.453129914047975 -0.2134360151690905 0.27993579866353724
Ni 7.239837821690081 6.3742029600521475 2.5937310427002176 0.4208553918304558 0.10810023264405254 2.116546777658568
Ni 6.897514151982918 8.491451909339075 4.17961337554523 -0.41714040487271387 -0.5719591246192278 1.9007718299436551
Ni 5.583694994431561 0.9910649059704096 2.9395788468023762 0.6201860779464158 0.5132973491119612 -1.5502548786274462
Ni 1.4580081601621042 5.479600988568011 4.3466127250449285 0.5711775092581969 -0.7166579823229206 0.4891888860995316
Ni 2.525383779905285 5.590597562574731 7.25145835890314 -0.24525213123842277 -1.0582958859819451 -0.45959240338933754
Ni 6.012036683505979 8.286915520072938 1.0596425579131288 -0.12618537228053753 -0.44000651083760994 0.7841959772738946
Ni 4.564154718297971 0.8875910384848936 4.810093767616527 -1.2716041173239199 -0.02845722689942841 0.5071922646554878
Ni 5.095943866615668 7.424886749443838 3.082720626014094 8.124685989663426e-05 0.23062846778797702 0.34761726117091096
Ni 0.21788621103115774 5.420291719021225 12.61918128455116 2.1791896493007696 1.5792142419742738 -1.803166583293656
Ni 6.874748425917055 7.765316310742321 8.108954018158006 -0.5548841714148122 -0.4398357895877006 1.1789140485873502
Ni 2.4477071225685623 8.121135502861328 3.7493994331591547 0.9754770536125005 0.8056847432752898 1.6163031764067712
Ni 0.5303549075755483 0.08753968049749748 4.482171696218629 -1.0777375396463245 1.0557088419810592 -0.5725661620756075
Ni 0.6718630182847796 2.6666587695796022 4.230339966365185 1.6713792914453085 -1.231665372147453 -0.4259281783676729
Ni 6.316478185039546 8.882048024596292 10.033234298907383 -2.566697318908715 0.41896511678627846 0.7932717143229177
Ni 1.1996900196379745 7.4027220385461145 5.808532036945148 -0.07337517045804137 -0.7039197088206458 1.0785430662667552
Ni 5.670851300102109 3.6436726694221613 0.458520846176368 -0.04712986360826722 -1.0717034176371025 -0.1443576723141901
Ni 5.586390456397759 7.710223253662933 12.183903334058995 0.10220803552933366 0.8958134790425862 -1.206515869465019
Ni 4.721484097993934 5.6986163796120355 12.055301568771023 -0.7089557285826564 -1.5070071236824045 1.116164219053639
P 1.1394701210485547 5.172582406843787 1.2865239626274303 -0.8253616528789269 0.7552615536277315 0.055870328805058614
Ni 6.349752570257412 3.5641474351288904 7.00069297565862 -0.8089734413288906 -1.5206702229917939 -0.14167446905507214
P 8.617291736740736 6.512855338083677 4.540215191396152 -1.1767052138614897 0.11299072796713443 0.3536644958062554
Ni 3.3334213545965863 2.947560510361068 12.06540408737001 -0.5208257962785224 -0.261200427037563 0.8606852678808854
P 6.471039252445901 3.8964632916574997 9.353760243084263 -0.056730877033141 -0.5072328880854362 -0.6435340086437369
P 2.2933281809707347 4.656283058541303 11.111706844164107 -0.5972114714281134 -0.09999251593525359 1.255247016122135
P 3.0029085435723926 1.4587821948483435 3.5132942668720086 -1.2398409659797098 -0.14002922014216526 -0.33506564975814557
Ni 5.5915901482312025 1.9102538616056777 8.581724387593518 0.3903173711425988 0.3171067512868797 1.0594567390592657
