# total energy = -340875.62007060245 ev
CRYSTAL
PRIMVEC
9.16684502437639 0.00000000000000 0.00000000000000

0.00000000000000 9.16684502437639 0.00000000000000

0.00000000000000 0.00000000000000 13.41660429206858

PRIMCOORD
 96 1
Ni 7.374451984311032 8.256889173786982 5.493012918065261 0.23985281459972244 -0.3252435214614011 1.2504994741348208
Ni 7.300988886616565 7.418040333392289 10.38383468905362 1.423176562218994 0.13039863903093674 0.4488444208442141
Ni 1.368912499127524 2.883953678108744 1.0900726507871656 -0.059061067828214416 -0.34613964818411996 -2.7300950385734915
Ni 5.704362785064748 4.251326147237182 2.0459252703623734 0.039687805507925195 -0.35789756005099654 0.5448653537262294
Ni 1.951795520090893 6.560307791818335 6.274342554678636 1.9409208913587155 2.0893792161048403 0.949528709177855
Ni 5.8197091986272005 8.21971761636858 8.661411053689607 -0.4061952187151198 1.149887065227381 -0.1316062861857927
Ni 5.148714461287587 4.244166841110482 9.427231304853859 0.3936940009243155 -0.7210972490411969 0.42682112249558746
Ni 0.5639104013853503 8.056098595810987 4.893759744885424 0.40043491919257485 -0.42529928653442234 -0.4957981638859332
Ni 3.254330892888789 2.3793280148965192 12.884837907461215 -0.12593828926673795 -0.22570377679285 0.3648937888631716
Ni 2.2306967862943106 7.116506126309456 0.5327422109098124 1.2239258374113502 -1.8486020899186355 0.0983045867098694
Ni 0.5176059160616585 1.8215988172515458 10.4899464227287 -0.5099281755294122 -1.5049579544628597 1.0858074611386526
Ni 0.7206808718696305 4.87192156948768 6.81979459650352 -0.5298588530150682 -2.849264384547512 0.9119561502407197
Ni 5.80214552316144 1.6873412019741343 11.286732277088849 -0.09322717218696203 0.15015808104605108 -0.669277436156428
Ni 1.1745020454334543 3.469623420022838 8.936331159008484 -0.24294790858527834 -0.14216554975887774 -0.3675643937167992
Ni 3.99588283798412 5.553568180987634 3.1156841921139837 0.9365032434524645 2.114184705184295 1.2239919147625953
Ni 5.332793880404458 7.442534143853933 4.368365677114105 -0.07446120443336854 0.1340776305444207 -0.23314146401781782
Ni 8.197359680846144 6.960788926342407 0.8530556171362556 -0.34305895237626727 1.155551719712326 -1.1214383229683846
Ni 8.255266642180803 4.652393959856144 8.39705023739422 -3.16643901295785 -0.8255652842493008 -0.3655782165247059
Ni 4.513140413926938 -0.011175301023125262 12.277574744917086 -0.20986243888521922 -0.32565309819499405 0.9031115553658963
Ni 0.6226047947254937 2.7569378705651264 3.299935031236706 -1.0983966106575729 0.3849386233291887 0.3039193060623282
Ni 1.5897326339368625 6.53097388707385 11.466273191131034 0.5875479801964204 -1.05174394379604 -0.4991303135829597
Ni 6.827017153862327 3.8551992641986197 11.303475519906286 -0.36489533152506837 0.33572693749122823 -0.12527211643764877
Ni 0.6929814156301278 5.795902901558005 9.285041618396633 0.519039650912377 1.2642916428229065 0.8719274164536079
Ni 8.173030873598687 7.297248813761643 8.006184206834677 -0.6026182442659815 -0.2246804777346582 0.11212066665735528
P 0.7905762333995504 1.302737043393014 12.693650516550946 1.3820201425853424 -0.9016354850410021 0.09181615077204833
P 4.39410892858096 0.2491053524592074 10.074340910255275 -0.6549684757329235 0.8391551071185934 -0.00035198402278003893
P 2.1345640803394956 6.877031461451672 3.237668318309398 0.18233363733733113 -0.11126346086338258 0.2978815845086805
P 5.5736069046662085 8.865512696163636 6.409984363586179 -1.2929828401100119 0.5117523732223445 0.05751712037986223
P 8.854750819860502 4.016453238686189 1.780356263865324 -0.695620444926331 -0.32021572922950664 -1.1108929433523707
P 3.599343446910088 1.1478815268778348 4.227155926412251 0.6955551389060344 -0.051996447671949164 -0.48022164960391495
P 3.183122839121553 3.3605287949090545 8.322615454105092 -0.9109194814460894 -0.341958777333553 1.554901119150206
P 8.261665100153193 6.231988062965694 12.033821913389223 0.707887178108826 0.7186313039992075 0.46453920587165154
Ni 6.212407681548751 5.870924362942024 6.667194123915573 -0.15706252147536823 0.590142480396474 1.5201475177191046
Ni 3.803938265657633 7.256135512893201 10.391709925792991 -1.3802339972191973 2.4432131476094243 -1.5220431920799207
Ni 7.589176167040658 2.493546906495355 9.308037566347263 -0.6239522298570673 -0.600081850997373 0.702390416660313
Ni 5.149044467715961 2.0209318668355496 5.72199429518523 -0.41227356369871576 -1.9977934361760432 -0.7343919092675739
Ni 2.6397764216466095 1.7997817255978357 6.753395469745334 1.2950492357207375 0.411881984687252 0.017302238723873424
Ni 8.432443426837487 2.7625663135379743 12.884837907461215 -0.29290675700190844 0.9507067886463563 0.5155990006619443
Ni 6.743773032304619 5.282926242338835 13.210163744660873 -0.2337880964628812 -0.7664090856041188 0.9580537159297308
Ni 3.1832878423357407 2.365330242226261 10.390247813978384 0.9297540976540891 0.020088286109442823 -0.2661976231418383
Ni 5.262475010624789 4.468378708655901 4.9883340871506885 1.1479705649309584 -0.543872907905973 -0.9508952505080785
Ni 0.5264427548659344 8.057473622595884 12.576778739941782 -1.253699469129357 0.9871735161138225 0.7202683253819983
Ni 8.704396224354555 5.902879985423046 2.6587957921353147 1.3723486809338494 -1.364148147400928 1.4938160789134272
Ni -0.03772890160854643 1.843993420154913 7.437145872226181 1.8353750497054002 1.12651522327066 -0.7265287044694133
Ni 3.6320874180811185 8.687666731804967 7.818190544803463 -0.1160156308363873 -0.9229162487966492 -0.47900397514672993
Ni 2.091727412567316 1.048732928841478 8.834592927193903 -0.6846161233960274 -0.7876646525487854 0.3861735241775543
Ni 8.424523272556478 0.32102475341649683 0.7350224012361134 0.6431953943573956 -7.533332262567671e-05 1.634527926944914
Ni 7.31193409982435 2.2148473108870563 1.8957934291955794 0.08688734601186326 0.46645750594028695 0.8405789840493135
Ni 3.8761271718647623 5.829783561537884 7.752382679562782 0.38122543614365956 0.8465501140310839 0.7068525661967245
Ni 2.843692893846939 4.980127010613895 10.086844487152613 0.9584746055172333 0.17705207722341765 -0.8472103733229022
Ni 3.708520573630965 8.41274387643252 2.619323356563518 -0.9907116111740679 1.3651904726225133 1.2837623499530086
Ni 0.6141877974328732 8.349465143791528 9.713782303403923 -0.303683021681806 -0.26184757370325873 0.1628655013103905
Ni 7.921740145236016 0.391715797112611 11.941234026485875 -0.5096564099252642 0.49169442613020486 -2.022122499839711
Ni 2.2572714706237664 9.326806681961116 11.349373913986172 0.25286182526488066 0.31700930647706693 -0.6164597781347642
Ni 7.241743565877938 0.6740161295282955 7.607496107238112 -1.0327717735689117 -0.7921998214149776 -0.7834963801037087
Ni 0.8730906740767383 8.164652377056044 2.1231779418760195 0.156652173410827 1.0855500937122078 0.2326768656765735
P 0.9216621202264648 3.186807910905079 5.341526217173082 -0.026895024618631098 -0.08668345753117328 1.9590798216559293
P 1.4728736909110234 9.004812076319006 6.9209690673362925 0.00521676831424908 0.5107807533376946 -0.2304690593919773
P 4.054578148008787 6.057763002473923 5.497238833717514 -1.1374136153507186 1.2890251410138447 0.758531482628255
P 6.8048333883993095 2.8079330305943655 7.331155140908173 0.9510366611819492 0.5198325791273176 0.0584260053473768
P 7.805926222566699 0.2956142584315873 9.659646582197977 0.29302142820290183 -0.2366011404316441 0.43983193293295864
P 4.118755231482578 7.01580833142878 12.496252587995555 0.17816742177478348 1.2072879717443532 1.4269041475822264
P 6.331402499513798 2.849999683367003 4.085100992579946 1.072430011390482 -0.3028175883577172 -1.7048033754317091
P 8.818569281727228 6.498523254950265 6.11536929128495 -1.4328187132944485 0.08406633162330039 -0.6253228849523489
Ni 5.862225026816238 0.6939952687128591 3.875358990234266 0.11878265205856316 -0.20273148426739276 -0.3644266194187659
Ni 6.097400441259907 8.704643729175837 1.706055316516592 0.20850386797479575 -0.4843618970245336 0.17642035717668972
Ni 4.807661984406793 3.572026248116787 7.180607124967817 3.3843646884671776 2.1462183365810716 0.4662962977720743
Ni 5.654000137356562 2.9362046959348564 13.435119960039183 -0.0811805254350731 0.9392327265684857 -0.7349482959916762
Ni 4.567811478894471 6.90191944625832 1.2930128539702175 1.1961702645646368 -1.3863326539177674 -2.0888739943336474
Ni 4.434314711771369 1.33957859438304 1.4141774642018332 0.2531577592387447 0.005012879833559109 -0.021860804628833316
Ni 7.916790048810384 8.005580111733845 3.209385850713099 -1.6559549864704384 0.0823012693030776 -0.09421036203583774
Ni 3.0016468040507545 4.048803035512216 6.1673315534862345 -2.796409959750642 1.562173484441903 -1.575649664551467
Ni 6.5012183074486645 7.674904503656413 12.75776893221525 -1.0814718098777762 0.3325585670655756 -0.06273183181158229
Ni 3.3069760850599055 5.088011612156969 12.823845386021246 -0.9302832306846818 0.7485499459355108 2.392495052429267
Ni 4.892501137034981 1.5818949812629457 8.385578847270082 -0.017616427530182565 -0.3034943027097677 0.6657658234587438
Ni 1.2555369572900923 5.186637700015065 4.493556365771901 -0.002604527502382611 -0.007770645084354359 -1.2712158807465654
Ni 7.268354917588326 5.990524192692425 4.604565028170263 0.5434057384615674 0.13098305077949698 -1.08161167788975
Ni 2.300007303098387 1.328349208973042 2.471473143175131 0.4826150895367559 -0.9003661314102752 0.8028963818968753
Ni 2.4001184198841727 0.07501779464592559 0.3549063300808995 -0.013648701131686172 2.411490876805479 0.28762699666020786
Ni 7.627337743744185 3.9167546299358733 5.581227303108112 0.8637183982802544 -1.2086663401491184 0.6045874521772104
Ni 0.8379789067821138 5.334948089034132 0.19946688552440034 -2.1978183201455503 -0.8050589367658328 -1.5071364501714173
Ni 2.1463526433086852 4.946649691824253 1.984865830952206 -1.4900309008393822 0.7238539858507276 0.8000236883347706
Ni 1.4749087305526718 1.0852444734031281 4.9632444317489215 0.3233889847511656 0.09175135897238393 -1.3294089441475299
Ni 3.426227574691467 3.522855290288845 3.8824431282300593 -1.2568393003099192 -2.4780449105766293 -0.8167266029117483
Ni 3.1065521808932166 8.455158869323999 5.310587197828361 0.7650746830634114 -0.21218697325333777 -0.2943913119672349
Ni 8.376919845263318 1.2419883600362336 5.153237382725377 -1.8600715240108159 1.084906546590938 0.6145990707769415
Ni 5.450817012774844 6.016182192498617 11.036056644041288 1.329249278641214 -2.308660377200798 1.7336483246878593
Ni 1.6252999934395498 3.7991073382200256 11.678376572808645 -1.4952085883855797 -0.2203003463890916 0.410408485465519
P 6.087536915789574 6.1949356745353175 8.946996783436674 0.5443012536926433 -1.6356707823001055 -0.8279422691219096
P -0.31702067541887474 0.7113994410715709 3.1947078981265777 0.895225210639284 0.21612796017895683 -1.6400429432258723
P 2.2910696289965524 7.111372692979171 8.811704231332495 -0.14197117435988452 -0.485336602232977 -0.05665194416608953
P 8.839671359452792 3.823986156181442 10.626353663213168 0.009796674375447643 0.9398765308000716 -0.21491208549398472
P 4.27524244644917 3.890390783046768 11.563865258846887 2.600784490400411 -1.8184098826059714 -1.6868848432800754
P 6.396367931677598 0.923128815463689 0.10202607075488627 -0.6048149948069842 0.010426080429330431 -0.94273636884637
P 6.451772344263743 6.321291469222184 2.3847877879170865 0.12306790969747838 0.3365018679840398 -0.07048730738728505
P 3.5549392486031244 3.5467349221199016 1.4961253938436434 1.7219490339730603 -1.6087297349348875 -0.21363887520851593
