# total energy = -381166.06794926984 ev
CRYSTAL
PRIMVEC
9.30862621625408 0.00000000000000 0.00000000000000

0.00000000000000 9.30862621625408 0.00000000000000

0.00000000000000 0.00000000000000 13.62411539785035

PRIMCOORD
 96 1
Ni 4.867731917746783 1.8683808865683842 3.246640268555879 0.07501450583367725 -0.3450523286572122 0.03709844751419417
Ni 3.0757469255364023 1.0582697748115482 10.446930505663802 2.4599430587695954 -0.7842376291451074 0.4792993948999616
Ni 5.822396684125946 4.45858056638676 0.6451278154447911 1.6530085022476046 1.5623884286661867 0.9323627389215298
Ni 6.508014230494219 0.8017454494856604 7.829615728894601 1.2254530726891542 0.6872476474816035 -0.7298063467794205
Ni 8.065645252148109 5.096575181655295 3.9459256706187844 1.2138864508974772 -0.14477907612232485 -0.5796480086230533
Ni 1.910949233698779 4.464491543956802 13.172216967366344 2.3740602427628468 -0.2767879970631749 -1.0461080856665015
Ni 1.5444406984779089 2.6035482496379667 1.4630805138236793 1.1393609688850763 -1.6751801532486374 -2.274694304667999
Ni 7.940686255454818 4.294199538183033 10.307542207661344 -0.22930769209402446 0.09714656184602623 0.35371360387663603
Ni 3.7150540570842687 8.22306342803311 9.081808387683552 0.9649483861670348 0.317813290435601 -1.0501909974866237
Ni 6.860652912834203 3.186519576061593 4.68314000056656 -0.1428785166655023 -0.5895711812740363 1.125305776343591
Ni 6.932710987432145 5.344361499666225 8.440875039156968 0.08711643130353383 1.0310290798461923 -0.8821763478751258
Ni 4.68666052295552 2.267674402894273 8.298735111280958 -0.32803316839139635 0.6610247092293325 1.4594440291914608
Ni 8.159615832572632 2.2721332347935643 8.721205244857067 -0.0004900522625410916 1.0887531740305378 0.4285257638915201
Ni 2.846438230323161 0.061252621427383504 12.655794870617905 0.33000700428831553 -0.9198499511664996 -1.3128631239737067
Ni 3.123462942897085 0.5965749525982076 7.45010211215703 -0.3138615048767046 -0.043473240692286426 -0.4349321816384962
Ni 8.59408664690984 9.247096076068889 9.519414347289405 -0.41774358567435155 -0.8027688551800755 -0.09714681895634236
Ni 2.591149159680021 6.377432823639816 2.5120416625406734 0.47506761620680116 -1.8551522323323277 0.6786737897696634
Ni 2.3367164826375793 2.44072176199203 12.137356525457381 0.06655814753620795 -0.6234994585903649 1.0460651482437082
Ni 3.9348307191766856 9.332270004834058 5.200488305611409 -3.5023880937622134 -0.8250063264220372 -2.548449942662753
Ni 0.7649223863808241 6.083168535538778 5.17779015174245 0.09049203264398609 -2.650807359285757 -1.620561437462493
Ni 5.017824204895368 1.8432569047391831 5.9776077847639275 0.5982633097313954 0.8269081714304404 -0.6342739234980496
Ni 6.409445188778986 3.5674750989812107 6.900818703569594 1.864516704266363 -1.2307305190380096 2.1854261171287845
Ni 2.6880147228199487 7.150300122392341 0.14795781918510573 -0.7422432869911927 -0.08550049296666565 1.4535968263820644
Ni 3.5583712626607373 1.2435486685975488 0.8774552981004956 0.6551998750174394 1.42239648951986 0.4058260083011591
P 2.939040442711783 5.130318951248053 4.686872759630476 -0.5665474666853533 0.6001957508674179 0.3147158824571999
Ni 5.076152056003845 6.251310248684705 10.090142037810866 1.431562215179528 -0.3815347398539623 0.3846015517047441
P 2.4115671450638874 0.8624116274690871 3.579109950736794 0.2674600347940297 -0.3377036016016248 -0.5257510014942817
Ni 7.92258097770091 7.7535828709542844 4.226132071591827 0.7616114071051594 -0.1911625484828708 0.25981845908837187
P 4.816376227583128 4.4432120247046525 8.578315041717836 -0.2774662540771221 0.9274393334779832 -0.4210765067023264
P 5.067234392205261 8.998295117813653 6.872276594238473 -0.2178752818873667 -1.809597426520664 1.7356977510177203
P 6.522489144071249 6.3621108250881795 3.3041340667662813 -1.137110482288003 0.5751578340621837 -0.8425582192628716
Ni 1.5536934728158953 1.28410635249152 9.048074857579499 -2.363463955304239 0.6142465725335292 -1.5940551636418483
Ni 0.7091497531353045 3.9776969423421065 2.8611868175073725 -0.8596627401536421 4.2486068204613865 -0.02487953685049909
Ni 5.350849612054129 4.143893152634272 11.42358876291657 -0.6947881788330228 -0.3654247216659771 -0.8151026941550801
Ni 2.5344875526424713 7.387334977264062 6.4569042880594605 0.7566635761815806 -0.03695009486178798 0.8275378345946394
Ni 4.8932654791241434 1.8436478670351546 12.077423867210205 -0.1742796566846031 -0.9189420946402497 0.12213588480151222
Ni 0.9852715289780565 3.581261174227245 8.924054170396538 0.28749458484740165 0.2039761553077713 -0.2663655161782703
Ni 3.258484564398589 8.530248089153389 2.0104426219851996 -0.2320657144551358 1.147232144103037 1.5610023469519374
Ni 0.9298181816075801 9.285419689700168 10.993639148273486 0.6297102153867671 0.5035333277466618 0.2971331363784302
Ni 6.666744922658551 8.12230685918566 9.027638699851515 -0.1296818154695702 -2.555077989502232 -0.5477565592310953
Ni 0.3290040806859127 5.9806805622377395 9.138429967628895 -0.4492349714144134 0.3787839165817025 -0.13537680897181847
Ni 0.5363490726290534 0.47815340401112133 4.95654831190275 0.5725538207804333 -0.6408672604448511 1.3802208845930746
Ni 8.891283152230661 0.4135254747618526 7.452336182419723 1.1757775598408977 -1.8061614042559218 -1.6705303131814522
Ni 8.122930537133994 7.944270076501222 11.722365872948247 0.19644333726583588 0.4470361639908817 -0.6168235892320861
Ni 5.490665175994328 4.345387673076985 3.511928665349789 -2.365767406626435 1.7443628828918862 -1.1596641992188028
Ni 5.672155458959845 8.20544219883612 11.709776887017972 1.9963695592453232 -0.30057661484234044 0.43236339247005534
Ni 0.3520196587046972 6.783251686857987 2.693201489279834 0.47740937696610036 -0.9428561822536858 0.5018826795171163
Ni 7.776500708399077 5.9770781239391475 1.5397565978271293 -0.08368657968637845 -1.4614710869238183 0.37357640423883404
Ni 8.569204689359097 1.4487480222258946 1.213525556854784 -0.7362261342628352 -0.20952613859172303 -1.2764143942283694
Ni 2.6603494860669343 3.1662640056798437 3.914631000551504 0.2187360872257652 -1.219374213484926 1.0851896250489956
Ni 6.864180882124039 5.6153356052786885 12.144222568064725 0.617691079438704 1.49778869040793 0.15746952710579978
Ni 6.1181875869064895 9.068026035887957 4.942992159721251 1.3873286992824494 0.033736215910180604 -0.5423389877599498
Ni 7.939327196045013 1.548918147629389 5.644552590001665 -0.7508703665385714 -0.8085682354706719 0.37274979457248064
Ni 1.3513518673985774 7.319242377382401 11.962572176730381 1.0505846333806166 -1.0218587262008336 -1.86236314825847
Ni 7.1007316884388425 3.013677006737917 12.512251201926835 0.9992031935848469 0.24775715704846363 0.15447522036416625
Ni 4.699404032078964 4.377148705311603 5.938057294213388 -2.355874058772123 1.1039288533297118 -0.9725197707563896
P 8.443733718230604 4.349222827027941 6.702955478166366 0.15396922726202517 0.29742881324197806 0.42340875437992886
Ni 4.6997577598705575 6.612242916874938 1.5604654982996833 1.5602472139534678 -0.7813111995269317 0.4834396423205803
P 1.0665637606617957 5.336607414129461 1.1314635017930255 -1.1196992287900909 1.3299727870707998 1.4265480497943883
Ni 4.600825681737639 6.546598485656143 4.287072854045043 -0.9132154765691175 1.0336688314618843 0.3654728012950932
P 7.3635979807229495 0.9578576251295954 3.423821588502227 0.245820345037067 0.3891650027057104 -0.32993912716485757
P 7.724065217608454 6.578527073160464 10.193453824521274 -0.5517839352229337 -0.7924569317311061 -0.4518911780903379
P 6.328562536643408 2.627294554805174 10.147567883050778 0.28524589802254097 -0.9986604337074995 0.0203803634285649
Ni 2.9184963049211032 2.9813109138071527 6.729536259979364 0.29682768932286946 0.04774410015349842 0.0037139585164774743
Ni 6.568045560177995 5.776067652053351 5.579920006439349 0.3648824760092619 -0.11681138726480526 0.5860204878083005
Ni 6.103377562790055 9.13947904978975 1.924896348176249 -0.09801790870738603 0.3640216706708634 1.214797649857837
Ni 0.15628252350146524 2.657715144882176 10.925913308259949 0.9910317135176482 0.23393079268833258 0.6171830294540339
Ni 6.9724681294819835 0.21385265244584326 13.287204563787151 0.6259034400461673 2.1676489956510214 -0.4639540227921429
Ni 4.793477007390526 8.474601122360145 0.20359733907747324 -0.9849646813879617 0.6371602439069091 -0.9570651267642163
Ni 3.3229374914772807 3.610527494668523 10.214394509783581 -0.6215371926576715 0.25834727385948414 -0.4300529991693239
Ni 4.06995473556523 5.870429194773844 12.511937501227449 0.8110452362562548 -0.10150175349092841 -0.1420519069991489
Ni 7.59174309767437 7.577035468444976 6.666320449308639 0.3864146936540829 0.7168919527105976 0.6087819498745322
Ni 4.576548784883042 6.549707566771725 7.435592756663448 1.9339282620909661 0.40572753505008186 -1.0118782179493542
Ni 6.896556283680898 7.454319850640472 0.17193870172989545 -1.3362565631969827 -1.3735738115902023 -0.020386019855519726
Ni 8.86562857871407 3.6902465685422823 0.45585924451466475 -0.26643365041204436 0.3150436981102639 0.6752470234763016
Ni 3.511083442100404 3.8296060098038485 1.8247048129327372 0.8340427255926925 0.4512833693030099 -0.8269577937214531
Ni 9.24102685185524 5.301988633683816 12.419103504049072 -0.5860086607337585 0.5060041578846575 -1.2672106162419143
Ni 7.154060807334542 3.227421679121063 2.489262523624691 1.5931614481829852 -0.9135409782293364 -1.7105479912249701
Ni 8.4018635180573 8.44654492331116 1.9737666351726573 -0.7068584797339955 1.4471428432266045 -0.09028480172918645
Ni 1.7208857061001777 5.06298035008005 7.239595910792178 -0.435637692345953 -0.021639432646646604 -1.1510011242271663
Ni 1.2683561571395348 0.05780749890978911 0.7722678232320366 -0.7075624477795557 0.16720012413000235 0.018840015524638522
Ni 1.440630900271444 8.18217994222583 8.974776873985762 -0.33680680081896835 -0.33810906457015966 -0.951270117348994
Ni 0.8048871107925722 2.2530784771780126 6.912521508295667 -0.5910415951719756 0.17653631392926372 0.17923520091766548
Ni 6.05694613583042 2.077210604373606 0.7607968032957179 -1.0671322533266525 -0.28748532887602096 0.6595172714458706
Ni 1.8932069923625594 8.024510433436276 4.226840458037622 0.7732729026034877 0.2503830247070849 -0.8134643872207086
Ni 3.102620929071379 5.859482250486648 8.963318886125975 -2.1782378269104616 -0.6144023813851032 0.6706599183262514
Ni 9.178752143282674 7.401828508093282 0.030298647075163457 1.1734694805330115 -0.5218277551804754 1.6617003735946478
Ni 7.7101395129710015 1.141861237140642 11.184990058860963 -1.078786292625813 -0.4044183293203551 0.25612044141149437
P 4.307780823654987 3.539800553602103 13.35178315731812 -2.3087524226939724 -1.0769608093813 -0.9314870211847958
Ni 5.515714688814773 0.4152196447110614 9.98476001265703 -0.8887187769793339 2.281038501718472 0.4917196229411854
P 0.4972379492301757 7.81522459295242 6.140306744232369 -1.7552990701884155 2.9196179945704106 1.0438604272829053
Ni 0.260649908410994 1.9108375301856442 3.2272261979730774 -0.6820270225126125 -2.1282190717901734 0.3986739706374101
P 0.2901200877637422 1.1922022870599895 12.525998180943274 -0.19311838665766096 0.5226101418724547 2.561402646168679
P 3.8178492150464267 7.7645670497458585 11.101324127523114 -2.8337153810693194 -0.3562633668816832 1.0794488659104764
P 1.299046697373279 4.834444270832657 10.661959768447998 0.6720987076553071 -0.5768691603263355 1.0598537173873683
Ni 0.09779177143633588 3.428339064745914 5.020063860333718 0.5123025892988596 0.3770432797415119 0.9819354076433349
