# total energy = -340860.0353488718 ev
CRYSTAL
PRIMVEC
9.42458244473634 0.00000000000000 0.00000000000000
0.00000000000000 9.42458244473634 0.00000000000000
0.00000000000000 0.00000000000000 13.79382905926670
PRIMCOORD
 96 1
Ni 8.603861654739962 0.08253672439833051 3.163021857840196 -0.844520742305881 1.1205739180855605 -1.5683130216807377
Ni 4.890877705054949 8.075849415722827 0.5764385716854399 2.8563901969590164 -2.001148211580889 2.627764875643997
Ni 8.38703028333314 3.6118393294416955 6.568676766815143 0.36255228521418853 0.1108194313474285 0.9277684346826279
Ni 5.722022218159494 0.08025314803931485 2.762476155752696 -1.315119266997735 -0.7720506001606123 -1.0469133551766163
Ni 9.026629580091694 8.4028730066493 4.968371335314983 0.3679341183513921 -0.010006476393408573 3.490353274084866
Ni 8.79725408927154 1.9573915559387578 0.8363930631430757 0.8818616448481845 0.39690685143465837 0.38970699125210945
Ni 1.8889313880811855 2.1065732735898464 3.057263904424206 -3.5236673148559636 -0.20829817972189288 -1.7320786662078946
Ni 8.154393886940477 2.3563718348598006 3.260557805413819 1.062408879709054 0.7637809039526523 -1.4950638352775993
Ni 8.186258400641805 5.645438060118384 8.504654728674993 0.9917169125101308 -0.318545026395303 -0.4609579162782964
Ni 5.266070337545305 5.631706443300035 1.01209084388162 -0.5142224320293918 0.5434877566524124 2.8531135830902734
Ni 2.2353696191214514 1.5886547625153675 5.391152455082324 -0.34214286831990104 -0.24852745955558486 0.8084134550603627
Ni 2.739377446308571 0.44417586468109044 11.547931610092945 -0.15157270200539058 -0.4715148658585363 -1.531069049727615
Ni 2.820070722354349 9.13397557567233 2.943934241363838 -0.014384036635813937 0.06679211792388497 -1.71839396963195
Ni 3.177055061301088 0.2314102581990691 7.200420673993673 -0.9844874846412272 -0.5748112493560423 -0.34937486729196604
Ni 7.418456507054157 6.955351368262117 6.735927294187671 0.5309646844847372 1.4253113491738099 -0.11696051124815986
Ni 7.3404303878783805 0.09842562816912906 1.1158008355030813 0.20409519738413884 -0.14532569265441422 -0.5426344075131816
Ni 0.6410158115202532 4.033956958595439 2.210971259739612 1.5738617194131088 -0.35791864309691906 0.0874838419452816
Ni 8.45707378106407 0.548344833474174 7.623545791025166 -1.3865892500132635 -0.21741222620801912 1.9046827349622877
Ni 7.249633959307365 7.329196285443603 2.2485593224414777 -0.4029972806031124 0.6569888485970621 -1.1707531100431128
Ni 6.115950920817919 5.660159258107581 3.6011961483346533 -0.12135812609522326 -0.35761782402704867 -0.009028685861171547
Ni 1.410643246753553 8.85015427129034 8.768516652070094 -0.8521162952649518 -0.39658546353949764 0.28305069014343515
Ni 1.2355627761739665 6.2126000151708105 9.536874596029932 0.375149919373541 -0.31137961899511535 -0.6998267696981947
Ni 1.3689865917521118 6.138569919008747 4.786941523451579 -0.4074941400322014 0.858818904096108 1.0947453870582307
Ni 6.102209879416991 3.6081354684879474 1.8980034912722235 -0.5324340699414121 0.28992916243082323 0.9550902624260326
P 7.604582588416931 4.577651703024882 10.176356085506242 -1.656234722494386 -1.3831285451581727 0.497685096496001
P 0.5497754851097437 2.757500918608972 4.6969508966911135 -1.448737184296918 0.12885546291353292 -0.2765108321423883
P 0.8780911863078666 0.8984784433438662 7.104966616711863 3.2584048019338847 0.379096819836431 -1.044709148436446
P 6.03625665052557 1.8425058942945116 0.9312986097187572 0.7270552663968446 -1.3783802318399099 0.6199857890101516
P 6.753354289835445 4.508117132753245 -0.09163238904581714 1.0831103739224637 0.6693088036149957 1.2794025303224161
P 8.088082523911034 6.666318269713656 4.074283804994911 -0.6515733340084456 -0.35146208883829794 1.0941542904414512
P 1.5964394677260443 6.050346401481939 2.4399905013382592 0.8514544933112369 -2.1778873855495786 -1.3133470055886607
P 4.869710092581366 7.2825351770924405 2.80847848578155 0.19476826355625812 0.6275222065965128 -0.37265826329993884
Ni 6.5215849550400975 6.708465003009232 9.779894055050443 -1.7416405988647166 0.11703353057794039 0.04925385192980549
Ni 8.618064500687286 0.05362681733567878 10.340668028030478 -0.20613768173546435 0.502939917137037 -1.8108451828848362
Ni 8.952165953130972 4.722149403133954 4.420853037733032 -0.5760317520267048 -0.6714271355095792 -0.005863657869628611
Ni 1.0483528678145488 7.833731889255175 0.8717503271483713 -1.3736545442294665 1.4743885663164351 -1.3605516882989213
Ni 3.81609830768745 1.2381356872181732 1.2581007229546106 0.3669635269080067 0.23327850381631438 -0.6798688385190291
Ni 6.718266568891924 3.4711020377818493 4.611883671870184 -1.0172309976208354 -0.8623264030287342 0.13683231047142239
Ni 8.335147956232928 6.31659085935314 0.02801551417585609 -0.5754882208184089 0.1814977716995971 0.2307865906323961
Ni 0.5507848579040094 -0.01828086282947859 12.316537420574626 0.8263574411332929 -0.6030399051844323 1.381195332691202
Ni 2.9667643502044467 4.398537511101265 6.306414195083784 0.1617090191084441 -0.6417900293694366 -2.4992637107460896
Ni 5.196092811892431 4.337711255133097 10.97479823951814 0.19722906639192483 0.010377743689898257 -1.91114983074387
Ni 5.972273159393265 3.9482026817044638 8.476101070833845 -0.12479980478692056 -0.1168072734997472 1.4919006070582694
Ni 3.6410743846033404 3.8961412875352415 13.016092141871 0.6838540484190222 1.062692472387744 -1.0217288854911888
Ni 2.924740136482405 6.659033067379694 0.8472435850668674 1.845223660364706 -1.1288294732261333 0.5816352142564112
Ni 3.612508474804841 6.645838651768377 5.303340791814241 1.690015418489257 0.7854085095247569 -1.9638245354297659
Ni 5.187111184694157 8.91341206956402 10.411568220317886 0.2122723338782925 2.2204329722212726 -1.7636266162175045
Ni 3.0689739482792495 8.756643562936425 13.650179942737054 -3.0198390815767024 1.6472487169456924 -1.2353011691278273
Ni 6.304744159050695 9.405469526040319 6.897080116631256 1.0679755751635542 -1.2282771724015105 -2.846936250634968
Ni 4.605981998258894 1.9068946424777349 6.238176447375088 1.5123336781016405 0.3728680653178998 -1.36335239097251
Ni 4.128787108510484 2.3058183739033002 10.467930051518138 0.3814650629582914 -0.6383583779800683 -0.34969008453953965
Ni 3.490252789583417 7.294429000307784 10.253188110069194 -0.6651179054620998 -0.11178050970911717 0.8305709649940083
Ni 5.297539018778293 5.804958544859196 12.653051566158668 -0.3378272716636827 1.9359941434810592 -1.4523575546583245
Ni 3.5374699483067698 3.066608378051792 7.884704744136464 -0.0785500297907615 -0.9249960141438134 2.0757037755002767
Ni 4.176126786807371 -0.19276569979003985 4.943791081489358 -0.14547713063061396 -0.08627748034200625 0.27574927138601546
Ni 8.138456917798523 1.5133900460353882 5.480246804039479 -0.4801074926235538 -0.7773563286442419 -0.2758477446370927
P 7.660489212278593 8.180292639868975 8.677298002199517 -1.1938508724028407 -0.3678811536262696 -0.6164026996445836
P 4.893158454039191 8.031186318878522 12.18404758113011 -1.0496068428483794 -2.0176912035412347 1.2121170177018803
P 1.5660263397419603 0.8935814302355519 1.1468227915218017 -0.4777107102566031 -0.38361759052492 -0.20111631726147297
P 3.165519372223766 5.110150043349865 11.243129299972447 -0.9797399426539126 0.841113516396545 -0.8788840502770994
P 3.1409966083518768 0.5251971162006355 9.329801437425937 0.7257177785323436 0.37965294945021716 0.9418431676081391
P 6.317033814734378 1.8344949991019268 10.695997410276254 -0.3095379378006863 -1.5697955197635352 -0.7782238188508598
P 0.17296559424874403 5.994486900533174 6.946696774079351 1.2261734957949462 -0.8827941839647828 -0.803307758402681
P 0.4348483553021479 7.814628260366505 10.717074546757075 1.9111117784170826 0.7809990676031516 -0.017247988447170293
Ni 4.979685546701686 7.815768634858626 8.131351724991829 -0.2671733567915463 0.6743774763871546 0.7008392701231092
Ni 7.0224166978979214 3.348620162578517 11.971209405362227 1.4714022299946012 0.5499687363910658 -0.0034342224925295694
Ni 5.508008796943946 0.5152409871636395 13.186473515576441 -0.20628603438787058 1.02954555332213 -1.574839509945346
Ni 2.605256211619542 6.336797164403614 7.27035484656668 -2.7318241054494563 1.8922735626646572 1.3980458285896376
Ni 8.45804451306976 6.309663791157201 10.989295132441946 0.38901870693583324 -0.6546524871544016 1.719455321016929
Ni 6.390611530932625 4.868701662245359 6.467388892916616 -0.22922053169685683 0.18133373531790706 -1.2366545978319283
Ni 1.8898267234262394 2.579366883273624 9.605112343738627 -0.3822497636431159 -1.470833501975325 0.6239437452166351
Ni 0.9154332674044074 4.268506545251744 11.115950212811484 -0.03328601574663945 -1.5829533973017318 -0.6598826252050893
Ni 0.896725470984077 4.01813308444444 8.170402482910035 0.13885294044587698 1.0585020884554803 -0.6888833833128136
Ni 9.03284038001159 4.291577923406388 13.26820161078945 -0.8488772195023638 -1.564532728702699 -0.4195690689188645
Ni 1.2905740646905757 6.179783618628951 12.166074902150982 0.3053061591075258 2.103423095792416 0.23457356847865407
Ni 0.3387647359040274 7.512513841197682 2.993467962485235 -0.26524220120710446 0.8833533989023625 0.36394479468634094
Ni 6.350208345414258 8.005853040904794 4.87064218379848 0.125398614713184 0.04213266750399196 -1.053020496515619
Ni 8.068187230085684 4.845281574535272 1.9227354808773778 -1.1535300612966068 0.6628337374136132 0.05537153479176915
Ni 1.4635528533549311 2.640541848797233 13.12114513651004 1.1978545942455952 -1.1056067552527669 1.1156613112752913
Ni 3.2686902777216793 3.604572976272892 1.4227368711195822 0.25786956289211715 -0.1935613877323505 1.4169886882407274
Ni 1.7228513938650327 4.827016733496179 0.1660677422587995 -0.5451988258062481 0.48466914385230725 0.9546642306322075
Ni 8.35769155776312 2.562534578786616 9.561550980597868 -0.24074421606574026 0.14927593555141389 0.048800309332154665
Ni 3.0090241784909764 4.840192299942336 3.553235390045777 -0.4653326483072244 -0.6875890899814222 -0.39876807301311323
Ni 3.8518269002463783 1.9751757432662962 3.5715671456211844 4.530992880437628 0.7768919874133137 1.340418664994472
Ni 7.776797985892346 1.1115541185927535 12.350429161988808 -0.13071488471977488 -0.14503901465193086 0.5585695906861993
Ni 3.699186360788609 5.3000836560747615 8.943629166230451 0.7512539751302352 -1.0024954911828734 0.8737071340618502
Ni 5.15192921792484 0.8650833774316248 8.41698066431257 -1.4253969669090807 2.0037769074529876 2.7583416921240107
Ni 7.0445267686294555 8.252183355785489 11.712767559408602 0.41225916552101255 -1.062342802357809 1.1373457382272605
P 8.445217656179045 8.333253615134447 13.526311711436275 -0.03449623400465672 1.419337133868246 -0.448718436789311
P 1.9519158734600612 8.406463772612092 4.68227399424004 -0.38770615877199677 -0.5943688597729957 0.9988833483515829
P 0.24951676625082675 2.0184251527236747 11.578333428577933 -0.8696442768463861 0.6942690731047592 -1.9653543418107313
P 4.802352600885597 6.087281340611045 7.064923450248035 -0.4062253006221068 -0.7706668324392082 0.13716732521333797
P 4.709567585390306 4.296016901801337 4.584337501906788 0.29369659989305547 -0.9064275071130068 1.2170414515866912
P 3.763575108971832 1.8457196769541249 12.666197916398827 0.09098465600968847 -0.02934425749007204 0.6911148437464936
P 6.033825108220055 1.0619996633896815 4.509244312829755 0.7091863565362237 0.8226205997986801 1.9959910928599818
P 6.715005663319413 2.1241406955180557 7.568301715318843 1.3209423014374155 0.45275378320094933 -0.7287498804904481
