# total energy = -340856.3784383415 ev
CRYSTAL
PRIMVEC
9.34194044160861 0.00000000000000 0.00000000000000
0.00000000000000 9.34194044160861 0.00000000000000
0.00000000000000 0.00000000000000 13.67287413410842
PRIMCOORD
 96 1
Ni 8.778331836675912 1.4744010927839617 2.6024945848575207 -2.8250129681993155 -0.3616673115060739 -2.772108149780484
Ni 3.6660203213465397 3.788427767006622 7.111850172193749 1.8398150877546249 1.1821518387983576 0.3707425343344647
Ni 6.165213597143535 0.055475244948734674 11.23074814827317 -0.15154776230472608 0.8059937898752765 0.012530528366842935
Ni 4.073487737766889 7.249158947058778 10.752867724131402 -0.7132361011255651 1.7691434322706756 1.0825041077970323
Ni 3.5130740723694442 4.128950838193044 11.559621819723796 -0.9291316335787417 0.6739658427710328 -0.1527188997946918
Ni 1.7931481007914432 3.3501226051749984 8.779666799965604 2.412223898316762 0.4413239440974528 -2.285290077905974
Ni 1.6488151209052886 8.376217352130952 7.213043005295678 -2.7137392229232877 1.7396510792385136 0.7271524540963413
Ni 7.6870156957490074 9.10879363800231 4.3012264961463496 -0.9535686835751835 0.15256823314944049 1.8430860451964128
Ni 3.130689766045815 0.5364403778256743 13.588334422406067 0.5923230329875606 0.5401658913680311 -0.26754976629435856
Ni 4.592572658632531 3.640656953036448 -0.022977436720257958 0.6102222818654846 1.587090302288241 0.4572401011070771
Ni 5.660160270827342 4.083651768971817 8.547460725665006 0.17888373111551775 1.147677716280888 0.5982401698029439
Ni 3.172485607599903 6.53483681281833 3.9145439630236503 1.954752140814853 2.1516711321655264 1.57808681323805
Ni 6.771094486690229 2.478463509947974 10.337937031488979 -1.617908573220678 -2.1051357076081483 1.771317042883227
Ni 1.8218465418406513 4.979777406226145 3.7265962657786296 -2.645435553450883 -2.024610042148255 1.1345974860581622
Ni 9.395282925650768 6.9066086747956374 6.361782971225898 -0.2980703034807189 -1.423312059355594 0.8465012630710196
Ni 0.8239544763410277 3.9873924146192645 10.491292457457595 0.7710537834649818 0.8324434994263729 0.6131255715552086
Ni 5.867542006781566 5.055718040109287 11.675910294391942 -0.07205568031566946 -2.387291139630824 -1.5338538115616036
Ni 1.1015362237745066 4.648035759058686 0.6083499644064947 -0.05546512294683996 0.809342137522219 0.17647306479149608
Ni 3.8286448206253856 2.100030844432878 1.540221602582271 -0.2546078614217099 0.03431625678336671 1.801191461845156
Ni 9.506919113976952 3.9847860132349124 7.483150266178548 -1.6292167991446458 2.8423509452571305 -2.558839256316877
Ni 5.309062123056383 5.655975081507666 6.489255616995643 0.6171370067074468 1.0238184210303658 0.3882522610834539
Ni 3.207676697258876 4.868813837612051 2.0128107516555906 2.050260652836824 -0.2733913126768001 -1.5597453346163848
Ni 2.578964105262877 9.321537647772367 3.0433220706094852 0.5518034756069593 -0.04121864033015482 1.3923649761547763
Ni 6.672097943787085 8.597948308609778 13.620890150665307 1.2832447868866417 -0.5330441927215852 0.6357952452385824
P 0.2947036558823685 0.9716739096387503 6.99606803069776 0.9394548698816207 0.25624488280450064 -0.3010021324155332
P 4.831716992102153 2.719410837923618 3.7723456165293396 -1.7593436725714346 -0.0805115243925065 -5.3939507464027745
P 7.732212003625332 3.8778207951315813 9.378511339968592 0.2549009671820965 4.556931968900893 -0.862068007161025
P 6.237604293657309 7.938622177773201 5.885898919757378 -0.039349962552532224 -1.1457115936934525 1.115854144012388
P 4.79850639381767 8.331282618587107 12.82396657900393 -1.4856068036297574 0.4278961007273211 -0.8243998031862898
P 2.7525653845654277 5.985353217742361 12.929684648057759 0.1966261427006033 -3.3821275716065426 0.6461801880173323
P 6.646454317263623 2.928941220180353 13.021594394938791 -2.000290234455968 1.3559391292275744 0.13461807642892298
P 8.081665969877848 1.5648684440601766 12.423788678713365 1.586892841565454 -2.0148563051956008 -1.6546396100931244
Ni 0.949935214221593 8.988319974014486 5.0717889802580345 -0.31072218791677453 -0.7196705438969992 -0.013721463351150563
Ni 3.652353062474472 7.8790579654913815 7.3076320206965395 3.771040349092132 -0.48358542386982517 -0.40424760807044574
Ni 5.2903875841054155 0.7181775530623902 3.648770428313544 0.9220415595011797 -1.5226422591165003 -0.9987666202680606
Ni 8.688957492431845 4.234365294182388 4.7912215486581085 0.9236400143365512 -0.2062495247229803 0.5127743867289556
Ni 5.916680613525978 6.22927128277974 -0.2538261270740937 -0.463416405121118 1.74449478048406 2.3552752488458597
Ni 4.390506486791915 8.600479974470565 1.6625253527034065 0.8879842128061546 -0.3222322454389031 -0.4544072596439722
Ni 8.265655486956025 4.217297568988084 11.500541519957062 -2.2421040294368035 0.40235990412942957 0.6355219369725377
Ni 2.661827117016287 2.627962582900604 3.497165681984452 -1.4004955756817108 0.895342967164071 -0.8149851947406093
Ni 2.0437643371283922 7.04674712342167 2.132093318236585 -0.5657385976308128 -0.7594899898867823 -1.0977366084760707
Ni 8.882531840407314 2.3853430475851787 8.838200596216263 0.9599645597991984 -2.588971299815567 -0.39729688778422545
Ni 6.161878524404417 8.092493278854421 8.156033420989935 -0.020428700167997076 -1.302710608920737 -0.20825215697530583
Ni 7.081116122321421 3.7385604889074453 1.8665253062162839 -1.2236013641923957 -0.6384463097081844 2.527580298302595
Ni 7.276400045398455 2.3467141238421854 4.174888896140758 -1.1345005554689815 -0.1312378471027804 -0.9081226354272425
Ni 5.251543795732172 7.549231416115292 4.071275566269345 0.2906603841698929 0.3227019859864701 -0.44854180200213073
Ni 5.742434740332674 0.5804960347735783 6.396211758544502 0.20479376611306022 0.4824759928557304 -0.5041043697587834
Ni 2.5800197445332413 1.974839500519975 7.1560543659947395 -1.1278840785937285 -3.903113547612013 0.2515950427373151
Ni 3.5907149394137052 1.3767684731858905 5.104945395287933 -0.41906127604451054 -1.2297591562636756 1.1135866881344498
Ni 0.010979582605838013 8.053070290173542 11.839123335918867 -0.6026727516530008 0.657558605057603 0.1949091600094966
Ni 1.652327690512874 6.167726579123429 11.032792430228664 0.3444288361406004 -0.5983458421428728 0.20960198613498096
Ni 0.6168800902274686 2.9563784992693907 12.435670692766257 0.6368290858197355 0.8072610866234743 1.30142865688452
Ni 5.421548427963126 3.1874140284321406 5.467850821588222 2.634997131726378 -0.2035724921114494 6.918128725437511
Ni 7.915921262490137 2.2276324089807735 6.39638925541297 0.09466750417791438 0.10931379333617948 0.7519345461370276
Ni 0.03062101239293443 8.516925659124173 2.712849058954554 0.13445609692976196 -0.18202921872303487 -0.24111342647970088
Ni 0.9314064095415802 7.98182865233459 9.630995030200639 -0.6939877944189146 -1.1111965906357186 0.016398753072997565
P 3.051003014043945 8.293176843509073 5.115555037052122 0.2317551251932525 1.1847813060014047 0.33454962935367544
P 8.237050465311272 8.078256161615165 9.463420236679612 -3.2226425567326116 0.5706851430028107 -0.5550695479527408
P 8.872433202785507 7.267132840476315 4.394092857729022 -0.1099974496667654 -0.8906913273246725 -0.6309615712953649
P 7.363522981995107 4.782176681918576 6.317756274293375 -0.7812083554004804 -0.33094314294933974 -0.27263078036169175
P 1.3383263882518113 5.589021394333294 8.547351424961793 -1.9832240230023006 0.32840135036409246 0.5655426795699228
P 7.043225211873639 9.418824615573946 2.328654284572547 -0.7701927210162671 -0.046272143593662246 -2.088788890819009
P 5.649715981409043 5.378276559818617 1.8280224986693074 -0.41914123735282655 0.26624004634399956 0.26682085854813403
P 5.047982913420242 5.782661135891883 9.824533878802415 3.0251095859470225 -1.275053509325101 0.04322050125153202
Ni 6.719274743037899 7.22794340030658 10.832675921359066 0.012319183686985235 -1.1817738866336487 -0.2967520988899276
Ni 7.110412447559155 5.808061871963757 3.8756581359184006 -1.6636567259900703 -0.1976155031970661 1.4543928399207984
Ni 3.4087245975909104 5.807052942395621 8.620172784930112 -0.1156379357819944 -0.16814114788703302 -1.0627618921730988
Ni 5.757895651770317 1.2842458950116205 0.7144379743019741 1.1141479599545585 0.07696905845688679 0.19642868197781657
Ni 0.3487178213453948 1.738413671720053 4.398494780067038 1.3300635470123932 0.5402527946548825 3.350824390617887
Ni 7.817924307214683 4.632845763893969 0.04523367563810742 0.18385521618818015 2.7289524403286163 -0.550195250579575
Ni 9.361651940046228 7.093765109684907 0.6997328258463887 0.029021326933014534 -0.36204012146446035 -0.992437078505607
Ni 8.72991255934582 0.7247365294493202 10.450245839527254 -1.265088170582273 -0.9263862096231207 0.324743441896531
Ni 1.4282145392203922 0.9938423343164102 9.101376137288419 0.3679513447425728 -0.05287576495310894 0.0879947201434291
Ni 4.78917379531241 4.933263884746975 4.295566214430296 -0.5261173836947648 0.7182137568458147 -2.3080147731969993
Ni 8.88014964559366 0.17414124346031246 0.19509521588003054 0.15500332495349434 0.04721548134353804 0.4551472231337903
Ni 7.520224691031377 5.815413979094528 8.177636658270629 -1.838789474703588 0.26864531335138253 -2.0260094935989432
Ni 8.698878633185185 2.6274581181165355 0.6311956797664681 0.9128650352082345 -0.6756841110137203 0.3563970642460701
Ni 4.83907844117337 1.868089147046895 12.027959451700275 0.0355033351129324 1.0500475299302237 -0.03595096417331228
Ni 4.068639270675567 0.7486406866617922 8.93557911503421 2.3375860590962128 2.0563361696069427 -1.083042753909322
Ni 2.489515025495244 7.924459796057511 12.531763760578876 -0.9341362858821849 1.3080397344431343 0.3235062270553203
Ni 3.308308079740019 0.3889115201130439 11.152827023015536 0.34735475153814366 -0.40708764862240215 -0.36627781369489176
Ni 1.4800062570513852 1.3239117741440873 1.5238003396668094 -0.3759325631758364 3.5943024606750225 0.21093098935904964
Ni 7.156767156050748 0.7375994472490125 8.644018087917777 -0.6331513798578322 0.25373702878098237 -0.5287483935597088
Ni 8.966590620537776 5.67025890844915 2.6528523148300978 2.086349428139581 -0.5869864512659956 -0.4207695169848689
Ni 8.700205188728475 5.921846706592453 9.942285301344358 2.273811130732097 0.8485509465111966 1.9287600876264657
Ni 1.5821510338847324 3.2580858079039046 5.586161826362863 0.12221841721298951 0.8177568439484756 0.3093988411196607
Ni 7.31372109747905 7.114027778511644 1.9636020803578356 -1.7367948407366414 1.3335152530064196 -0.8206225955320448
Ni 1.1673969039167325 1.0055571276353252 11.765357505771487 1.067141509298033 -1.5438980831714828 0.2100087346550964
P 2.8784760578926503 2.456164298104074 10.250786069070987 1.067013725470917 -1.4791044837348655 2.172837738940813
P 2.400897378427279 2.9270821740316575 0.07292692389535767 0.8272089905003108 -0.07998676223728805 -0.009585329695589943
P 2.706453566525424 5.104529678938099 5.900651712109236 -0.12476997999024964 1.4475184813984683 -1.8392741276494904
P 2.7826651166814917 8.60466516379024 9.280832944862338 1.743962305019358 -1.9885035262336852 -0.3978180503950181
P 8.891845755031683 6.1547693077252354 12.484400122519148 -0.3398479016381373 -1.4880262117045275 -0.5954237834000713
P 5.3281009976847304 2.22553047238049 7.650069255480286 -0.47653931565632124 -0.8016326846931032 0.0917467309866936
P 1.4750830544364983 8.761161350136705 1.0438693595972093 1.0027952818114794 -2.0525116536545296 -1.8950002175672007
P 0.37270792440996725 3.5719189552369452 2.9888763074978675 -0.2530651995249384 -0.9810128958290654 -1.3642432782178957
