# total energy = -340891.1466829671 ev
CRYSTAL
PRIMVEC
9.06433407239031 0.00000000000000 0.00000000000000

0.00000000000000 9.06433407239031 0.00000000000000

0.00000000000000 0.00000000000000 13.26656915187226

PRIMCOORD
 96 1
Ni 6.280015389170817 2.2736794325117664 11.504981267809699 0.9521286086945474 -2.0854929936765565 -0.7336689150586203
Ni 4.716454017327039 0.3135824504406472 5.984284238271663 -0.3252813166778721 -0.03200072127631263 -0.33110975043419105
Ni 2.8579301501142766 1.5704230727440063 4.854277217046944 -0.17643784067818646 -0.6014072546770158 1.0208472542171838
Ni 3.4826621837279075 4.230179686819067 4.993867961912878 -1.402999830160803 0.4693602814093788 0.4425681009171991
Ni 5.102585584894827 4.566783732961695 2.8083201432489684 0.9794959449639066 -0.31489585967848993 -0.8396744699571733
Ni 7.130204604411097 6.141050083356555 2.4641328752131693 0.32111407267405984 -0.5429390832377939 -0.2691795885882977
Ni 4.9990165036715695 4.11385708754215 11.519641015320849 -0.2577955151210722 2.2570231126404807 0.017137173900918873
Ni 5.532624786756809 8.034607601797035 12.381861321188435 0.44949645260591614 -1.0208824783304935 -0.5781809371592236
Ni 2.0864465477097704 6.317750211955031 0.6561444833755072 -1.01849649459682 0.4533063132703096 -1.4067916931030675
Ni 2.491758246195501 1.5655645896759454 0.4435514046783223 0.6275512600622354 -0.020496834401771153 -0.20812128782439643
Ni 0.9417299251364524 0.010069568731919889 4.812381864918999 -0.3385800906693072 -0.6373726170280313 -0.0013380020851331796
Ni 8.431271925568343 2.324793212401312 1.4069333046369343 0.8273223761497236 -0.05671904995859909 -0.25721675979946673
Ni 6.811348524401423 0.8408792377044478 4.3971247790782755 -0.3242844999822415 -0.6334439713975866 1.656837646185708
Ni 0.5459801926740385 7.2302204666741305 2.4198753576234022 0.10408185551327882 -0.5552824352944953 0.5908613608403696
Ni 7.765415008223755 3.8239162332547054 3.7518384614998395 -0.2573363160964665 -0.6993002077707634 -0.5863092226933128
Ni 7.546357246459142 3.919408992810719 12.607605842205489 1.648014391467123 -0.03963664055501561 -0.119514130907949
Ni 8.375163697599504 8.731201676014376 6.5743143752849855 -1.28546904823147 1.700773942557342 0.15702215515573603
Ni 6.591692516587385 0.7552729473318931 0.23022774065411183 0.7449254618090462 0.28224053553731393 0.4045216876674388
Ni 1.6151283684374342 6.3104987446892675 9.464476390962169 1.3956709005995576 2.0192402931959097 -1.7174575738606097
Ni 0.10670987298274093 4.809988880721297 1.5752987780468235 -0.33267195271498834 -0.13333252484828004 -0.6084741888261264
Ni 6.329905483959266 1.9571891436975484 6.644601034625207 0.8137626351874178 0.7004906285344388 1.27899115381661
Ni 3.3416211454088205 4.140334007396266 0.38862063370676075 -0.00029490553259949216 0.48787428105316616 0.345963784727888
Ni 6.341045550546293 5.6335833397643915 4.733670813482776 -0.6789077601573404 0.5121177269815632 0.5945583500759825
Ni 5.444138757446338 2.9754220484877982 9.207489829663983 -0.41180973668841975 -0.06371476455014187 -0.39324740030520017
P 0.24604319076074055 5.743506519179274 12.619704915338414 -0.3312012817067328 -0.36167476770524165 -0.04112916594014207
P 3.9677128291347823 6.028534504394163 12.613336314212258 0.5277531195259749 0.5875284398123946 -0.07231279063179806
P 2.1178454009705234 8.41180173595977 1.5273004097813312 1.8265983319540346 -0.7012110516402311 -0.7287485949388675
P 6.572593964676183 7.872356021725592 5.76053024501906 -0.6559005006288897 0.2957928203004519 -0.8592750177969202
P 4.5170749248548905 1.2624713866352237 12.393336768136503 0.29474792397570526 -0.9110138409321085 1.356565964178296
P 3.9314736214741326 6.12119919171653 8.351503972778136 -0.12363226684138064 1.085409968589918 -0.5978246795320801
P 4.457966402304842 0.9338802118212641 3.5582659814407505 2.0297471062645047 0.6878955654782476 -0.10472540263454867
P 0.40385959216576134 5.331686628822521 3.696158976533088 0.5580039479907164 1.2215398536776767 -0.2747416560571075
Ni 1.530050528741872 0.9758027569514555 2.719991833351528 -0.28982554697342344 0.3166557797923902 -0.8400771047122307
Ni 2.0024292351018262 6.209041653307164 5.324165950834518 0.038271641886688926 1.020015759454824 -1.9845383709383502
Ni 5.9584490732705655 5.852233206495304 9.230838647826332 -0.03181534473838391 -0.5119660318950473 -0.012083413527095318
Ni 8.438568714504518 2.348079486658493 9.945827881630095 0.14230413221927105 0.6014242239578804 1.1134061966925275
Ni 2.324639118721915 4.961281680887356 7.253762355152429 0.5184210434917716 -0.4863868978743623 -0.012770669402107039
Ni 0.490843661318811 8.974171151087841 9.016132672854585 -0.49331936332813753 0.3386561953228813 1.26569469381802
Ni 1.1790885774130337 1.2834281270332784 11.31845268176589 -0.10212344623532735 -0.19944947108201133 0.15265487932597582
Ni 4.183471173293473 6.827818419428787 1.6534922560069523 0.5272265575985435 0.1978705566306657 0.10024396982442735
Ni 5.9155475800594965 8.135294224782152 7.886510885828361 -0.28310905418519633 -0.5245047877920064 -0.04215529321181127
Ni 5.139676839959204 2.817557606112142 4.743912604562259 1.5816519048814888 -0.7959263783369454 -0.12456583439924356
Ni 1.0256384657354105 7.475936434974503 7.212157968148523 0.8368254305441523 -1.126451202801944 0.4809006779488105
Ni 5.007854229401719 4.699123010561866 7.086841736595243 0.9168664430581435 0.5764636973578008 -0.15550211896678381
Ni 8.291789952711396 6.957175531115914 9.452205095481682 0.15933409111836427 0.9959499767548718 -1.4148474735280083
Ni 4.766897036494502 0.37346778642154116 10.417572991037703 -1.0411198884232908 -0.22533379504794096 -0.23813660323956407
Ni 8.377420716785972 7.156899068283186 4.5614176471850305 0.02002889362641712 0.040747100010374994 0.016262227495133286
Ni 7.636692399922382 6.433592401525592 6.987170319027333 -0.47155060419247824 -1.0526181188708774 0.30597490303977626
Ni 2.751542060991454 5.20239296747397 2.6033519823817333 -2.1802700268491417 -0.6797958191892487 1.0243213288087132
Ni 2.199823238409972 5.444510395143708 11.491847047724585 -0.050061178322449267 -1.1458033820763105 0.698217516229546
Ni 1.2804459611202335 3.0688300112049056 3.7821931034743224 -1.2012970442682407 1.6826767187359988 0.6251935584633362
Ni 3.535670409440634 2.812209649003642 2.8314042828561163 -0.3220306709510583 -0.5227854911080545 -1.221040288333439
Ni 0.8075732485527993 3.1281107561025165 8.142343557397881 0.40294097344388025 0.2489537484597261 -0.18228015839157638
Ni 3.8217770504113053 2.785034775425196 7.06062768242951 -0.7772231455004872 -1.6342510191344435 0.35195085554925837
Ni 4.474699163020589 6.957791905833504 6.019042333743279 -0.4765264601405148 -0.5479645614768435 0.4599431018605369
Ni 0.9705998291882706 7.669369324288726 11.746830391190603 -0.18827905628748864 -0.8662871874486952 -1.0473530138171963
P 0.32581748858480547 5.469609536217329 7.867036164052747 -0.2520046194709079 0.3525908031261024 1.1394064774110313
P 8.259801917735299 1.58528858063882 7.833298712598785 0.2993370860082844 -0.8473936929783019 0.8998138584512309
P 1.5541163357301222 3.215944153359069 10.30593483961447 0.23529964801140124 0.5318928527259614 -0.07719968641045413
P 4.091259702675216 6.051902357658084 4.0560012559622605 0.5509884359048317 0.9098450174349879 -0.417380545907978
P 6.958399216217011 4.182628190223828 10.393428324342938 -0.247022078654652 0.206946807900321 0.23568325660306508
P 6.308441140852608 7.808697203466276 10.11854514183285 0.09311352942723318 0.05964522246645857 0.9155366685031265
P 2.6426703443301074 8.348414847722921 6.0140007511267575 -0.09334724270459409 0.3379028620966245 -0.538932276071246
P 6.933218496136649 3.926542623733414 1.5109565089977102 0.2624684951167092 1.8942491983337892 0.9612989623399056
Ni 5.35344103061981 2.94190214105181 0.5665689211083557 -1.3858629133702005 -0.15462742967131435 -1.7623480066153971
Ni 1.509701098727325 0.8963420850866347 7.174865484867522 0.6834616980766101 0.9165481404867764 -1.066245479846325
Ni 6.852564051473203 0.7742826687690905 9.31188467172213 0.0701908591927888 -0.19149679189383795 -0.23367033993809436
Ni 2.756065163698473 1.655519041107733 9.286121114960283 0.6113386548581149 -0.2095924730532842 -0.1328833531260034
Ni 6.126610599163605 2.029232470982902 2.458693368330439 0.36911734002621593 -0.5371214481147524 1.1087219038429807
Ni 3.77202292063409 7.0204899046801055 10.363844150765443 0.8452061984086798 0.3414155032355733 0.7294818735604663
Ni 8.02763712888782 7.40274193726071 0.3400303644257006 0.17980547159883872 -0.6249264208448786 0.044251256508891536
Ni 7.583611659537 4.049019905852147 8.18519429033809 -0.18892028941591332 0.16979976653637854 -0.17044022833385486
Ni 3.290208242494562 8.355793215665834 12.78507190703391 -1.8491003697112929 -0.34592418973920425 -0.9500213325435576
Ni 9.124702547190996 4.837417555654046 10.118093737995558 -1.109025551126329 -1.4195489927687357 1.1259153849031318
Ni 8.72299845366998 2.160030811789099 5.8290783650823155 0.21238983329276326 0.3151144034471992 -0.9664617374877676
Ni 3.1640508407384536 2.7608420677597945 11.706128811861287 -0.046140503111804405 0.10221163507375944 -0.8823336993885965
Ni 1.068059549240123 3.5505449816695296 12.692179704926081 -1.2132069083319492 -0.04454101983516845 -0.2657883035185616
Ni 3.3848489546468494 8.39946517727389 8.163490648811663 -0.6397917679924852 -0.4149845348719757 0.3623149723924018
Ni 5.6492011873880275 7.863282623309306 3.7362369296775504 -0.0019617517120611373 -0.1640116990996917 -0.5972513235271134
Ni 3.2572412594375884 8.250094015933259 3.5953862423741905 -1.5296266608541333 -0.6459732142128488 0.32721915713053323
Ni 3.435527646500449 4.387726877501847 9.496940303477581 -0.27715797880808396 -0.8163152264059425 0.3913900353814872
Ni 7.378993381965337 6.388533596802958 11.481167449308932 0.1860987608067182 -1.3981399309653404 0.19619574003140405
Ni 0.6486618755906483 0.11390423494378586 0.12285707771677828 -0.7353025940073015 0.18237040411253755 1.3552189632320983
Ni 4.46840851516754 0.33106573801840133 1.2696439941944717 0.07902439832401874 0.10925980016979246 1.5775862194525474
Ni 6.063767570971688 5.6152824492524225 0.0193695755002607 -1.2280092634521045 0.4625270605376292 1.645778817268385
Ni 7.833859794878474 8.839855848657749 11.528011927845762 0.05140252284169212 -0.4033101838578409 -1.1022090424251276
Ni -0.030898502019415356 4.703183832230693 5.697010111071202 0.31622434868192634 -0.32793418091968685 1.2601328834595267
Ni 8.029178065681796 -0.08097532208995692 2.1896077338993285 -0.7583628182608746 0.2238574676127306 0.5274307031895497
P 8.594429939048007 1.5352443921709744 3.5725939743244894 0.5303455628434995 0.24866527068502978 -0.0071921468730650326
P 1.633565223960636 3.182034479557545 1.5277119305486633 0.7737498422399061 0.017358545883105585 0.8361417742135664
P 4.849019903279266 1.050556320127388 8.232025172373795 -0.38397651652623543 0.8928824214387203 -0.6419610077296621
P 8.355059004605176 1.5914885851510474 12.430151561011373 -0.27880888414794563 1.9022232176782012 0.3721193600773333
P 6.099200052899022 7.725967026298005 1.365832894607999 1.1405598742891843 0.9093009720060597 -0.2943889979743898
P 1.729719679904651 3.004591075564329 6.166527207161406 1.162541520766598 0.1259899684402798 -0.6383959160862231
P 6.909787192534154 4.1427088629258035 6.132763469138605 -0.5610229373226983 -1.1043407440561497 -1.071948186658057
P 2.2903396785548567 8.726297871275904 10.35288537086006 0.7113525109496072 -0.612082732112991 -0.6508343989598921
