# total energy = -381165.9649013918 ev
CRYSTAL
PRIMVEC
9.33167594975557 0.00000000000000 0.00000000000000

0.00000000000000 9.33167594975557 0.00000000000000

0.00000000000000 0.00000000000000 13.65785101272638

PRIMCOORD
 96 1
Ni 1.7539444933905293 7.708188332420452 4.458237134995716 0.21180413599262232 0.2875814881342531 0.5229451566143704
Ni 5.6059203691498 3.866551953664079 3.72112244911384 0.5836818123727948 0.745878826861251 -1.8911008825127948
Ni 6.824693244204406 6.767116803312817 0.8314327346701357 1.4030823625722804 0.46752837040696255 1.834560267113589
Ni 3.921151589913137 9.275713934450968 6.030009582771736 0.22002035325482752 -1.181008469222534 -0.24530792417702268
Ni 2.7131194739292313 3.904503879937352 11.095351560513881 -0.061897251725428884 1.7561169381040207 0.3720589391530431
Ni 2.361324620578822 3.2609261815629202 4.5060526427961225 -0.22768146934451108 -0.452623171160356 -0.808426053465853
Ni 3.893081908518988 8.689899310488034 3.2075732572268474 0.09055476756112146 0.23984947216561278 0.4541938580815855
Ni 8.142792478554 2.852945307044236 1.7276636942846972 0.6076077270607729 0.5922163322063673 -0.9268788329888231
Ni 3.352451259725758 6.2470625000894335 12.193866193848228 -0.4171771716479203 -0.21506686590429414 0.36891447998679044
Ni 8.049158441616203 0.4771808510301387 1.566596167101375 -1.844583712787862 0.5730135340256711 -1.9012184305627708
Ni 3.516324821880896 2.1420115713350403 2.0143691743996244 -0.7220215606276791 0.20181848553482018 0.48320284371942596
Ni 5.958331113115906 9.258030408439694 11.366063481140301 2.7728072327300377 -1.1117959147826144 1.1733545522217017
Ni 8.112053937825168 2.3938175163947886 8.625793495902467 0.7105058466785957 1.6323442890300337 -0.40656468623939657
Ni 6.757075919941771 3.8846180783911644 5.789904626242615 0.05794855149032601 0.20107132295615046 0.12613960664426663
Ni 7.110849088603205 1.940354053074547 11.281220816157767 -0.38274007301597307 0.80424158307086 -0.19229280543257204
Ni 1.4730050558731567 3.2674770181116877 1.3886896305843615 -0.5660522722164896 -0.0677763362140252 0.9996978738330784
Ni 1.9384783861994723 4.636825817027994 6.428531870501489 -2.253862969744944 -0.9820439081967409 -2.34744983926417
Ni 1.3005276884502643 7.861171828688963 1.9326544872107463 0.6426253807865384 -2.9036403881952317 1.8087607895519815
Ni 4.229666129996903 4.534821266722326 5.365322700128122 0.4119226081172002 -1.0231841298804765 0.6041444511025208
Ni 7.459452508763189 4.628184685056257 10.95410171364198 0.07449231478162009 -0.8122050608923108 0.0002897633262769203
Ni 4.126691085387715 0.5055939381009185 10.567953228282123 -1.149557449802104 2.4185531829688993 -0.7666613108242409
Ni 5.833174674665664 1.9133948411238497 2.12861688361125 0.5538333615527946 -0.21588010583420883 -1.3180410686302204
Ni 8.841249763457352 4.330308255607242 6.905067902720346 -0.12570277621716414 0.9279275859683116 2.2494956939151836
Ni -0.01964784380830492 6.583189469443574 9.71063629073596 0.5491159014724672 -0.020382163200777802 -0.05578908194516199
P 8.523739487714025 6.618435209678182 2.510818070025056 -0.16847693395989694 0.8403334436974109 0.0254462079872465
Ni 3.3627067716446977 6.133990582053228 3.730260026248531 0.5544267721624193 -0.06474166315275946 0.6076452651669277
P 7.154297372037766 6.0620246967767395 5.582687295424065 0.18186158279691908 -0.5454587643358542 0.32170105552578143
Ni 1.6370652515482025 5.07978181317742 13.163109119618364 -0.6931807251365868 -0.6082196496131589 -0.5260363939451844
P 5.25870736871313 3.630731169584443 7.992342532318238 2.3621886881362415 -0.4598595410077951 -1.1412682132101182
P 3.4893936049581846 6.426883896520702 6.033710525471511 -0.5109069945029137 1.556642527321345 -0.24212361291177012
P 5.82787428270028 4.6717169535747765 12.578539341233213 0.2586524638047287 0.8486908145231706 -0.37421249516093613
Ni 0.6293366276378586 2.0438983299194535 7.0755865513518055 0.7589261469635123 -0.5000471689702742 -1.0017269884479651
Ni -0.19596332956810336 7.65136775728449 0.07437252451570144 0.7971558798686723 0.8998570529843406 0.8601080552211766
Ni 9.080523267655284 0.5291489546484954 11.007135494659012 0.04397049204367911 -0.4768493906975723 0.26295726182766965
Ni 3.664689138531686 4.905848704299245 7.613459689888395 0.06348516503783906 0.6336835982122183 3.2642998272620813
Ni 4.999128137549217 5.141128251171149 10.484231297586634 -0.5406253475029528 -0.9421473291121194 -0.039427095647370805
Ni 8.422070877744192 9.229951395369548 8.189794264207608 -0.30861902553084264 0.09937493695591272 -0.01677310569328079
Ni 3.8369238823786986 0.6906700012851941 8.37246742082307 0.8303483074602408 -1.5276980763728527 -0.897604509504738
Ni 2.4588592980826944 5.880756890566184 1.5913307074947696 -1.5542789121851748 -0.9950020110193057 -0.5347640036261693
Ni 1.1879130225378332 6.372022973343772 7.718939356334747 0.5261060708408553 0.6964799647131489 -0.06673889608844635
Ni 8.295066767446862 5.7022792554782535 12.913470922892344 0.13894241483588976 0.044531249643155565 -1.2279007628986982
Ni 9.174455918224934 2.9118655092791617 10.832806722718631 0.3153661144466891 0.7104508250709441 0.8879135074692192
Ni 6.279499405849428 6.940518006659253 12.314901764178904 -1.7862368974178529 -0.9111416247592244 -0.7195466167246253
Ni 6.185809378855659 1.5122914118137711 8.82807996912505 -2.1994147180983927 -0.4257759690605248 0.4504048233527985
Ni 8.316949547656064 7.626256217180881 11.529957572982628 -0.30017963651423785 0.921673891749116 -0.7034497111627627
Ni 7.564816462427198 8.127432539865579 4.789384722038713 0.9282019226756207 -0.6444446933834643 0.7036073197865496
Ni 5.9098997146998045 5.803014697848546 7.496562717861678 0.06448558127789539 -0.23627126789605116 -0.49674432984928635
Ni 3.016314958695622 2.2223386383034036 6.8517886986246355 -0.4250048952224551 0.6605701381904172 -0.7288331842328738
Ni 0.9517189714183814 0.473317537168045 1.3311514495643533 1.3296598838160714 3.3179631211134923 -0.6756398880393462
Ni 0.9499366213032608 5.27119315119497 3.5629104147851085 0.9752235428407978 -0.2575101226701694 -1.5980061778697965
Ni 2.2979625405700874 0.8046321612113603 4.714130354141448 -0.4075365632343627 -0.1381934524850072 0.6243708054517246
Ni 6.055184578272115 9.117654006440961 7.16796827737102 0.5174702495427282 -1.3997548408609441 0.586727541177654
Ni 7.554448970396313 1.859187135266598 3.6522182867314403 0.1526415095895371 -0.286067622592888 1.9934824675055154
Ni 2.016500529196973 1.7766018027073491 11.166618503258315 0.22975583537503658 0.044287509063465666 -1.7350020105022765
Ni 2.040762886785001 8.917041635891954 10.13986165882576 -0.9259200686199794 -1.216938864570556 -0.06496714890000424
Ni 4.718711273887587 2.9252657960085497 11.772876029824362 1.0242408532797649 -1.296086161625684 -2.31722215072788
P 5.9328089792685 8.225461796197207 9.31367145972984 -0.28477358637181277 1.5562774306724423 -0.9993466611412465
Ni 1.6403220064705952 9.622544336171826 12.772358251657577 -0.3065536583613817 -1.7335912461976788 0.38671371295174045
P 1.1533671580028797 7.50478579074882 11.864042771628977 1.0606235056738573 -0.46455103294619343 -0.30543599981717073
Ni 5.341339359652356 1.9149532310150807 6.30053020404025 0.2568822592781834 1.10606081207105 1.6486587099193413
P 7.969288626771614 0.11332294012048164 13.080028275063759 -0.6493300465002236 -0.2036524534197654 -1.243799950627458
P 3.368921667857631 8.343600814298913 1.165848274646721 0.13622938678010085 -0.2953184517671946 -1.162967552560423
P 4.103221920259296 4.656058401254503 2.220574951540274 0.8622978637836439 -0.9143642454615802 0.22527388834428302
Ni 1.9160543687825373 8.991107148267405 7.642223647976603 -1.5022840071751224 0.5070228289571591 -0.5348411367210079
Ni 6.381326654311182 1.6312609490790664 13.595734950440885 2.234586380903519 1.992040592852666 -1.3741600231109752
Ni 4.1399980553571485 3.8771620692708435 13.680250073595982 -1.8513230883942244 0.5941816834628542 1.9858887143186577
Ni 9.284280413014741 5.127513335893867 1.1748104162726987 -0.29738304760570716 -0.19440419534862002 0.9258534770481024
Ni 7.6760033819123334 3.600067282263574 13.186081839583826 0.039097223111777824 -0.33655766092263967 -0.7704310622793182
Ni 1.2561555690921595 3.4084693107261166 9.034054320701014 2.0936984123054843 0.22833787198158742 -0.7440942241570023
Ni 5.713449271644741 9.012915275068645 0.5652140160354994 -0.8501149485642068 -2.4100117211567915 0.3303433045818117
Ni 9.279595911665053 1.958980078361356 13.3176612706217 -0.1678159033371303 -0.1616984775854828 -0.3088152007020488
Ni 6.5777304389862685 8.545706253007184 2.7520157658132383 -0.9542942488872983 -0.12925038435910643 0.5039220785446483
Ni 3.7419087573935834 8.711436818685407 12.459306650704848 0.08815721386322237 -2.0365024227104667 1.639513038864331
Ni -0.15609654338057533 3.384626878557881 4.986099251524447 0.7631332430663245 -0.9910247715391125 -1.6258193434273225
Ni 4.40803178497289 7.392787015452084 10.615878849859275 0.2894110851438242 1.0295938900615622 -1.7337686523158078
Ni 9.211810617234502 -0.04330084295383352 3.332911663359 0.6253228849523489 -0.6114834079660952 2.088066667941004
Ni 6.233923500287918 4.445722424318292 1.1918071309307117 -0.16414796756723987 -0.43985507286141023 0.561878086234142
Ni 9.426859090548387 6.126011999077165 5.33239401504317 -1.138646459316555 0.8471918613801409 1.42512802951841
Ni 7.9177311168970546 4.601505423385421 3.3193359411208982 -0.08517499130644686 0.3569791620017852 0.484848606852965
Ni 0.03568526217399137 9.072610006411189 5.752878402228085 1.4524094909421825 -0.02105862044251212 1.111019955848538
Ni 4.738559748729793 1.9131615492239649 4.071022972237184 -1.8180273024555724 -2.0119938960461416 1.1006057024937497
Ni 4.215230027232026 1.3681730077408851 -0.18712996507086213 -2.3276860263736814 0.4352481702170181 0.1386847902991289
Ni 7.84798617050747 1.4958956570898614 6.182335195882573 -0.8910019165865557 0.41494339722139506 0.010312180559285466
Ni 5.998037394476314 6.093397791473259 3.0303497993926967 -0.07399094966516934 0.20847892827413125 -0.526117640805081
Ni 3.80366578913111 2.7732714573955497 9.144149434094688 -0.8336580885597642 0.5254607239473724 1.8946654599356014
Ni 4.511753363661708 6.327622858957682 0.7272529706899424 0.6387029058036806 1.1061060634866886 -0.6691571085284798
Ni 8.176386512137423 7.058031802469268 7.288989850187702 -0.11260403405167703 -0.34722748193166003 0.09022515213584462
Ni 3.754795801943224 7.4876248385932875 8.042876357336104 0.31164161440725036 -0.22499980874728992 -0.09611194993392479
P 0.49153763454905447 1.2514990627704572 9.098287046080118 1.946352089676616 -0.9132321887396659 0.5110453198529908
Ni 6.913922730072377 6.412858387499623 9.620030382658669 0.4753836047853232 0.748434246293253 -0.3893732620617746
P 6.220980465682304 0.5004129915882749 4.842869223006322 -0.337080109085013 -0.8529531893439504 0.051645234980117506
Ni 2.4623773399329587 6.117240223641494 9.848430617986766 -0.12624142232945354 0.0869631935551212 0.01796764022201422
P 1.1900873030447603 1.6996248074213327 3.2530819747211908 -0.26053142599499646 1.4874482277138705 -1.4222589355007313
P 2.0281651241912173 2.767439159898428 13.069730770602838 0.9666530275629677 0.42896233720830645 -0.41503492849393686
P 8.816026243241797 4.541437425003062 9.11869168881165 -1.057157401502128 0.9038736303429014 0.5821345224903329
Ni 5.418866923822101 7.25022700127043 4.904930467381299 -1.5222167415433074 0.5252606921214243 0.9884348993247493
