# total energy = -381167.9150478024 ev
CRYSTAL
PRIMVEC
9.32919757334736 0.00000000000000 0.00000000000000

0.00000000000000 9.32919757334736 0.00000000000000

0.00000000000000 0.00000000000000 13.65422365834117

PRIMCOORD
 96 1
Ni 4.207626591892092 6.7944637441639735 11.621313942952302 0.36917776095050614 0.15539773217843558 1.6946603734604364
Ni -0.11677169713202594 7.118961214870804 2.9024103128134544 1.0933775601764266 -0.9680751047214746 -0.5802941268474845
Ni 8.630001977108526 8.279662629799391 9.073586651724527 -1.9179761096370838 -0.11999415586816108 -2.4397339308115726
Ni 1.648758373213607 8.537363047628066 4.57641815859895 -0.2053054156421561 -0.47257570302288293 -0.3102958990126334
Ni 2.5283244266221887 1.449682631402577 3.9614589278019623 0.0941036612546444 -0.5513522470021537 -1.1745076919895385
Ni 6.6910589209654425 5.68966287963286 1.7065051717625594 -1.6461313155117971 0.5817162040059917 0.27695306188612945
Ni 5.97590131209202 8.447494889754424 1.4917377200435602 -1.3362010273686986 -0.03000066012714833 1.594038965691932
Ni 7.99862056025268 5.397966866736029 3.864581743974778 -1.2873287271480283 -0.7098949525674741 0.47449554575341507
Ni 3.825791874399068 8.243838512054682 9.949846437599586 -0.5213793547891472 0.9035386156009859 -1.1941709747464206
Ni 0.2860537143520393 2.954668744573549 1.2523066693449547 0.36069594873174016 -0.7780826652873052 -0.43915521858090817
Ni 3.7715985671128656 3.3305327757757888 9.66490942816787 0.15945364741536408 1.8720376952337567 -0.5333588957485266
Ni 2.2219909031156053 2.7169514674243453 12.949310256069749 -2.2749074491200694 -0.6036883374017087 1.2884152753439875
Ni 7.43202108965185 7.5469008255654835 13.615855283499386 1.405363188186657 -1.694941137925649 -0.5461246800546271
Ni 5.460360538474731 4.76447705128375 13.096325345104068 0.9012901858864413 0.4875459511794701 1.1549454535868948
Ni 7.693219956479031 0.5670621987883654 5.69559998081326 -1.2923138390674451 -0.390775798836256 -0.8648579112013364
Ni 3.797011300638019 3.712983220292551 11.928561727797161 0.58716745692855 0.22686617253206737 -1.081045778083951
Ni 8.116187104997167 3.4109224691628097 11.87305673536645 -1.2464692699295048 1.5344832176154866 0.45800628984914027
Ni 0.18123271899891255 1.7438322231970274 11.596517869370619 1.434545466177568 -0.40777901826247187 0.49730251634560163
Ni 1.8051157204535369 7.4514071617022415 8.286488803485277 1.4865719957565044 -1.4975498349242466 -1.9090952622076864
Ni 6.492944086479335 7.514024734176849 4.011775020678086 0.6686809402230097 0.32476555338371804 -0.31129168726699935
Ni 0.6256924723244073 1.0300460063310204 5.837125770138987 0.7136014548847839 -0.3659895930305116 0.5485111780089328
Ni 9.059480905362548 8.804084799274223 12.127407971353888 -0.5719820074373633 -0.7849894197094675 0.9695457757297303
Ni 0.5877319683912765 4.1185980617780915 3.495740732522074 0.025930346712516636 -1.000900893002244 -0.45608824689082095
Ni 5.776051246902655 2.4400329030972068 11.644526851747193 2.285139925481355 1.1635113408790347 -0.09738516021939357
P 1.7319468257994337 5.192892451042226 1.7381283519498618 -0.33655097605442036 -2.034759471877431 1.0899482227799033
Ni 2.3628244659994944 5.487751061833707 11.09904028762242 0.09632458016536315 1.17615396934371 -0.744211466461157
P 5.402081042758273 6.85881654734184 13.543979415595132 -0.49889505764370207 0.5264063756900934 0.5151709119855902
Ni 5.819683902812031 4.142686049282477 8.397142413008714 0.5687683855960721 -0.3637900142760316 0.9213399054484648
P 7.677229712256523 5.361900189860757 9.641547252215709 -0.9284747167210332 -1.0070039205761885 0.609951287592285
P 1.0086821444468055 7.18159744574007 11.898904209487153 1.0338732341632066 -2.0039345160767748 -0.4145718728145893
P 9.122033173455849 2.846459384750402 5.175428193641681 -0.3839379499788162 1.1757479921545426 -0.17032401447096474
Ni 4.260644420314796 6.587710072950887 4.068795074755082 -0.3390230917439968 2.404984443145529 0.33015124317566363
Ni 7.26747270715675 3.508608494398449 0.523254153969197 -0.14906459087155619 -0.016963881547848204 -0.835025401220936
Ni 3.495249083822818 4.624651041711431 6.969238792771509 -0.8904630133639502 1.7831307476887035 1.1587177761451335
Ni 4.157454168654841 1.3608780020244806 12.57693254590949 -1.447768135515429 -1.1736628274907401 1.5908883358780923
Ni 1.2107245710085695 3.5917969469842754 10.449768269048077 0.15042033356850223 0.11849134607038947 -1.3621473149208154
Ni 5.793832697012398 5.3260294261294 6.163530128779937 -0.20724325609481728 0.2772916761724708 -0.658654152114627
Ni 6.654814989340911 7.864961150115062 11.072264558367447 -0.9158112623207518 -0.8109213090838809 -0.4538794121649603
Ni 2.6026501417451313 1.5847880671262442 10.601643869890985 0.636252130270343 -1.2058070163234524 0.9613832945235958
Ni 1.7410707807875392 5.848137954666552 4.617121446546911 0.8884606382219409 0.8089078781982778 0.30082035542203034
Ni 8.84441491932901 6.913989420347624 5.522300811223227 -0.32129250723345315 0.9201710819513443 -0.14887741456141457
Ni 7.412000632183061 2.9748944443835827 2.8244172902203437 0.6839376092717641 1.2321639090504264 -0.5461053967809176
Ni 3.5485001421787556 1.0244764755253974 1.4448081257979908 0.2676842349896938 -0.577589840542444 0.7757614733532961
Ni 2.326524559190988 7.091738617063757 2.5164324987864646 1.0946939649950052 -0.011172728787367855 1.241447134124565
Ni 7.762526563438783 0.4233347188929114 10.392488863285323 -1.030003209684839 2.792059138981114 0.39623836461272405
Ni 3.9443939600471123 5.279551365034571 1.9793571389738334 1.8263859588329125 0.09965004499417032 1.0220667284465819
Ni 5.773112549743908 1.9910466232275108 9.355259375010702 1.2459733041296928 -1.1326786717688944 -0.051223831171982745
Ni 2.861833901949173 3.2410937609792967 2.489697817999742 -1.6974757314220443 0.44962860730840626 0.1725233361151287
Ni 0.05234799205445673 1.3112093554430138 3.3106709146616 0.49182400972953355 0.5748310468503842 0.3227161270538571
Ni 8.501641551053979 8.958100517984485 1.5114680394754054 -1.0247941546800738 0.7743471095042729 0.0912574500551009
Ni 6.563332880329292 3.0505169179353055 5.056118021916338 0.03811711858669564 -0.33795274149795346 -0.5233981849913888
Ni 1.4512126197645905 8.887599773766576 1.5401413274671671 -0.10188201964848262 1.6620811539728344 -0.28366004159265984
Ni 6.131017876087147 1.525127850205042 1.1108909645477139 -0.5096648945656964 0.23988829582334817 0.47568185275203234
Ni 7.8394737830112735 3.481525834551342 6.8677735096977495 0.7135011818614937 -1.1477754182010167 0.5816298149397726
Ni 7.963682716254258 1.2108645089685097 13.207143148500501 0.4017808916975081 1.6835349529712362 1.2575646085117183
Ni 4.195498635363935 3.1386405159083592 0.6638181030502678 1.0891185277897564 -0.00832831736003727 -0.44080638103108594
P 0.9410921097956545 1.0933072934213524 0.010758430360208066 -0.5278888737728908 -0.42155884565538365 0.4634621707573889
Ni 1.3498882075705045 2.870547372254787 7.603955397672598 -0.10325678850882217 0.25978349208537843 0.9825010503388175
P 8.48510088418904 8.750003442355972 3.8910850606677325 -0.45079871635710744 0.5085127832391242 0.31071935970329717
Ni 4.079993843229236 4.53634085979179 4.5360833739455 -0.9984233779960289 -2.1419058252486467 0.8653631329725291
P 5.079188193992091 0.2974325363346492 10.947000492906513 0.962243585641362 0.3758968248418946 -0.7021819001939326
P 5.597826261122725 0.7853635504557229 6.8775094600306605 0.6203272315099704 0.29669733439259227 0.9136116835662716
P 0.7446854513405519 1.4378718675836182 9.62442537635715 -1.3308680451915595 0.5443138520981335 -2.0835654376365405
Ni 8.83002929704715 5.2246210511593505 1.2216649207166999 0.19940807632111462 -0.8497871329111429 0.3015713746554419
Ni 4.939595414353005 2.931233800882218 6.790094881054638 0.07755424153639547 -2.250196062416318 -0.8637839614108671
Ni 6.023209671749162 8.728854152010333 8.461153767564326 0.7692920635788687 1.8081948897461824 4.02709214204922
Ni 8.30514066770585 6.1095793806242975 11.659669071932463 -0.4649086733959283 -0.006440099198388908 0.3908573028064688
Ni 0.27333895131186625 6.419206110788142 9.63504760043635 0.3311143784198814 -2.6777028981250206 1.0391018295519976
Ni 3.73110985070348 1.4257625694501197 8.491001601499853 0.5131487393492389 -0.9687235369387509 -1.1920981513777922
Ni 5.986807143770032 6.307311718019901 8.515019620024269 -1.0086278293328566 2.7691593515648054 1.2930301484081796
Ni 2.456312352436925 8.910036493343666 12.248657683204003 -0.6513694455277556 0.1780722909578159 0.1584642869189013
Ni 0.5342075645535884 4.964401750051751 6.495914502909001 0.5621017722091739 -0.6148489820042184 0.27773133481305073
Ni 6.426697456243612 7.802977963058851 6.601024703379338 0.4717943447721681 -1.1904894121297755 -2.4329855563441454
Ni 8.040564631445443 1.1289634856141335 7.874295012043078 0.2639170546377777 -0.1541404627325668 1.0358241872419904
Ni 1.0284787011796892 6.667390747340877 0.4051987592846522 -0.2687885237974661 2.373898520374002 -0.9860545720180307
Ni 8.263523118419613 3.072477848448599 9.502069221703776 -0.45706449476116123 0.07401331826267253 -0.5261919456864421
Ni 2.9356371820216722 1.1255396701942617 6.142843566621832 0.7314791064961531 0.35610215871347056 1.0125307639316885
Ni 7.783162747931309 5.633650378867434 7.456421605266769 1.5632109245674821 1.1156746810117302 -0.4047885681755803
Ni 3.8098855929525235 5.784288928144472 9.24246191594098 -0.7276407065866695 0.3103696896733622 -0.41987837262916716
Ni 2.3073717170738295 3.3872169787489277 5.469513413974559 -1.453226330416523 -0.9115573721404043 -1.2321618521678974
Ni 3.4562530389861283 8.042393154121998 0.4846350087046138 1.3114446463596254 -0.946229726711609 0.21072093023077257
Ni 1.7676403347815324 0.3972204297285909 7.996773379181468 -1.3231974160201794 -0.11080477605940918 0.2975062034471328
Ni 6.874788133169689 0.8546020542749704 3.4033564901287057 -0.6688087240501256 -1.0154741628307284 -0.5526622240628288
Ni 0.7590990612143999 4.7349967877229995 12.437672818615061 -0.8795983027353045 -0.35647651133375385 1.7316384933466822
Ni 4.832207023894841 2.484243969241003 3.4863462308114173 0.485982206236776 0.8842861951292771 -2.1647572759255236
Ni 5.43391226404602 5.018175243458133 10.812997768307175 1.8302742381437251 -0.48483652266810695 -1.5609771501409566
Ni 1.1955646253483734 8.543305746326864 10.177912660111575 1.5783603786144107 1.629723563577735 0.9677007521011916
Ni 4.865894755451129 0.839360011678276 4.89275911208073 0.2568022979698674 -1.841590691597809 -0.028620234839853938
P 0.09365861074855777 8.346254440336303 7.03860230783497 -0.17040063334517105 0.775583038793903 -0.13354181264560872
Ni 2.9858749096402293 5.272964951720049 13.608030885699261 -0.014336985447962405 0.05669462447856687 -1.5163641394172724
P 1.7267318044923263 5.129267325256049 8.529984585460282 0.37663036057380944 -1.0509846970325125 0.11870937561846652
Ni 6.157885964395679 -0.012933066257679883 12.889204103516203 -1.3648449163576366 -0.025904121460271518 -0.5215719304159275
P 5.917593828783574 4.594144566444451 3.5664280606865697 0.9935573081529792 0.33453266007281096 -0.8048378218939622
P 3.5363068812692933 6.783977726365782 6.28639099300883 0.04281503828299723 -1.4329608952992676 -1.3091077706963326
P 4.194071268172545 8.623266296636734 3.2659943215710685 0.13652120698890682 0.8834631850073495 -0.8340524957847055
Ni 4.020594843833255 8.476844544552563 7.380912947922464 -0.9438069762027294 0.17723899642324314 -0.32979694516003843
