# total energy = -340869.50911937776 ev
CRYSTAL
PRIMVEC
9.25174340584754 0.00000000000000 0.00000000000000
0.00000000000000 9.25174340584754 0.00000000000000
0.00000000000000 0.00000000000000 13.54086165501287
PRIMCOORD
 96 1
Ni 7.923461218909046 3.0309913610006776 4.93755360276024 0.1403513793682744 -1.4676121668245499 0.12793680775400548
Ni 7.7124289554017205 1.6279459938190495 12.257702168188482 -0.7403424704240539 0.9402688811424839 0.5120364801216666
Ni 2.94555151209712 0.7909269044765239 0.5765630882252707 -0.9971033736330248 0.35243525138484466 -0.4116372156662975
Ni 2.6169295918963216 8.986412504261244 11.42656441202928 -0.9917053425459049 1.6536996147773586 -0.8982909940488012
Ni 2.175112593045277 7.981136586322665 1.7618696032184484 -1.205140586384047 -0.27548779019451264 0.7708185275257241
Ni 3.0169934734650976 0.5059056746847996 9.22586242233188 -0.31157862237979883 -0.32024349714364847 -0.4669660701455893
Ni 2.0754620665114145 3.7512858316435023 6.3532229736049874 -0.28570792526062405 -0.8120124852655305 1.5918460718056715
Ni 2.77185928434234 4.553208432971339 12.682952995578052 -1.4928940813197902 -0.5050114549540852 -1.0026818961620667
Ni 4.665191533255981 6.172689081717649 5.363453902525884 -1.6598435228915671 -0.13286638384513894 0.47921557693690364
Ni 6.034162730051924 7.782658938404093 4.572667624546743 1.0369737274654012 0.005023935577152638 -0.8670330644757841
Ni 3.399941630023415 6.068218396951112 0.8272612757379145 -0.05591069512469081 -1.541506443010855 1.8229861891227443
Ni 4.537563735137455 4.4097323986674555 6.8149127169546615 -0.08383596078004917 -1.2254163059139476 0.794823889301386
Ni 7.2364637722189995 7.545795807745848 11.151360206998959 -0.7345739433713929 -0.2561674925993459 -1.4994264831216695
Ni 7.8228947697935425 0.0913239576098558 5.237780997755851 2.6104114719672142 0.5982026316967891 -1.8379039867748412
Ni 0.17825796304811029 0.3563623471582889 2.777826658737878 -0.3196698840283656 -1.8322095074932252 0.6861431015635151
Ni 4.592963173711848 5.3702576345111215 10.13953220449151 0.8457993519079885 -1.77343537477781 0.6968291205224515
Ni 1.7025705548646473 3.6387291232774293 3.835773676166749 -1.481238756469049 -1.0202273612449977 0.5774895675191538
Ni 8.532050141564696 7.233345934744121 3.9822454249346255 -0.300813670553811 0.11385744684280391 0.1257716817818866
Ni 5.9920487947829475 2.8029173864288848 10.930779219284448 0.5701117869978439 1.277845213137625 -1.3213523923916406
Ni 4.2885808208231575 7.835800951625753 10.1641501681025 0.5943809439578538 -0.24842024455375927 1.0532164145765088
Ni 8.141793107839751 5.3846811022361525 9.969879287839198 1.890791321692176 -0.18529143441407442 -1.7137500431020358
Ni 2.0976662503087655 8.850532151164703 3.972373814888053 0.07398297924536937 0.9271829944928032 -0.9885171746259105
Ni 6.946514138798587 8.590095578708272 7.093691795576356 -2.7374712764329048 -0.7927672638826734 0.12735188178481294
Ni 7.538773734619936 1.2343675842677502 9.385211672527896 0.8767886012006512 0.39036493655108256 -0.08447770812910613
P 4.559055534704642 0.5853503939630724 6.886232555311754 1.702201419032488 1.1124690295902389 2.26185601525275
P 8.129784345102683 6.5096005638694585 12.726080921907108 1.1263581288675053 -0.20585511749803903 0.11421405885127427
P 5.356629816705498 3.02845638335048 4.969590539282518 0.08440031792395142 1.4225934360220145 0.25433172494218775
P 5.895997196372906 3.7904114538430846 8.63990881470898 -0.0835690802719077 2.0465423234449722 0.5950175491005881
P 8.397798095279962 4.4257656697177925 3.3652152117386827 1.121756368429436 1.0274405911639855 -0.3540982409095644
P 0.6432228235078938 9.107517823389298 0.696158522855104 0.5840255688654586 -0.3010486693827525 -0.37523939376355375
P 2.7052097259772907 6.258147434107704 11.11089955824856 -0.5752923027575189 0.39245730030373704 -0.672660493696048
P 4.8482002664624 4.357793112068151 12.713433788885867 1.8380613382883118 -0.8453021005565957 -0.0467511401126098
Ni 0.6573067522556887 7.041834849491967 11.061894924607808 -0.6715029830528371 -1.1072314353403834 -1.109735946929792
Ni 0.8180317366728156 2.3901693648658724 8.729089143408066 0.06550296679881623 -0.09737950379243875 -1.5708951805856173
Ni 1.3786670237207865 6.011801266619341 3.5969538018113627 -2.755680857462396 1.6331210192950583 -3.765162293044799
Ni 2.2830156745571553 6.945764747595427 6.51775782589201 0.6580787392271311 -1.6182536152649225 -1.734045817236594
Ni 0.6272829950643704 1.98856969391778 0.33712797294383334 -1.3082824465815597 -0.7807884942542423 -1.6664170623440269
Ni 6.5900999818781045 4.004145226379088 2.1451563735796753 0.38559991106227137 3.1829439525914083 -0.7677779409271874
Ni 3.0510028816480403 2.5848537980523982 10.41374832334285 0.06921255443991951 -0.15532008486296478 0.6032975297211932
Ni 5.598868210191351 0.9658912469280271 0.9253279038275659 -0.3809189606468343 -0.35257717627934765 -0.3962699891816079
Ni 8.684870436549966 6.8829269074489225 6.390162408874857 0.6327657143836393 1.4746035105407185 0.48832345277544287
Ni 1.8110287409714592 7.693259343390007 12.989274513851711 0.28532225978643116 -1.8108770645640362 1.7052633457872632
Ni 5.960352322412229 0.45144806357314593 11.049681698344939 -0.8380549320758793 -0.9537800282550414 -0.1148825456732086
Ni 8.377120449118678 7.74336678482603 8.871674234837082 2.234271677876578 -1.4054776022773343 0.8342730964359438
Ni 5.060629543200308 1.888512090680966 8.934463040744367 -0.632807109144536 -1.102563854661385 -0.8537769707968265
Ni 0.721684082478809 1.4393492076902974 4.929076230421277 0.49679035259587345 -0.005528900238029188 0.817772013457127
Ni 5.8397095904466205 2.2385055377867147 2.9597890197828467 -0.9315232737393698 -2.5656012576310587 1.4440793738099322
Ni 4.441169822227205 6.4814012504468215 12.276699697775767 1.047796529112518 0.9874720211908476 0.5551122282652182
Ni 9.232897447898342 2.545515385758091 2.5001846193614736 -1.7911775292525796 1.1336760026851571 0.8634183505413323
Ni 3.3724361973444457 6.971049761894661 3.5576986552062957 2.549700527240402 -0.41266205738638606 -0.8361780267681406
Ni 5.717864131858656 0.9017156047077328 5.013490060998532 -0.6796353823519843 0.41586873724914186 0.48907755733264796
Ni 6.4729636606038286 5.7070951027169405 0.2571299994192765 -1.2834057379445383 -0.11469202692895732 0.5032620763631461
Ni 9.008292877044886 7.117763906335659 1.6007875015119142 -0.20632845759003177 0.5446470670678363 -0.5029802834566692
Ni 6.550289730678104 7.517170914133763 1.9410693937292962 1.1395265479286634 2.070659271097834 1.4567402571070525
Ni 1.6832806701906984 7.69566479663472 8.487100546989934 -0.13630651987493944 -0.3627885695947107 0.17684433208798578
Ni 4.211264002492131 2.7858109131616757 1.0895778024225222 0.23826284440478318 2.0488648009305614 0.12347080156285187
P 6.511136353248775 8.556733792552752 9.147136563504047 -2.5224864287194557 0.41459347008114406 1.8862576954878807
P 2.54594096594754 5.253694921318278 4.9800718392091925 2.24995489293979 0.19047374994596228 1.868951600109265
P 5.311407295704893 5.945068442565052 2.1116835665051688 -1.93686343345989 -1.4726733833975412 1.2605283191257324
P 7.136748483482395 2.5952435057209087 0.6461852316961904 0.8318184642478642 -0.7570944930714122 -0.2656538348232263
P 2.180275065778161 2.43101581130975 12.470212860266981 0.177308673318914 -0.2963417508253864 -0.16288452747378399
P 9.040211391253576 2.2293833189433028 6.750146813515087 -0.8800209920950199 0.8975854833413445 0.28295761620899657
P 6.450555938455001 6.40178074804682 6.556092424043811 0.5458961089835889 0.24122964034259098 -0.816234236656362
P 0.8653109201976505 8.916497080529334 9.890136662428313 -1.122626429739215 2.1910910287240455 0.8560259147320032
Ni 6.626709129913988 5.027961637788455 4.610757976676775 -0.04626365895323 0.23708013695059169 0.07111259967610978
Ni 8.596192477509295 4.6345775148453825 0.7443610303561787 -0.11365767212717201 -0.7692990055574042 1.3665310458108078
Ni 0.20684399933855022 4.940615929775626 5.302709731876605 -0.7680921297334965 -0.12715056440728423 0.07406371188463373
Ni 7.981858222296079 4.784039427031304 7.192391242904232 -0.3669272743534326 -0.6670755434091028 0.5662075668474312
Ni 1.68796205227464 3.6964877563802894 1.3858260226467822 -0.15170074294282263 2.64089909903311 -1.9876152100914608
Ni 3.256336071314046 5.852615772278831 8.43108216679219 -1.5287545426618252 -1.5336180414017138 -0.03560746479096448
Ni 0.4558518933596206 1.6958722927524463 10.855694846599379 1.0053733269513008 -0.27503836136191984 1.1333949811096287
Ni 0.09318633352585863 4.629979398450682 12.10435174831505 -0.3431952208438154 -0.03102627317818528 0.14520099415109186
Ni 4.369607588196992 9.121339927803149 3.0828483070850665 0.21776292467921854 0.674542026989477 -0.12889325813000382
Ni 6.477913343241988 2.801807177239018 6.844824528052668 0.5554642122879982 -1.330904811966766 0.16560552594937286
Ni 3.376895537590414 2.06074254300242 4.8470863565752325 0.16158200661227656 -0.6264035196110374 -1.0238996678902623
Ni 9.013288818399289 8.947943755832334 12.199990718976192 0.2441110756554441 -0.49150339316532127 0.48897317054429973
Ni 4.47147853311059 2.01891541177416 12.373733831318841 -1.053519033418592 -0.3525617496603799 0.5554960939671981
Ni 3.959995907595355 4.292096483257738 3.5651056008513624 1.8316268955168775 0.24881208067553923 -0.8197623044142784
Ni 1.3926926664861132 4.639656721889027 10.188184346714483 0.1314713032698252 0.4855026954971961 -0.40008987714833033
Ni 6.311067405491391 6.30688561754289 8.718974212514048 -0.5884800050923865 -0.1633234147834155 -0.135441857881799
Ni 4.297601270490832 8.092324036687902 0.9330447828714704 1.3566605807746313 0.4944887010458903 -0.20531724271669802
Ni 6.67070116906249 4.984830010762101 11.543435208272314 -0.6338044400607987 0.5737121027545925 0.8168890966315414
Ni 6.398662910571942 8.224022601835943 13.266441938799447 -0.24593193091426674 -0.3227186981570184 -1.591959200344768
Ni 2.699741945717193 1.4675577728561824 7.069006294239651 -1.3359853118134668 0.3133699099522667 0.23048037224588694
Ni 7.795703896385037 0.3143150244407048 0.9948852850957434 1.0035416730592006 0.6116158197789016 0.3174422802494275
Ni 9.109719738282536 0.1475014677914793 7.3851994225598805 1.840839158143765 0.892719927718927 -0.4911274978831412
Ni 3.8886557154031154 8.54862001372347 5.493581521670261 -0.7138369679343577 -0.8061840515092116 -0.9239619164523443
Ni 4.301847820642075 7.806620953418734 7.935960324038305 0.947997360134993 1.2318646326424527 -1.80305474030614
P 1.1278337607567086 8.471710272095393 5.6831534415374465 -2.465931415142547 0.6002672275353017 1.0597781269544264
P 7.0406043676398635 0.2698298673770365 3.123294153046267 -0.306416361452569 -0.6256663843346967 0.15934720374448685
P 0.5547585797362719 5.699175610495885 8.21742055785353 -0.34159110958148914 0.8013187529971103 0.06167819373608732
P 2.5533146053169107 3.671970636770714 8.666449290567089 1.2646767940764672 -0.13985798467162364 -1.9147311203372253
P 4.406448029814097 8.993619612252134 12.459948976306656 1.360248812346522 -0.24704856101721323 0.9263666692390949
P 2.6734114844308343 2.3864131571068206 2.4625142963749425 2.154754656186857 -3.1265457763073377 2.080637208246152
P 1.2558131251186917 5.721287276860747 0.9111320289864595 0.5166690937976715 1.3090764032377646 -0.2517498231476245
P 8.189772648328526 3.27130539189076 10.72096356001435 -0.15858178633337203 -0.05404433133991338 -0.20985344002415474
