# total energy = -340898.6628576741 ev
CRYSTAL
PRIMVEC
8.98058046992445 0.00000000000000 0.00000000000000

0.00000000000000 8.98058046992445 0.00000000000000

0.00000000000000 0.00000000000000 13.14398728872296

PRIMCOORD
 96 1
Ni 6.472142842928551 1.9493158610083618 11.244813171494568 -0.5739051926020051 -0.1405149015293322 0.9074055547555597
Ni 4.446114861783574 0.3918236329633 5.96087748697099 0.29964613260827105 -0.34157799695536656 -0.4847020539727717
Ni 2.8104727226356285 1.76148701616438 4.70863609417008 0.39888788642042916 -1.1754834256392466 0.2293480584136566
Ni 3.3250599953853377 4.3687202175155635 4.824671482913835 0.3540311351170548 -0.715838828855735 -0.3917649022224027
Ni 5.115581228876066 4.42434593422432 2.681872603467718 1.0137952324664088 1.1820055430284804 0.011630385150076744
Ni 7.220315019067788 6.018821091552288 2.464129444391113 0.20054990323504168 -0.37241529405119733 1.3848797235213246
Ni 5.0775215279700765 4.5099308680690795 11.277344426936253 0.10234816065162373 -0.001524407064326407 0.5093879867552259
Ni 5.5928272471738865 7.827330428137567 12.279350021715782 -0.23199243801503916 0.1616185162771668 0.587533324908401
Ni 2.0615371971389096 6.464320757159528 0.3572591740565097 -0.7507824348104554 0.6406412604769741 0.0027935035847371247
Ni 2.9092770712358433 1.6241739376243614 0.5142837291228517 -0.5951738721727943 -0.47621484243736695 -0.5754902777009379
Ni 0.48313907533758127 0.08442823505365736 4.722240775836546 0.4722676848641608 -0.2812470612757931 -0.07215903866275315
Ni 8.587240223220675 2.3580580099076687 1.3714828488460902 0.2682236524329316 -0.0747836207697938 -0.09339352256149722
Ni 6.867970916815396 0.6565226561637987 4.668573723773283 -0.7922856962605646 -0.5492354577694669 0.5915213630218716
Ni 0.9170070928529287 7.441776138544364 2.5000787088381826 0.48096726952068775 0.15910706270922276 -0.15412195078980553
Ni 7.459970794994468 3.744264520772487 3.837913118006461 0.47734201406327464 0.5771231853186706 -0.20314928853110176
Ni 7.553404756350278 4.057579019405853 12.498394466932377 0.79310022174206 -1.778609205669266 0.062467779516918225
Ni 7.88889230867333 8.709825149451628 6.921900201834405 -0.5598001206591907 0.09812332393699874 -0.5662697875439344
Ni 6.83561388463883 0.7512749667628847 0.3921729775516065 -0.5021148501325804 -0.5474338857843539 -0.33253079915143374
Ni 1.7762870131188566 6.357855973242463 9.126711786966235 0.19205934926552728 -0.22678235456900944 0.14183850543676216
Ni 0.11934563078102463 4.842778129673311 1.4585881949993407 -0.1305405639254397 -0.5185022903516683 -0.857877109008129
Ni 6.311956225406098 1.8879964561508573 6.9333351752094865 0.3252419787995044 0.34182559418979835 0.3092564020045254
Ni 3.4472497760665335 4.320593285671485 0.6561490640076664 -0.21853039897286236 0.15263482472131776 -0.46722215202045336
Ni 5.899379368558028 5.565526281918054 4.779206395182199 0.3168172450709189 0.16641336656264888 0.06615936943589251
Ni 5.259746490472072 2.749710113780052 9.151567340103918 -0.20135491563484034 0.3257639127412454 0.16162751513823131
P 0.2450710660744645 5.595557343699469 12.408068684548619 0.9340951482316041 -1.176041612135562 -0.12238142515341503
P 4.04284188651611 6.046355551905703 12.582450007887969 -0.0011374560385528799 0.6739236766791877 -0.6682415386927458
P 2.4009313020561347 8.587877844448691 1.2799303191419558 0.5533888178162083 -0.5344297602152023 0.33274188672097527
P 6.239051871476217 7.638513719419196 5.629727555114571 -0.07214078383030802 0.2206803554363296 1.030174959376013
P 4.7520473231010545 1.0619357038064157 12.402496234239 0.306958092888652 -0.008729409453197869 0.3431882788652799
P 3.9546346231138827 6.118236119638489 8.087758287168436 -0.5120796746547762 0.35951838348387116 0.4831385661403938
P 4.858440262372708 1.0558558506885876 3.7514777231716594 -0.9404861393596127 0.18902596175584221 0.6315652663176349
P 0.24549584754045162 5.648758303625635 3.5236664350988995 -0.34115942136070926 -0.9659814554172397 0.8310314495701946
Ni 1.517403813964304 1.1711036425070345 2.658240205418139 -0.6296981312019091 0.1815967591713066 -0.5314560222988589
Ni 1.9789248354979918 6.516650600760096 4.658084405543411 -0.7350691378402566 0.47811848721798306 0.9446965778965344
Ni 5.8727788885949455 5.467458340933294 9.108704824652264 0.03575041812673198 0.9677866269467784 0.44769719461364826
Ni 8.516275674716868 2.1592010119932388 10.021527864968125 0.9811725613353812 0.7656832631816878 0.3728708935313772
Ni 2.3675864060051803 5.151620299129899 6.838777743211076 -0.6423829257584291 0.1843910340869921 1.1380407074117562
Ni 0.4468952478443304 8.96133529187097 9.057574786630045 0.3114423539122507 -0.3252273235114851 0.40993668803542305
Ni 1.442945819577431 1.04482769761814 11.317827986566767 -0.35962354160316773 0.3322556911131762 0.3322047832705827
Ni 4.223944276433573 6.95740851977027 1.6256485489714034 -0.6216474929832907 -0.670683058254703 -0.6350421691226418
Ni 5.525885998813042 7.872116583970076 7.7980519390168235 -0.4578754206982308 -0.23145507745433042 0.3853448576286718
Ni 5.126160352912701 2.861644071328959 5.008752731441614 0.5312649893339755 -0.12680603658367193 -0.6019888382120988
Ni 0.711222475004832 7.231271327492825 6.829904929502931 0.5861729542257647 0.09721006809411 -0.061645026505306746
Ni 4.9621659691835145 4.573100272545894 6.945769687213837 0.23865648029877606 -0.39551537040377044 -0.1170283883716178
Ni 8.1714123961678 6.996887152423111 9.228603659202946 -0.6012352478755257 -0.27370987235848343 -0.045303351922489715
Ni 4.745464557465356 0.31547522634407393 10.27147448829173 -0.910569297195522 -0.02884494925615032 0.20605489221367093
Ni 8.105018963228208 7.084115532531626 4.701867430514382 0.02126276603351822 0.21263974452004025 0.034220868856083005
Ni 7.206332254954851 6.1920744539587 7.126184164651498 0.15363266985821283 -0.9930464299548317 -1.1099370071970047
Ni 2.211863137078829 5.343122201470472 2.575143790478771 0.798810898973592 -1.2142716021510378 -0.26394070878686154
Ni 2.3999703799237744 5.087454050198019 11.40631274991189 -0.6629149842735099 0.5836892685719626 0.2627502880231862
Ni 1.100471375488248 3.283668499048454 3.9438399651410174 -0.8962225415555468 0.8585247698944569 -1.618825942828625
Ni 3.7376458328140836 2.7617979753702984 2.4943086857536856 -1.0624731572880863 -1.5339494565992033 0.93420699121912
Ni 1.1259941857701796 3.2608578241307535 8.136457282001592 -0.11989593972739997 0.2041471336679968 0.17464012534781537
Ni 3.545578153890907 2.6557822204870467 7.143915423138707 -0.27063226187442424 -0.051281166772479424 -0.08594400826198746
Ni 4.055989456626155 6.8667495578434234 5.963322001031068 0.19848093652115495 0.23173481347827832 -0.30264583866654327
Ni 0.6344061801323727 7.367964745966181 11.260927027401982 0.5651120197904074 -0.17816973576762862 0.25696890545471873
P 0.23537024282796823 5.4023581116110835 7.948458704182829 0.10974573866727551 0.5461434491077046 0.2637064812888684
P 8.40323710574478 1.6436168947884646 7.909710192738968 -0.6246029760671887 -0.03538789258099067 -0.3473688926055308
P 1.7508001251596301 3.17314449266572 10.381003446335535 -0.017119176178789868 -0.37188101881428215 -0.9344574166670293
P 3.954131710596012 6.036144631676795 3.712716638914853 0.4989320815292247 1.4824289201224083 -0.5019613552738517
P 6.896313629429672 3.803275916396193 10.249799856829576 -0.07512712015214158 0.9386267175533706 0.8185207186976935
P 6.18009435933657 7.61309867610538 10.101456829102975 0.608111663280385 -0.8698854463229148 -0.2845432155285616
P 2.3754264529355558 8.497649950394305 5.751479981516834 -0.11588013369978752 -0.36153541391389993 -0.27902125726906785
P 6.960515800684256 3.9471627799912343 1.5288953649976464 -0.3063484843291111 -0.0025875582215181244 0.1897947216010667
Ni 5.290289445352032 2.87989261126312 0.3872327601215958 0.4133912222429268 -0.06940204474290629 -0.24613556228464062
Ni 1.2589247409401831 0.9518966487801995 7.0010137292438515 0.8279648948297289 0.8119914022196081 -0.7813669924655317
Ni 6.794949815336723 0.5453628246691853 9.00325035606128 0.1784193898845895 0.28161112948343114 0.3785802852113287
Ni 2.619042664940466 1.394702140184561 9.200239393195046 0.2433657128489873 0.6875608078466481 0.08802583049168065
Ni 6.36655815591776 1.9826248347366109 2.4916396571767008 0.4587310838303068 0.25822283246647787 0.24790319570802466
Ni 3.9201851156397485 6.859160967171984 10.29908977387123 0.9547889291355298 -0.4674869756460659 0.020734147223557837
Ni 8.223248307831174 7.063181798975263 0.45095716448420287 -0.1929299247959387 -0.09781144912353476 0.010608114533149473
Ni 7.647018329319614 3.8745009017396126 8.243922502605992 -0.14854985601866674 -0.4722108634842964 -1.3066245992631627
Ni 3.1908991006626866 8.41039462854376 12.177010916561391 -0.28820318087865204 -0.13512484086201243 1.0655888200989325
Ni 0.01462487563128973 4.734903394590073 10.338929425867256 0.16784598524411737 -0.30583452080717005 -0.3892465066759232
Ni 8.448759669192743 2.363078154505698 5.684420189491064 0.5925960841432891 0.12145479957408761 0.7915454756604303
Ni 3.470105353887616 2.766279285127752 11.611937513423952 0.7758038965554575 -0.3837168351069456 -0.5244682781271162
Ni 1.1825179605465612 3.2649439883384517 12.574406101776244 -1.1132437029727345 0.20511515400822097 0.41572398414116146
Ni 2.9391913854684657 8.263912377133279 8.033223711011846 0.6628311663104519 -0.4726736620533279 -0.6912469984489837
Ni 5.593797149886922 7.777048156931186 3.4751524402276743 -0.13915633061890872 0.06942826999515139 0.6647175846998875
Ni 3.0823508220287295 8.433169381138756 3.5137554662645787 0.442555759622025 -0.07966871677623698 0.4331799748340798
Ni 3.4411878841100583 4.383493272728011 9.363658121702885 -0.0949392697820623 -0.5077792475072095 -0.7515303687200735
Ni 7.20700579850557 6.120391459000791 11.506864719511706 -0.13522639943688325 0.7264829388331424 -1.5521348692589785
Ni 0.48141031355740116 8.932453744416117 0.2341955828755134 0.9391931315798018 0.6683711222920748 0.3298187995369094
Ni 4.645474772215874 0.38829606087366497 1.724964790670165 -0.04480275813698736 -0.22791723950440104 -1.173227025504902
Ni 5.990837602165062 5.579769482870604 0.3951428555812458 -0.926606810274359 0.2776356897754509 -0.013107226805919362
Ni 7.790168785299202 8.801427072349481 11.169261342381327 -0.015415563224121838 -0.09247769561544719 0.3927290659078849
Ni 0.08868413223613705 4.852926185837484 5.733052728027215 -0.43167279416093396 -0.031180796478178556 -0.09049228975430221
Ni 8.00845975979706 8.65187346234772 2.390050430508778 -0.7314798778271016 1.322831033819696 0.8205454624372062
P 8.4064072507235 1.646760098025156 3.555619341145033 0.5782693831079718 -0.025433609581756198 -0.6370170334608255
P 1.7191525588564893 3.2321289465473972 1.6647383224809613 0.5963303543747407 0.015355399410147748 -0.18908304024602274
P 4.574483281970037 0.9618830544922008 8.110169326246044 0.24628160094420165 0.02275400586706404 0.004820818427411052
P 8.478754808651452 1.5976363217260126 12.343111246459163 -0.06086341114427581 0.6282909664417373 -0.2536830356145954
P 6.35654480846373 7.674166624703949 1.3589567349188425 -0.914230033876561 0.6537937386985321 -0.4667984342194735
P 1.7713207520048848 3.1864806549699667 5.946287635604338 -0.2577368939689948 -0.18790213256404414 1.078414253998375
P 6.854625773930472 3.95593680731194 6.038006306050983 -0.018296998536974942 0.1955210825618826 -0.2842627081736652
P 2.2803939482193702 8.29733809841032 10.188430160720284 -0.16048183156956233 0.8464017613786777 -0.47144210363907196
