# total energy = -340897.12662607257 ev
CRYSTAL
PRIMVEC
9.01780284207864 0.00000000000000 0.00000000000000

0.00000000000000 9.01780284207864 0.00000000000000

0.00000000000000 0.00000000000000 13.19846599286863

PRIMCOORD
 96 1
Ni 6.25717395056733 2.0915621746651527 11.426136247121327 0.775791041039651 -0.8271567971061367 -0.13677266087808057
Ni 4.788083663658816 0.2988292505094117 6.060868102377376 -1.019686144029547 -0.21879573681910705 -0.32733639943468784
Ni 2.8156827378501434 1.773459173801499 4.691249593252749 0.008166337860876258 -1.2822615970377658 -0.21300535538957507
Ni 3.5043633352408268 4.38206610133748 4.804373422999995 0.18899202319411323 -0.09780502136563156 0.07525336131736073
Ni 5.133934444356842 4.452134430655994 2.7292840690769444 -0.2961939123936125 0.1382263626054716 0.16592280007947555
Ni 7.260395516636235 6.111031435131572 2.6404722362206523 -0.24806517520718566 -0.1370284856426285 -0.26578701796698095
Ni 5.2132820929634835 4.462604099940266 11.458578695198069 -1.2292786170828314 -0.004013234924451153 0.4404461694781899
Ni 5.8754954385459515 7.953828496208496 12.49608324293624 -1.751591025209209 -0.5784537312046361 -0.3897856670088448
Ni 1.8379635186683372 6.233159541175412 0.5307464027506928 1.310238541866666 1.073183344616739 -0.9060726948767492
Ni 2.5826807439078303 1.5899468827291998 0.26632908849346254 0.4751653181269301 -0.4525918037017883 0.5038958532924032
Ni 0.6581787805197775 8.90657741888027 4.502405977046203 0.00259012932467941 0.8462834906332586 0.23313683603212754
Ni 8.612101061879486 2.4153373736164956 1.1478914742745843 -0.04519356581750281 -0.2446975442865334 0.977967167024206
Ni 6.808774924538357 0.6362456800605124 4.657435537339541 0.12290310198483996 -0.0660261862921379 0.2603511916633903
Ni 0.6762964485292791 7.278503265062436 2.547092886144306 0.8487975153043641 -0.3263380400771606 -0.4911025581824768
Ni 7.4558383610789845 3.82805737396516 3.8044713102157943 0.7174557956338676 -0.21563790791641574 0.41070904742507325
Ni 7.609691098080679 3.91265338391844 12.544865048270669 0.36778962235372786 -0.06442618879486968 -0.21710240827708419
Ni 7.8020769073060565 8.991696461407612 6.987175924869635 0.22135655556774778 -1.0958201081796481 -0.5275587441269817
Ni 6.764831170514018 0.7532462633179295 0.457982652115151 0.10842136342889715 0.01868703488654201 0.40202720338035924
Ni 1.819612289561107 6.6494303455089945 8.998634759036655 -0.5063098620505345 -0.6128723178938219 0.7782649565014402
Ni 0.03630116598091108 4.898641928452251 1.387673954293421 -0.13302116425544833 -0.6787691776969471 0.4071586110696537
Ni 6.320000984075965 1.9808325716146975 7.155271379931261 -0.19349505327078934 0.46483616828678015 -0.23069017426384786
Ni 3.5786880675758583 4.186677363712738 0.6264568549028229 -1.5714597948398354 1.035889493262287 -0.7557816877972597
Ni 5.977261345413317 5.695391877008067 4.854515113026989 -0.3740628569569493 -0.13732879049186672 -0.026839231680031196
Ni 5.181205767688586 2.7212753582316713 9.352816186147091 0.07704233489698345 0.21416080915025698 -0.5449054629355454
P 0.18221913812194207 5.616927973095532 12.436465645515696 -0.3076242657177412 -0.5635385046557004 -0.9841776667102922
P 4.109088186691309 5.98313193516703 12.717236745515414 -1.2909843216227443 0.7830947737899159 -0.8886992365953083
P 2.3304618117701823 8.402166608013976 1.2846320283013999 -0.7631314432941115 0.1777557881586616 -0.11172445966020114
P 6.243872691140714 7.6791281811891166 5.916159417618792 0.7740581175089443 -0.09714630473571012 -0.5293541454645077
P 4.685406958688339 0.9539663260769198 12.65876801619721 -0.27622029748516297 0.5531821011220409 -0.7632720826370338
P 3.921995827827575 6.174507750456286 8.431391503979928 -0.36178918179591885 0.20547125179605905 -0.7837246940644309
P 4.641950166026059 1.0703230382000586 3.7232741102136275 1.050413912130707 -0.5060622648161026 -0.06180494912193872
P 0.19874786924265053 5.440341354728074 3.643080591685483 -0.23291520693962467 0.4430941486239982 -0.21528232434920985
Ni 1.466069322903147 1.207546946467733 2.5466311746306496 -0.5610998133072207 0.010371315931995043 -0.3346105644985979
Ni 1.853861905359269 6.4136598860453455 4.726423533858523 0.809241864498929 0.358048483806564 -0.1989905291677218
Ni 5.8814291529206715 5.502347768163609 9.187109547100457 0.13519708886084458 -0.3735794895626276 0.5776739156158179
Ni 8.68184475028996 2.30698847055833 10.183105147624584 -0.36280245355178165 1.0800615597938108 0.7405407024777891
Ni 2.443301580722894 5.306174481677771 6.886775313376635 -1.5271874552850215 -0.7539124957990048 0.693648665911941
Ni 0.5100234914541747 0.061591594497484206 9.137363738625211 0.3963885170373432 -0.5188730434275257 -0.08948390309444589
Ni 1.436599142695566 1.12819028005809 11.451028990525554 -0.6912503408830935 0.027866901613597166 -0.22925935535459224
Ni 4.2328394972753465 6.913047780640027 1.656301680771863 -0.5601868145746481 -0.5493989799305248 -1.055004102604551
Ni 5.718495488296873 7.787612351292299 8.177148976848834 -1.2406282377676956 0.6919908185935437 -0.23980499208092249
Ni 5.256973348503792 2.7216721415637197 4.946256830078337 0.47114231301046605 0.5510856236043283 -0.08759002850584269
Ni 0.7459977532656488 7.487454778400825 6.630130443526049 -0.3535619087901201 -0.13395961690931768 1.1603188020836661
Ni 4.842560211588436 4.588086828700514 7.16916961791655 0.5776191511184826 -0.4010833514098512 -0.6937571664653472
Ni 7.969366170779384 7.200598464935968 9.080768908770635 1.4209209334155979 -0.2374470333717072 -0.18652453549022713
Ni 4.640110534213835 0.3339355575926776 10.459388087070655 -0.3058430054476023 -0.1012947796864449 -0.10793491071078186
Ni 8.169137560662659 7.168215534359034 4.730224537823486 -0.883638277132633 -0.3265025906794829 0.41409724717101587
Ni 7.052174445340933 5.985224065463284 7.181562784580956 0.48960746169418906 -0.0762028697148236 -1.6558382583869162
Ni 2.39191813922265 5.123455757269569 2.614972594674454 -0.49059167998432923 -0.32608247242292876 0.07852097632503896
Ni 2.467857058294878 5.242003795521974 11.256179517520277 0.05729394862546261 0.28834022067714854 0.9008196740079261
Ni 1.045037118584986 3.3611606235834257 3.932865887565096 -0.546706006479394 -0.064510778088876 -1.4310878466462709
Ni 3.678470057782983 2.4945858263901255 2.3268501816682434 -0.2072157452909915 0.5303175378190415 0.8723758168449363
Ni 1.1035626600620976 3.2706308992554254 8.21194056260736 0.5375140555674808 1.1709752533562476 -1.0474571434952284
Ni 3.7993537070126724 2.457080783708568 6.917250076838538 -0.7459865560837088 0.044118844696085305 0.783480953484741
Ni 4.078815422016631 6.8587515887704305 6.145628236345276 0.3202758930434807 0.4857811459695633 -0.5578373405058651
Ni 0.9767633320636898 7.323312728174881 11.372920388051263 -0.14382391129790714 -0.4944550195944774 0.028669600020550624
P 0.1279103213281428 5.646713776408151 7.787239916028354 0.8170765300519991 0.08824540270165447 1.150236992367632
P 8.613084002406605 1.7163764808045627 8.001636378818807 -0.10849104032456801 -0.3673761889653931 -0.3248311165143309
P 1.6951936615549887 3.202898180914195 10.372489832011196 0.3765221171307193 0.22552328535092772 0.5481851621280818
P 3.991541124572026 6.2301475949730465 3.696111585794027 -0.25958268892848196 -0.7717554375176966 0.9775452489954389
P 6.89265852805455 3.9043570051574314 10.31853451309504 1.1725523680353807 0.28616609584396524 -0.6889921409765359
P 6.393342775883876 7.860710662419182 10.313756881065059 -0.4718524517036132 0.3286887996975243 0.18235729148641497
P 2.4381073261942627 8.4788990937503 5.647003247884486 0.7558292532057435 0.33834046385467537 0.6212944805192461
P 6.9431401892546845 3.9984938506858705 1.5948760138495988 -0.10308195349385472 -0.13997934074083634 -0.398967590618429
Ni 5.304208600623532 2.848101739639082 0.3335559080863315 0.850535066820761 -0.17856928519889245 0.28158310445897305
Ni 1.490444444415109 1.180890320796494 6.8206504693105 -0.02617485862315492 -0.10075639068447163 0.11517616565422746
Ni 7.090500108095591 0.7715280553420509 9.249657028716058 -1.645314733147773 -0.686540851222566 0.4725121967747991
Ni 2.5667913750198994 1.5720014547570194 9.168551810304502 1.0463063177202367 -0.6353949244763702 0.05620971442234836
Ni 6.348767775649461 2.0213315248926187 2.4964894846036567 0.2440946205952119 -0.1291187438772486 0.5714454182076029
Ni 4.344606147670928 6.854828844464953 10.586845714688142 -0.27779175573734094 0.082543981441503 -0.012965559021732508
Ni 8.036088895184493 7.164987160884642 0.2364413840069308 0.052094149592078025 -0.2791017327980161 0.8282883396074188
Ni 7.737870149938255 3.7897948358315108 8.139573595303867 -0.5051222695003365 0.20706019354973376 0.2909848573888472
Ni 3.129258801607247 8.277513517129828 12.378669644301374 0.5070356844729655 -0.22145425748787667 0.49861223629596063
Ni 0.19393957668246625 4.953650526758935 10.053760093838967 -0.4247896938878555 -0.11857156448902159 0.31939966108611445
Ni 8.35586920740635 2.203833822028795 5.8289049593407904 0.5182150981285527 0.7348811901991665 -0.5966543133730627
Ni 3.616580875786463 2.6681965697672214 11.365476191673856 -0.1255888763471192 -0.3304860008072631 0.38930281383515536
Ni 1.1698254765141496 3.5831518800614006 12.529409435707091 -0.29873236254475005 -0.25636109666739076 0.2323351660664386
Ni 2.9997180614965058 8.399930192869704 7.9671090146882095 0.8207817468177284 0.2243693742521426 -0.31888055535785087
Ni 5.483202972392283 7.863425021122511 3.6678930766429985 0.07819753154734921 0.3210006870246472 0.26730525438372027
Ni 3.0345628522927397 8.448716507105631 3.355274703564611 -0.27964937777137 -0.3085724885636234 1.2031191850786442
Ni 3.292282644261056 4.183025153497294 9.270021933233432 0.4939240867916719 0.29981865363039334 -0.9544382306643305
Ni 7.071220045279247 6.084086239764298 11.3016355571079 1.1634604330364415 -0.6394937771360922 0.26129478652358223
Ni 0.3880658218870552 0.04237826342334953 0.33303287551226796 1.0000107770878068 0.2686509697783373 0.530388500266293
Ni 4.550798213290983 0.3252883862949269 1.5937145208230576 -0.04929241847722478 -0.10182082739324398 -0.44173403505167796
Ni 6.014802459306879 5.598766117851325 0.37820305074475674 0.3162505739341715 0.13396321645374348 0.7592341651222343
Ni 8.127872094129645 -0.3640793676844405 11.45265219506575 -0.9613123320763445 0.7937149725079234 -0.6930778810101353
Ni 0.020939338568544408 4.688337744663696 5.743220500565278 -0.018236834723000847 0.41692828886190775 0.8693485999828383
Ni 8.033699177389202 8.833984104721448 2.514017388296887 -0.8261797779048481 0.33571202509289283 -0.21135650693224248
P 8.515917175069799 1.6349817909166722 3.5844260956254557 -0.40342485505883424 0.3837392037044488 0.24546090481511923
P 1.6444955730828281 3.2126554437613803 1.5536835915208933 1.077338504435693 0.14696862757447593 0.03801890244593452
P 4.736573972916557 0.8448445973015599 8.28822756887543 -0.07425165952572373 0.9837390365109767 -0.6063206328182332
P 8.239413299450199 1.609263016757547 12.356787043538915 1.0878563732478814 0.4185437129781437 -0.6974155891535408
P 6.272540286881197 7.8060357228235375 1.5534328965974629 0.905672374114537 -0.19521332151347667 -0.3634992225084901
P 1.8766228401340348 3.3002453643110243 5.899727176990195 0.26298785795528895 0.02026029291093285 1.7344821334430645
P 6.825665269559409 3.993380756384249 6.034985204203632 -0.6185894228832572 -0.3360820068378018 0.2030770405322696
P 2.362393852197062 8.538669092041562 10.265397108911083 0.8878793117971743 0.12904032523082937 -0.9573839435562157
