# total energy = -340898.85177638015 ev
CRYSTAL
PRIMVEC
8.97528560921480 0.00000000000000 0.00000000000000
0.00000000000000 8.97528560921480 0.00000000000000
0.00000000000000 0.00000000000000 13.13623772486220
PRIMCOORD
 96 1
Ni 6.266185484637819 1.9945867228666025 11.28991319050874 0.3160934795310169 -0.10357303419766034 0.3435448908737503
Ni 4.704001102342713 0.2809695246927495 6.212376851634638 -0.18413263821928288 0.326590779517915 -1.6944066055784173
Ni 2.7454591269642306 1.6058491473672423 4.708513876007311 0.5907693153471955 -0.6198027264650681 0.30235119024425994
Ni 3.280745167848554 4.301594166677914 4.808730121401446 0.6606354442107139 0.07888067365730286 -0.5045365722001957
Ni 5.087784320119603 4.568151177546853 2.79378924555836 -0.4264046037834592 0.0010672649222497749 -0.43513761278108287
Ni 7.1444171932315665 5.996702530621189 2.532995265656085 0.29798082909070617 0.7563573577950715 -0.23070148711775748
Ni 5.2045797133125555 4.406479355708333 11.519416631773607 -0.37712349816014407 -0.03275302606130488 -0.891322018930136
Ni 5.558116218182333 7.611643642432023 12.318664928422583 -0.38247447805941226 0.41270987990518604 0.2566590875237838
Ni 1.9734858261174568 6.443573031788016 0.44648007623761116 -0.03646775590873074 -0.202863896080199 -1.0502820145385332
Ni 2.654970296243309 1.591569467772223 0.4450503132209634 0.25202724517872727 -0.1050493616328707 -0.377499393442324
Ni 0.5544752017731683 0.10382431025723811 4.5428525396622 0.155452496675771 -0.21342855896992277 0.3948252863152813
Ni 8.446237511810821 2.4414123476047846 1.3030580104812994 0.45815207139838515 0.16665222204633234 0.2288713758875542
Ni 6.919308051859672 0.7263384605570964 4.889426017863332 -1.109020408920006 -0.49815149460945823 -1.045395375870193
Ni 0.7982170363187012 7.09821242229809 2.4011725515668774 -0.9036373459623792 1.1384988779950973 0.46699563783194414
Ni 7.480335212215094 3.943498216657747 3.8644187691556744 0.3518858066392778 -1.1279308726712638 -0.6629136987219293
Ni 7.561902608921276 3.8405427140590866 12.449528184467349 0.3096495236778861 0.07009495704487283 0.2926020812772961
Ni 7.981533117900246 8.604256392357591 6.874035813113451 0.1896157728210412 0.0634262867754456 0.14056606648224176
Ni 6.593675710321709 0.735282332786158 0.37497128224804593 0.6265559860285015 -0.11734334850887533 0.028437172294770382
Ni 1.9279272757564772 6.505798687747959 9.147682119869648 -0.15461637392772082 -0.06942698444357075 -0.4787566350226142
Ni 0.23459781344471217 4.9121738795437695 1.3306615017411878 -0.7592094825318861 -0.6966226609386003 0.08737277028871404
Ni 6.260369499485353 1.963604036529703 7.046265263555128 0.2567624458708675 -0.29182303701942647 0.11094592962296376
Ni 3.5370165012719292 4.361540100062662 0.6692502581484977 -0.3058779724505958 0.052473644418683824 -0.7584114121106229
Ni 6.067293152880667 5.6276298061543155 4.760112793663985 -0.905036540302751 0.6094905459057826 0.6507181850970019
Ni 5.1983418897308225 2.9402228272859916 9.1649559547839 0.43830238366230967 -0.28338930442977645 0.15927521285597085
P 0.3283437753567288 5.469548098607442 12.3064217411595 -0.33392279440295397 0.3770777325238732 -0.2473576076171998
P 3.961933453545346 6.0657314531638 12.558177608332556 -0.3934438325867224 0.22360447106166004 -0.8150443301133189
P 2.2597794903047164 8.447637656384563 1.4043692407343857 0.3999271263182209 0.584522048885903 -0.41649017288322465
P 6.2621914824883635 7.681965006119627 5.747668867609771 0.5847565334942122 -0.27300384743039435 0.06316583402520735
P 4.571579736695375 1.0610852047529746 12.45995836401315 0.026265104344116056 -0.12419508132338611 0.23690195950151458
P 3.9584510426824497 6.117141889820162 8.103719067702103 -0.06381555179406428 0.865479346835419 -0.6640411274581531
P 4.743779568694143 1.0940514292360084 3.7781133191130927 0.050417533220603494 -0.7870874398890767 0.00702708205011048
P 0.1299711126432913 5.448115116286319 3.595047108682085 0.2685419550042988 0.5786082545046294 -0.0050601881317267694
Ni 1.4263793339278907 1.3033909935818495 2.5211721217651233 0.03239101473619583 -0.5724892860910851 -0.16747523216825996
Ni 1.7213610747009318 6.617944882933232 4.779830598882274 0.25237717231897827 -0.8193681542996533 -0.7415375191734197
Ni 5.959562798274117 5.513877034823532 9.051918513725727 -0.008939468581474928 -0.15256000561932434 0.6453150118035597
Ni 8.661859776167042 2.308246033241929 10.14930695419582 0.01307843045051296 0.28077449251474873 -0.4750838141567173
Ni 2.2847936116317555 5.209139158462945 6.760354844068502 -0.04332977313588667 -0.2968965948875919 1.2594553977765275
Ni 0.6391309942987389 9.05678132353376 9.111084494780616 -0.746270920093347 -0.8818390191403652 -0.12147613973032628
Ni 1.2680373430948717 0.9604991775868008 11.412434815996866 0.4841585227644758 0.4351250143755925 -0.4875631775706507
Ni 4.1176636362311925 6.8852288919462294 1.5907455365422905 0.08054263474075805 -0.23931776803185884 0.43078653490123875
Ni 5.844616313941362 7.664068286375774 7.884908781854902 -1.3783712329788456 0.6988343238779383 0.8316677976026128
Ni 5.270691667993205 2.983322149357194 4.697978685618478 -0.3440907360748913 -0.49150133628279224 0.5173794896011348
Ni 1.0997776615311827 7.38126600833714 6.948977653894404 -1.3852139669322918 0.0681810278516116 0.547440056431941
Ni 4.95074068232177 4.534448979634032 6.93863991979161 -0.2605741063074738 -0.006223869422524765 -0.10339125720415743
Ni 8.175121055791491 7.012354839013391 9.164102405111061 0.4060628069023136 0.33264161369768513 -0.5047204060762275
Ni 4.6918844666084105 0.32552104799492265 10.367420757870443 -0.7933624742645111 -0.6983879803691392 -0.09122428282432031
Ni 8.14730664531697 7.163292219119891 4.717748547493996 0.04624051902477843 -0.2035195273863269 -0.2702833631754378
Ni 7.299034440487003 6.002222331344593 6.942685978598295 0.13558866787230842 -0.14477830479137646 -0.20441015752139638
Ni 2.40045811882284 5.17041977582755 2.6366400701987405 -0.4193410120684585 0.4525943748049496 0.467079455795002
Ni 2.3397223602939294 5.086132867545446 11.304021442146334 -0.09933302797438377 0.698015941741701 0.6914843112707704
Ni 0.9862313217721689 3.344909485525986 3.7423692436968983 0.030298393873225235 0.6750505911947794 -0.08049121267753234
Ni 3.593659529508364 2.6745543697042344 2.6789253338543126 0.23757661697103602 0.09257668308715668 -0.3097554531281311
Ni 1.0577463984617446 3.2604161456721124 7.968245207378293 0.09953254557969955 0.11729398332817864 0.3342930332581791
Ni 3.6369652831513366 2.5135646695811276 6.992931423167017 -0.4576455640756118 0.6452054828088888 -0.31906053257914085
Ni 4.066612211003996 6.885946914804558 5.860141763195583 0.19986701823540418 -0.21873865832892653 0.4671205934455826
Ni 0.8953978400792496 7.365307950310777 11.261762206819375 -0.8354002680618514 -0.2630549637477986 0.3227675491170828
P 0.2763149415136313 5.4069454806468755 7.8391025136077985 0.23525671058860773 1.0309056668944505 0.29166568550595573
P 8.43208348621601 1.4859752311692036 7.9004620544948825 -0.46511436164883124 0.694758611146668 0.6677417162381919
P 1.819730206292015 3.243147695929298 10.138154264148824 -0.6765742269281574 -0.6029756276054002 0.4445938730979762
P 3.9194983026180976 6.212468399549075 3.8153805005175174 0.22572048896339836 -0.21364504585610303 -0.5759895859348597
P 6.965889784793771 3.8030798714257674 10.217208580850855 -0.4292724122495575 1.2136612222605485 0.19617311432358472
P 6.285536200669788 7.608250984426419 10.170167313287426 0.09473049620536587 -0.17170315420667845 -0.11204918998947154
P 2.4757607660901013 8.524995644083791 5.70765614630081 -0.22443930825812963 0.602631356892104 0.04506089689438046
P 6.832732445716645 3.9839049530102155 1.5668901246028797 0.6995915137589371 -0.6458510868126878 0.18443834238515977
Ni 5.1556285049459705 2.7648277935676573 0.57061456057126 0.30829043854683036 -0.044508366825020115 -0.23038138477417744
Ni 1.3605276625333855 1.115062573127863 6.8301610263552535 0.33052251047215336 -0.3894953894619356 0.01450950647008469
Ni 6.91235220541961 0.600337116791792 9.297133192659407 -0.11235180883155489 0.009629809780280189 -0.660379619446166
Ni 2.6596284695367185 1.4531077348291903 9.141967555445921 0.2715737998520872 0.7079720245131484 0.29421262029752554
Ni 6.401900780147743 2.047424229953893 2.6368761202134166 -0.0626744962110856 -0.4979656038508972 -0.13376781261348575
Ni 4.087039961323457 6.690402364624364 10.32090544205074 0.541689527101409 0.7326551290821253 0.43330852999214403
Ni 8.100653110097038 7.058146746803328 0.297060416947904 -0.2932165749328434 -0.02160318009207247 0.4187535149961046
Ni 7.578237628948263 3.7771412956686294 8.07195553150677 0.48498153288640344 -0.2891190078247021 0.22585752876189485
Ni 2.967256387902081 8.359231091952795 12.329607596783518 1.197678216568731 -0.11375948781235892 0.2945707749678927
Ni 0.20767375131451773 4.808186219086262 9.999974355177685 -0.5385414683907307 -0.2785083221883913 0.19874010371981254
Ni 8.369121856826279 2.310328299531083 5.811037974971604 1.160860533519749 0.4423372158533156 -0.1985639831532645
Ni 3.423263729941146 2.7836220418844206 11.506897903238638 0.49107016228264455 -0.44323967306292694 -0.08083316939798338
Ni 1.0606184898950608 3.254743765091313 12.49074987676402 -0.1601542730268145 0.3026026441334337 0.017815430914866093
Ni 3.146304362912164 8.371123345543872 7.838077535977534 0.3463743899027454 -0.6376814065177018 1.0306089615896379
Ni 5.628886346156392 7.890398066606828 3.608379895632683 -0.8986324365486201 0.2732239338610004 0.027312314661707804
Ni 2.8400496632633567 8.390752295433442 3.516202813666115 1.2600374955322429 -0.24677962362654274 -0.33910176750073207
Ni 3.4330826925287963 4.389462213965934 9.244535325701085 0.001992090729364311 -0.2980289087198222 -0.33601387260402776
Ni 7.293855700621305 5.978608354591296 11.252711528690137 0.1573206602327613 -0.31875431419263167 0.30771811098312807
Ni 0.4645096302102542 9.158202052272744 0.39480666370938655 -0.5128481773896846 -0.5523963719959518 0.32023346984131945
Ni 4.526443024763663 0.311618330400526 1.5631599958538602 -0.7575058695772179 0.5344107340518087 0.5224034251782874
Ni 5.879808409285216 5.419842966239612 0.4006576524761956 0.13196829751090178 1.3162754920893653 0.021864918393891375
Ni 7.7354756596366006 8.662308540453497 11.566772931866128 0.45297232696965856 0.14405608191337127 -0.5990675508002457
Ni -0.006508877210753045 4.7335926193916 5.6476366155730835 0.49401536095389764 0.046973797646377165 0.8921823100479022
Ni 7.87843401072992 8.783789032797047 2.4751827576891468 0.2186460986151202 0.0033036104519362465 0.05640408982134157
P 8.476915038432931 1.7323019480047213 3.506377568378455 -1.0465647135879461 -0.5272923778394725 0.3954158687114287
P 1.8169119665730733 3.346175000813791 1.5574588943587275 -0.5185200309634811 -0.9797358288888546 -0.46123045321339273
P 4.660022202270057 1.0563821550309194 8.25345914469234 0.6792949682934301 -0.5161337901194918 0.05829153665204155
P 8.2952014035613 1.7273565655679797 12.328491071238817 0.050744577542719056 -0.8338347233469448 -0.10076821775901355
P 6.16120156746438 7.773970660128768 1.4279356484733188 1.4403229920912934 -0.7222460179336593 -0.4306682641558196
P 1.7517962686083555 3.1468608306273693 5.827917794842347 -0.3455164127778243 0.18015719851130266 0.910743103769225
P 6.7542435720155485 3.8387745827704514 5.99222655562808 0.5443480477701786 1.0101218973798798 -0.080932413980009
P 2.4738759560869874 8.445761821667178 10.154075523503698 0.07747428022807948 -0.16712684768990574 -0.06209265556568661
