# total energy = -381162.65943908173 ev
CRYSTAL
PRIMVEC
9.25088029506438 0.00000000000000 0.00000000000000

0.00000000000000 9.25088029506438 0.00000000000000

0.00000000000000 0.00000000000000 13.53959840513424

PRIMCOORD
 96 1
Ni 6.2264436554756415 5.3017349254752855 11.473048885720242 0.39908740402574494 0.5772550829108446 0.0985393284284948
Ni 5.849081751953452 3.0832073470558794 7.470798047674522 -0.04139527511733516 0.37002236833898855 0.9733553792838077
Ni 9.332657941491604 6.138791565951403 13.081770470079338 -1.038424858089631 0.18704621232165203 1.2693281768055493
Ni 2.250211842970384 2.183263223246171 6.31079318078245 0.9478402657318385 0.5732161369547806 -1.246109572597241
Ni 3.6797040998287462 8.108609231245833 7.938808400805056 1.8348819121190656 -1.1895057080602676 -0.8101312090824176
Ni 8.175150812242967 5.542461329021432 2.128465634613261 1.1183321732392353 0.26268241089972827 0.7652253497086627
Ni 1.7162232874445127 8.034518932037429 0.8412778170935222 0.24125920802894577 0.0010713786873078322 2.686303495309838
Ni 5.2107432682129735 0.9137131338411465 -0.055234230176503626 -1.0692721824877907 -0.4027100883799967 0.9197813027120935
Ni 1.552917499964683 0.9854130056159819 10.650531853592963 0.3608967518886365 2.0772446376248355 0.07824715383836202
Ni 1.3773635471518624 4.197781141477922 12.222398856479172 -0.049117326351941215 1.2026548438477158 -1.542066686389699
Ni 7.497884624785549 4.287292657914495 6.57790216945938 1.1545533603547986 1.645455372490695 -0.8129627649939419
Ni 8.063159657015479 0.806922823440101 4.2373934103267645 3.07671959681383 2.5791165185086746 -0.16359800860104085
Ni 1.1122795761421465 8.463917036464508 12.263179511492332 1.21267623263946 -1.5814529014968055 -1.0607073236369151
Ni 5.3956036064676285 7.414682208618688 9.978710734198232 1.2473179910830454 -0.5871517731992661 0.22500649361550926
Ni 1.4322212665058187 6.7939481498243435 6.897125066434553 -0.8698610208428826 1.4343983990767426 -0.5774707984660764
Ni 2.7704813432176856 8.672635394654046 3.2487185443660604 -0.35659992428549553 -0.9552992931130451 -0.38109739520622754
Ni 4.587872256101468 7.445006593786018 4.2108961142819865 -0.4919433089162172 -0.03426174939634745 -0.5311150940196724
Ni 6.41782586424371 8.87918904688594 8.321044593084007 -0.25034471526998175 -0.07733415510578939 -0.7391859882221076
Ni 8.778169435529247 3.669565135172433 9.415910312411333 -0.5385746356215112 -1.297719840574365 -0.6161746427941776
Ni 2.6447156274306645 6.1484032304385465 13.117460365739973 0.07310597595705473 1.263584846563869 0.22072997772734246
Ni 6.073313836172768 1.732440080366517 9.232733634345955 1.709655561317688 0.36516786846016464 0.525321884376663
Ni 7.111817643031981 5.466715122264232 8.712352198448707 -0.6793595029827784 -2.4101019668777526 2.299857691307504
Ni 8.423990237690195 0.35287944917644815 11.2956133038827 0.5886029038234959 -0.20519125866179502 0.4530098650758134
Ni 8.595076015385317 6.427650298974553 4.5099456168903505 1.6280585171704864 -1.6533337467975073 0.6212695408185817
P 4.4821161941024075 0.3027184016801654 9.456826955362859 -0.4044471256757615 -0.8932614020446937 0.5225134683935905
Ni 8.775551436443719 0.811625045825871 9.046983361419825 -0.6565216791526564 0.5552703511096373 -1.607529286868883
P 5.537123571168611 6.44314552324401 7.918038324667872 -1.8746008279752426 2.0280951724833782 -0.8857391255257197
Ni 4.142377620194474 5.247959559100152 3.7329623420028883 0.5558527059756685 -0.03352307145811 -1.234132602741023
P 8.82236089005772 8.097767199697293 0.6076477637187786 2.3701231124919695 -1.178665422911654 2.179958152035678
P 1.2967606283102062 6.392598714045019 11.353941028384998 0.7413835100940586 -0.09549205696173876 -0.8777252540823077
P 1.9772091185429637 2.412777560037344 14.048010101473901 -0.5041408794236737 0.9030873869961801 -1.2509504456293101
Ni 7.2092109093656145 8.904647469088655 13.411472764100743 -2.6453432508473926 0.205423172166943 -0.041970173784198685
Ni 6.585747840923814 6.12418442617739 5.081045928357582 -2.5892505216188826 0.05940225321771705 0.8208174851516701
Ni 3.8375888715343063 1.5601146847298397 4.407369082402582 0.5933481318179652 -1.1081380063150528 0.6880686007210022
Ni 6.56039117840287 6.172474020617129 0.6742420747328299 -0.3243379789279962 -0.6722720000083777 -1.720543411874785
Ni 4.035899989542866 6.921786062767398 1.6155311572455124 0.04607853952561742 -0.01606913764772071 -0.2926280494192251
Ni 6.233798105203533 0.4483577833167825 11.138756304963012 -1.7805527025488819 -1.4887394357214683 0.41139990284451083
Ni 7.905311888830563 7.519735203725522 9.595946316662095 -1.1301093683798216 -0.30585997472846677 0.289748670988901
Ni 4.19275791355057 3.063761996957732 2.7611028009105962 2.2501045311437764 0.8213563883742757 -2.5882228516853165
Ni 8.269833570689466 6.40270992606085 7.194184704720314 1.8256922751999978 1.0839711792608622 -1.110669257377339
Ni 6.408843259607506 8.893444653213841 4.397728740186939 -2.2300884930331657 -0.2685949197294213 -2.7800556867623345
Ni 8.056674790022711 3.171932538678779 2.261870727237128 0.17778227052122283 -0.48156068013031256 -1.5637225740965779
Ni 5.116809831059505 7.312219459956897 12.558450954642998 0.064036923776251 0.13403675000415627 -0.5647050141599758
Ni 2.4161541312960613 0.5645506883133358 8.287195622575386 -3.3018178788121975 0.9299250760143145 0.9976546181508044
Ni 0.9374564428620342 2.63020099645826 8.051226946695975 0.10931713577028916 -1.7181713120981827 0.45116664121948746
Ni 5.5644136676431755 2.592300140439178 11.68559433303233 -0.9542042602766536 0.6102945298643166 0.5203568270619038
Ni 2.4352294461877744 3.601386148386825 3.7250685659616183 -1.500517916413635 -0.3551796468992012 0.4970351216168279
Ni 8.464009545266117 5.233463429888068 10.721885742449782 0.4246670522670622 2.2355042647320986 3.0250962162105837
Ni 2.6854935071797774 4.564458278414307 1.21847690512488 1.592081070634613 -3.046761359888843 -1.276681017626195
Ni 7.4463849749299875 8.224087968293965 6.14322736298854 1.7629825548756026 0.12664354286387866 1.4387867579524252
Ni 3.6757724757603767 0.6200633699826816 11.695233750159957 0.21537925493839036 -0.3253540788973364 -0.6216271812683165
Ni 0.7689535109078282 1.3578441900124276 2.212221253413741 -1.1978052290648982 0.085937066283452 -0.3640324693041408
Ni 7.570393023486444 1.0394381457554598 1.8164186453788744 -0.3981448376068175 -1.976984469850492 -0.21086671178001745
Ni 4.693896593625193 4.929979055330582 13.120208802235767 -1.3443282844615234 0.331367632081268 -0.18706395293346492
Ni 3.3496234448087607 5.799941076538913 5.885757791439235 1.3284465802342604 0.7375219702561233 -0.24862824679950726
Ni 5.285000083264273 8.448375557794249 6.193499421046753 -0.41325649643727536 -0.9717687515229781 1.5539369554647238
P 3.598740396660816 8.46840371334253 -0.07894978655690872 -0.012374976625585139 0.8823918063200417 0.5835887384383562
Ni 8.573872998056604 7.954600578327676 3.006467595769403 0.5785648028612036 1.7460217586515479 -2.470270408837533
P 1.6984986010562868 6.970575204735824 4.278770747110302 0.2760441769186149 0.574292657848411 1.211944753790074
Ni 0.2854858621164976 3.8193738884975543 0.5417343174845672 -0.8645205824665756 -0.2842205420818202 1.2267170270032421
P 4.151702507396631 3.70049082755022 6.475705846146222 -3.5280186498461235 -0.1674451502612729 -0.18993407539240836
P 5.931997390835326 3.776708829195624 10.025205657886763 0.16721375097675717 0.3385240406203912 -1.2360473032652326
P 6.026828163364399 4.860606705004223 2.565510516581316 0.02825256708779005 -0.45975104045438886 0.18483300672041716
Ni 1.2208294039497893 4.937315003298153 5.05121831545489 -1.4327711478859646 0.3577777466436806 -0.19307750611739652
Ni 0.872279366688628 6.164249988154116 9.274787210469253 -0.5739815543658954 -0.9068733364011736 -0.8061272301293471
Ni 4.1652087924315 1.1838998903475983 7.003249313464016 1.181018496524863 0.25674419103842233 0.0887339123022988
Ni 1.9351731190919728 3.764516169143598 9.665215057130654 0.16107909883392904 1.478114094797138 0.9131491421075564
Ni 9.064585936189927 2.462195761856709 6.020585669431844 0.6321141968425694 -0.5827742129568608 -2.3868653649473153
Ni 6.130928317814663 2.1288958005407412 3.289025554314985 0.5371664424200748 -0.7763392002336372 0.7689285095918628
Ni 5.65893916112694 3.802805562129437 5.097009247163179 -0.5299760953192227 -0.2334425401980044 -1.17288712566698
Ni 1.9390584887595377 4.474650733812585 7.141718337887943 0.1990118693239605 -1.2619938479276653 0.9197666474240741
Ni 3.205624244224666 7.780415755778663 10.2126756694348 -2.1770692605236572 1.0546711447451644 0.8680054556913825
Ni 3.4852968532480735 5.6260060277542445 11.030859589294726 0.41206761833549677 -1.133461572681506 -0.9234045012869774
Ni 8.995269091144532 2.5308557944106824 11.558023770525924 0.0218183814266721 1.4566081024045623 -0.05929041023020112
Ni 6.293799313926932 7.260599548659244 2.6760474334475135 0.7509310445731777 -1.0510168358220286 0.2084370192926023
Ni 0.2844608645946733 8.433527895136052 5.279888046887376 1.057465933881482 0.03701540088208464 -0.6749873420570117
Ni 7.233429713626771 1.9896145488386896 13.181989880302117 1.5967478799826629 0.7257090367815953 -0.26399521617388083
Ni 5.593433678707823 3.2649038842955176 0.6547708221702319 0.39865905823907466 -0.17723282577565605 1.861585389552181
Ni 6.253400720264415 1.509123833283127 6.039933885288303 1.5633464217040818 -1.2817859429529281 -1.7249083737117001
Ni 0.6074470196192878 8.325958660625462 10.075126182498861 2.4391780583081024 -1.2630356589286182 -1.4364228857059391
Ni 3.030061040531684 1.2826992904656846 1.871429929343501 1.7200405040964375 -0.7097892802275454 -0.1177495828083585
Ni 5.106439594399169 9.169999715623035 2.293756660975613 -0.44851994762525976 0.8817659998105846 -0.1571792495588906
Ni 9.487980219392604 0.9294081771220778 -0.19042196740737033 0.006734490510356144 1.6120965945245915 1.4994923033625982
Ni 3.147371451851671 3.0853535512532013 11.692187435322984 1.0894504572078787 -1.1908246839820071 0.46805878898913583
Ni 2.9922804459546932 6.0315553631266035 8.446854713095801 0.27338154248478724 0.6746980929513671 1.0938385589732451
Ni 7.78388483583899 3.9992942567463055 4.241387015292212 0.6519674841230708 1.1266206385002726 0.926188748900334
Ni 1.459206083935075 0.9618510138462472 4.418512692644365 -0.18049555568732786 1.0545675292877643 0.16119017049049658
Ni 3.746171673784594 2.394211043554479 9.355496514432758 -0.25473744502103873 -1.448323236687951 0.8608014817437756
P 7.24000708942115 7.697907155623868 11.701137661878624 -1.0058482097051904 -1.485901452052041 -1.660796887943772
Ni 4.40884922322832 4.392290147740364 8.611536106455551 0.09154721338137782 1.61590876918183 0.49863100534903804
P 7.975637079813494 2.630080735016169 7.748793472124763 -0.6063329741134073 -1.844474183793191 1.4066245713975838
Ni 1.6922265043072173 5.8237158385523475 2.522170143027642 -1.6213147706887496 1.638102788780366 1.2343411192074032
P 7.585157428223191 4.1482704308569485 13.055936462142094 -0.14571367212145228 0.6068117135220388 -0.44807360411646063
P 0.4836896699151914 8.92449985791388 7.269287975306334 0.21338279333365184 -0.01564156319199887 1.7579493633270693
P 0.45379082523526115 2.9226398201036674 3.8146873926080573 -0.9958342771126141 -0.3942920395196306 0.14334131523453378
Ni 3.157547420028627 8.530800900027595 5.604906620283334 -2.6855781871080397 0.493884234692672 0.41146777996796874
