# total energy = -340894.0934113451 ev
CRYSTAL
PRIMVEC
9.01557139699409 0.00000000000000 0.00000000000000

0.00000000000000 9.01557139699409 0.00000000000000

0.00000000000000 0.00000000000000 13.19520004742876

PRIMCOORD
 96 1
Ni 6.468032417556136 1.9439735806652987 11.448300807735373 -0.22909429053163768 0.469856761429823 0.05921944778294962
Ni 4.716595381007857 0.5344683197967979 6.312095487341415 -0.1599976928442922 -0.6036394864416442 -0.4655514491862498
Ni 2.936759294358032 1.4674465355328223 4.935426740847469 -1.0877296178620302 0.522144772200262 -0.28856622064502563
Ni 3.231144749267801 4.247352917615714 4.859448913918655 0.3520318452988389 -0.2655137097009363 -0.5822193688946553
Ni 4.810934320773754 4.712682622993867 2.4708543955206803 0.45648548232923963 0.08774635157804889 -0.31242991463650066
Ni 7.128675463061238 5.831334729850943 2.605999614832487 0.3081713964704628 -0.2302849684056292 -0.6624089911713689
Ni 5.110945492275067 4.311922440418022 11.489773338012236 0.42305214237145855 0.6087778361094741 -0.30412062343985685
Ni 5.60997540377372 7.839282805602137 12.256269109595832 0.13971220312237875 0.26441919108517686 0.21437266805074692
Ni 2.018631527932251 6.378102092234576 0.2032245040838071 -0.8542233143056256 1.0048429083691275 3.2143756887381287
Ni 2.755275840851964 1.446981188316788 0.4059901155802591 -0.2523524897286299 0.2616873939763106 0.9529642172219651
Ni 0.5554421452432221 8.802966254619381 4.527986019819167 -0.3948340280660297 0.8820169394791262 0.3907531731284367
Ni 8.649395010355976 2.0568485353546166 1.4160433532918786 0.16356689825278928 1.6833264365048557 0.1039119055943178
Ni 6.86498802897552 0.6146266672119893 4.938171982357286 -0.41916489150191033 0.48591715732679536 -1.0140001493883635
Ni 0.7201926981180303 7.016801236804069 2.384108370039076 -0.1628729575095582 0.4096669793138042 -0.43901817878241167
Ni 7.498340939668753 3.540748488803414 3.6834667881422996 0.28092593049094844 0.8421527562943366 0.8869709410502918
Ni 7.640101785318501 3.964218895889034 12.434549330561875 0.5999103584165153 -0.8408062695687714 1.1180089855718618
Ni 7.915428322160122 9.089048368213746 7.025718538535954 0.43054742230723914 -1.451207243103965 0.2931682381934112
Ni 6.948913983704183 0.57712820083505 0.3364575206887762 -0.4533459082589935 -0.3392516628150351 0.09023235122469621
Ni 1.815934434778901 6.590481909136833 9.084526157569005 0.0029871076527819523 -0.11009412314562976 0.3373230783337545
Ni 0.33274490836121534 4.780876405523419 1.2836632097471021 -1.1001909835538344 -0.44725599331117166 0.3718023430575467
Ni 6.601895622606216 1.9519523614081138 7.229082783977403 -1.2192829393227003 1.5812616114216056 -1.1611595528174068
Ni 3.4670732388256895 4.294170780211691 0.4124921457177939 -0.5272952060529499 0.3661541436328339 -0.15441942742556633
Ni 5.721452944886614 5.189985007271972 4.655187619116855 0.4866604632507232 0.8545758125490378 -0.40995674264008103
Ni 5.401346064599159 3.2558023372131113 9.096124690253335 0.7717125000949032 -0.13859248769563873 0.29730282918707507
P 0.22525044671970754 5.524805300183465 12.40972946233027 -1.3712688176061094 -0.9405658435576124 0.9380104241256104
P 3.9204302653038887 6.089684945631862 12.321875423116133 1.5993521503747294 -0.3863313899116572 1.941080042644399
P 2.231516216836314 8.336437478236942 1.4807255707374467 1.218411078240708 0.1418649877993234 -0.23998728329505767
P 6.414380751792868 7.803148395187217 5.975222348808296 -1.848552210517307 1.1740058126524555 -0.4234187816822579
P 4.675890075862309 0.9474824671021728 12.728617437356224 1.1792210383048078 -0.7577928046900175 -0.2548284620729482
P 3.8311220144131233 6.2620446408195924 8.219237753917874 0.7706773739621695 0.002388554836834596 -2.307969778891677
P 4.911773487562893 1.0494395647524521 3.978933210070219 -0.3303209359843085 -1.3355723926457643 -1.4422538905654192
P -0.027991546271517172 5.401264924456011 3.677225308019982 0.3176325418833627 -0.8308435019291045 -0.39708991397974197
Ni 1.4724141154077277 1.0971409533515881 2.621187246515364 0.38445988392055724 0.001412306966494342 -0.023140956892837565
Ni 1.5700437387568194 6.623785430113059 4.593117212723483 1.1045749715541429 -0.9484760995436246 0.8811437928455536
Ni 6.033923636146763 5.7695510186300245 8.912895822112453 -0.14666857983555387 -0.3537244025099134 0.8837668322906972
Ni 8.74727706970597 2.467282426107908 10.267897445714636 -0.12255934549217602 0.3414275874204314 -0.07648826216572632
Ni 2.320508922725951 5.331249996491375 6.7807492339171676 -0.2756507981349382 0.5846027815251673 0.8086170864307363
Ni 0.6152018606711889 8.917004218027143 9.005803089130373 0.4341078859649879 0.805798900255651 0.35986573952096085
Ni 1.547829370677388 1.1406501012214483 11.37926316771709 -0.28256578008721656 -0.4387081037411606 -0.24986880407482776
Ni 4.216537694362672 6.926366039480702 1.5263155125004615 -0.8251148269754435 -0.23744394804791363 0.08502303910961485
Ni 5.428401794553045 7.948082721991169 8.071820538733615 0.09476777720120452 0.45978549323675005 -0.9101949445752389
Ni 5.067003596975088 2.751597487695954 5.167029559218463 0.6953782470085379 0.7797117162502959 0.25737591108515023
Ni 0.5906614751548691 7.528543104062462 6.780524746187793 0.6665983466623681 -0.08008472126773304 -0.09919084596956466
Ni 5.051839405778009 4.688214362049233 6.832883579003582 -0.8841455557863548 0.24372309618840607 1.5673601708491651
Ni 8.166133333342275 7.158832549597641 9.186788883091804 -0.8449855977574414 -0.05378207881746222 -0.055887555196239225
Ni 4.446272486326985 0.41378858489385817 10.604586666589958 0.17763288942755215 -0.7981364986143867 -1.235576534276401
Ni 7.962426496185315 7.016647972089235 4.741035693680962 0.6515368243435553 0.42983162718713713 -1.4494930886263357
Ni 7.3459417196952534 6.191416653995621 6.768715249131279 -0.4761577639471864 -1.719272772692478 2.2844773521966912
Ni 2.2872234328926475 5.077128083725575 2.684985937957773 0.7011123212788377 0.8546508887613475 -0.22505045947956723
Ni 2.1076512805362704 5.330123050058774 11.469135793381302 1.2771042212065424 -1.5069137926376501 -2.9666031050706976
Ni 1.0240517155188162 3.3252943620330204 3.6816853112216434 -0.7567533076819096 -0.28241382789038455 1.1180280117352552
Ni 3.8754786260002994 2.5821408065186042 2.765370576216631 -0.6435039267367498 -0.042756160020603784 -0.3940053615171472
Ni 1.033283660694684 3.508319478258887 8.114559756800723 0.9104248011978578 -0.33121310878127475 0.34903265346119894
Ni 3.3434968008123924 2.9808815010872274 7.15166697340059 0.8777093132427077 -0.18703438524711014 0.35573063430666474
Ni 4.331567370631123 7.002745960896668 5.916622035870189 -0.6280991621459053 0.10213218798607572 0.2950829387176208
Ni 0.6478977321309558 7.229857221565887 11.331747499890046 0.10647066746042955 1.4827891316753044 -0.6590475308983037
P 0.25183556384333866 5.714898624434606 7.806636519785404 -0.021418574885092145 -0.8726277849547424 0.7696980407680357
P 8.683645166335586 1.715275579418978 8.154343670542977 -0.41730084170997805 0.3412998035933154 0.6813526221534072
P 1.863689916806802 3.4963287682160122 10.2995132517134 0.22278686025637118 -1.363203781209788 -0.2810028064754709
P 3.781572433664522 6.168219588626961 3.9353762796716163 0.3278027975481451 0.25628987710982315 -1.159271077545442
P 7.0076324006284265 4.164319504461671 10.354642569639095 -0.45328523022438716 -0.20421861033588054 -0.7535186027946958
P 6.1542634840056305 7.953041286294614 10.0222032891504 1.5415982313937129 -0.8494978838054982 2.101523564776858
P 2.346789313534207 8.416973578096341 5.718430023775804 0.4204162474105082 0.6529663577012303 1.1435958329020304
P 6.8140680813648755 3.8478458994729223 1.5327282884805342 -0.035219485323926436 0.28047033101076857 -0.24985209190427937
Ni 5.240418114023733 2.84202366944786 0.3010488637764521 0.9433616611351946 -0.10681879482846764 0.9379764855638814
Ni 1.5431593046606895 1.1581944032841809 6.9796805228713374 -0.4895246721723957 -0.10334909111231233 -0.3197598726390106
Ni 6.6962976713723386 0.9404863836485855 9.287216939822331 0.25680049819765455 -0.6830991725308688 0.5955330552844259
Ni 2.682195618590653 1.5194483517187638 9.151280153336266 -0.24593810156185383 0.6256105913960968 0.6298017466593089
Ni 6.472900826144973 1.7980836032865009 2.4333397011151114 -0.3411619924638705 -0.09073371634114696 0.5742605190588949
Ni 4.065815370680881 6.812869010360588 10.333042161976145 0.5391256230289747 1.7369393367343053 -0.031512983006616695
Ni 8.182478564400721 7.105198914977293 0.39795543829438684 -0.14332048929892738 0.011393586548922313 -0.158317734038708
Ni 7.765319057337666 3.993636705565651 8.162590213758177 -1.1125741877095354 0.000829180769514701 -0.135575812356502
Ni 3.204034925885151 8.200266286892894 12.521743429945081 -0.4712868090081303 0.9571659140081388 -0.19493641370300624
Ni 0.07050086726637372 5.010737415488185 10.059413257240596 -0.04618883985123658 -0.3458342011285593 0.1565156478329627
Ni 8.575800900521397 2.236114158281326 5.87683902368508 0.1763581364801866 0.3217470782723685 -0.6633777828425415
Ni 3.6391895135839785 2.4499725289031566 11.476697153165482 -0.5898082369855069 1.3113029785754384 -0.21259140778060806
Ni 1.294338547913845 3.2997352169416296 12.585251819986452 -0.6692851494659119 0.005460508893938983 0.17535643468854958
Ni 3.0409793004449748 8.39175702472046 7.877587264067672 -0.1922555244367334 -0.06708110991921351 -0.1074875387607181
Ni 5.718369619447016 7.60962013820951 3.574381979695105 -0.8241208384932903 0.42666737052654263 1.0800031957520495
Ni 3.044567497886376 8.448365797922875 3.642825493554122 1.1924791888662947 -0.9050136574846155 -0.6947663244561518
Ni 3.6396042298711757 4.633525905567971 9.516325149570118 -1.293864728494333 -1.2327784027059736 -0.036961407715697635
Ni 7.181723085536633 6.175846762082805 11.4303291675854 0.33293754767154915 0.18632578921585974 -1.1574077990844582
Ni 0.5661228927528414 0.058535400823589136 0.20876637586076588 0.2538686692628402 -0.880499217283019 0.2732313900601681
Ni 4.749339936553512 0.25869010282499105 1.806607826102695 -0.6006559783332881 0.18411798293126355 -0.5264477704509901
Ni 5.9333369053585265 5.6360844987242205 0.2375639142208793 -0.21525301377317121 -0.246468263033711 0.9069638392324509
Ni 7.986903772701409 8.809394357070937 11.300514855678369 -0.7130280988798172 0.6366354817516907 -0.24348269804282582
Ni -0.09882508812479472 4.624167742391652 5.852268886782939 0.46655957873579007 0.5389968107605942 -0.6637613914342052
Ni 7.987291442274223 8.579371066819878 2.6414019608447883 -0.16280508038610025 0.8247366177004184 -0.16672061339042257
P 8.492587175938139 1.5592611152896927 3.715583859914282 0.26356095684993963 -0.6126779424948288 -1.00547565685712
P 1.917017021997482 3.1960831918567183 1.6780466786287167 0.38480184064100825 -1.165183329264819 -1.0255716562760466
P 4.660392308521179 1.4591071319315747 8.272176287978594 -0.16043272349918178 -1.2605967104698226 0.2359334249406582
P 8.631661381292565 1.766628274459741 12.448364792268418 -1.003798269154697 -0.3925699146222013 -0.8516203294651398
P 6.366607238622045 7.674793704299692 1.462186851142587 -0.6520867833097543 -0.2603275375143065 -0.6199281962993388
P 1.6105326701873086 3.194325155421861 5.8944545487623525 0.5944719610097634 -0.38854228152004694 -0.049897141940759226
P 6.800220163601074 3.834088137423729 5.992983024586087 1.0632460308983689 -0.020702779764990152 0.07939566562050843
P 2.2949587932060207 8.37021882450059 10.345538645577971 0.5882329220785869 0.6819079804362449 -0.28295195978204174
