# total energy = -340887.5400743126 ev
CRYSTAL
PRIMVEC
9.08001964712136 0.00000000000000 0.00000000000000

0.00000000000000 9.08001964712136 0.00000000000000

0.00000000000000 0.00000000000000 13.28952657601792

PRIMCOORD
 96 1
Ni 6.514777736311208 2.160999222775927 11.398718607961559 0.9782062796182055 0.3844408577571637 -0.44775530154509335
Ni 4.708907153220943 0.8375500716740868 5.952179732810309 0.08783659729901003 -0.4990770917475212 0.5041485927331575
Ni 2.9650349427566334 1.6945586249734548 4.392653708696494 -0.5799259448747883 0.5378981783797768 1.0911957220337594
Ni 3.9595059101134598 4.699418532923034 4.662018840918195 -0.9597046212695923 -0.9592819319098769 0.4928588787519512
Ni 4.155634329668325 2.262613720148079 2.3290422342509234 -1.0566025574399223 1.5800390518684144 -1.3561211633313934
Ni 5.339069581254608 4.276008147170122 2.5778892465805816 0.4979175242217812 0.6897269622600315 -0.011588990389180041
Ni 5.727394771953817 3.349573765356102 -0.13358524576348005 -0.006519546286072642 -0.12450978435032752 2.6806244426471895
Ni 5.69947371222552 8.10530657874577 12.434199483046141 1.391484887542668 -0.3356179227171897 -0.37335220404316993
Ni 2.3315401475944206 6.565516884851605 0.14523491068426206 -1.6715793232712566 0.8305046305324472 -0.06273697401790485
Ni 0.5719295394627754 0.21952672160814854 0.32036487731956287 -0.247508017152135 1.1982454019261104 -1.015993268558992
Ni 8.100793809092123 -0.3931121769394547 7.004790064537959 0.36645367715112376 0.9976836716165269 -0.18859530197632682
Ni 8.884263285077841 2.5484618116298705 1.1883357380693285 0.7345888557697284 0.1045989043590134 1.2675744273392362
Ni 7.027653553447179 0.7474417749158198 4.838424550282546 0.675339840300424 -1.187085271544233 -0.4735468086869006
Ni 0.9981756152817514 7.5961081694764525 2.320510648000287 0.03738152597225175 -0.6558413652561802 0.24801323892332772
Ni 8.024539805970745 4.152919403860598 3.879598107175931 -2.0549925110948544 -0.2553048874887345 -1.9526345802512177
Ni 7.98256287617435 3.9620029154550145 12.234683308244245 0.8539091254993165 -0.1480376922689386 0.03447592228968256
Ni 8.166260749137983 7.131438175461628 8.850439304722107 1.4377755430790917 0.004643155198966197 0.12227755258569908
Ni 7.160675838006381 0.9564983261263427 13.808880827743094 -0.33746988832426394 -0.22635426589265534 -1.807776057041209
Ni 1.8733351274093681 7.114394979003087 9.165892799535317 0.3551881315396334 -0.1712951201349824 -0.6904975218774689
Ni 0.36220106681488873 4.9279807818598425 1.079774117835999 -0.6923597718971882 0.614743823884922 1.0434012282582998
Ni 6.788322401473701 1.8185644502447873 6.882977971959425 -0.6594331963724966 0.8115229472236218 0.900615785527236
Ni 3.7517550656960847 4.7230901435609765 0.4248023527305859 0.4644088509413744 -1.228242205398517 0.02930234850854308
Ni 5.993212340586624 5.986375085960476 4.627186978406416 0.8018118905834449 0.007908199103483156 0.8680226820825632
Ni 5.691873735967769 3.3455694767901902 8.815553870095728 1.0101933740477633 -0.38113159087827264 0.9819433780631347
P 0.4934291395359409 5.936571179420734 12.274285812961306 -1.0790431458316256 -0.9432143369240531 0.40412830888376206
P 4.3293895813628565 6.288993973318093 12.311297788136748 -1.0357802213779324 0.9439918385200259 1.1221196653061256
P 2.41336020262261 8.673370753939817 0.9965112477213622 1.5849205483304316 -0.5235853613015305 -0.7628661054478668
P 6.464338228411797 7.928046439553636 5.858660980756449 0.0560024835075487 -0.7512969125530288 -1.4457135669792456
P 4.896890795352627 1.2989330986574819 12.649024570596627 0.6544966783028275 -0.380280555731887 -0.2155659170278997
P 3.9038453910453432 6.633262909772848 8.204568443085206 0.16544251800894733 0.21858310658766872 0.6280225432716992
P 4.821880754892315 0.8936500636823171 3.7195791088657786 1.5283933026676646 -1.0088805687736109 -0.24802712288039863
P 0.4441318980800487 5.760618563025634 3.350541695426683 0.7044665824630513 -0.9480981473789157 -1.1576217148674774
Ni 0.632666697390759 0.08592331580582079 4.684105988166677 0.5031224654614884 -0.3191114404217343 0.5182904314511784
Ni 1.8828055876684295 6.969759349600798 4.590866900711071 1.0661704036340154 0.2084406188370281 0.3273855075050684
Ni 6.226350919313047 5.896110612868119 9.32328040821644 -0.9613005050018026 -0.2120062247010994 -1.3019498194953127
Ni 9.044825268549538 2.5624359615231547 9.80341730731783 -0.5108650855213847 0.841005530063771 0.41627548576925727
Ni 2.552320819885001 5.667966044824808 6.710945199949594 0.5114266144518095 -0.34713106556311185 -0.08678038812035377
Ni 0.19349975393166405 0.11601994818806868 9.253616683192886 1.7916215587685338 0.11282334915133473 -0.8776990288300625
Ni 1.4909755094716204 1.6265492794889205 11.312496559516696 -0.42831159099818494 -0.7880642019800491 1.4870008557638068
Ni 4.18996588310985 7.069875643768017 1.4226973954121407 1.6013686665841258 -0.779711973360612 -0.1719486945585813
Ni 5.933384092602967 8.061867765822138 7.9450905440141195 -1.1526291467488923 0.012904366766493905 1.085846027686072
Ni 5.573388562506129 2.711657000734481 4.666444442385373 -0.1488149367545953 1.9928900853371552 0.5232305490652731
Ni 1.2024215722015257 7.881738340492071 7.026877211786441 0.17702559486085642 0.12640957247620166 -0.8342047050918536
Ni 5.117317346885677 5.295440087923074 7.104221725240621 0.553724346778756 -0.7744373552252339 -0.6310011662840488
Ni 0.9842922655827056 7.890400679022411 11.32857727391631 -0.5860677961064681 -0.2506069677924329 0.9722636888815257
Ni 4.8994422808107245 0.63121571028683 10.502579710955168 -0.904118656474172 -0.5368828497413851 -0.7502057363713789
Ni 8.156272727771762 7.040365580640549 4.263692008823631 0.05186223608693003 1.9121872708694485 1.3981805543952888
Ni 7.541210372039938 5.9886269307775875 6.848730862698542 0.12571871705676416 0.731728760613114 -0.809397930460819
Ni 2.445603351596653 5.433874064058883 2.3725927314134694 0.6243481797439053 -0.2574036789992922 0.9154518220988039
Ni 2.2795297963346863 5.797565162061224 11.14153976980859 2.09867966757016 -0.4618444326483078 0.13355132572730546
Ni 1.3620937137696876 3.342700190652258 3.575932293578745 -0.4251049111354291 0.7854326778944731 0.04934152654760535
Ni 1.689610014387464 1.1928966318259213 2.434442191720873 -0.9555036958143673 0.3004012656067407 -0.5550592635400956
Ni 1.4111348986778276 3.7396695598429583 8.166639385947956 0.39460879942910104 1.1268929183250527 0.20830692147264127
Ni 4.09609664230623 3.000138297849185 7.292308879593737 -1.2527407047605135 -0.33986847046342755 -1.2788533426871653
Ni 4.247950887150468 7.463440005674779 6.101075707326262 -0.12486922457227526 -0.4075674164722981 -0.9206559920075628
Ni 8.678528204972558 7.259366569124058 0.43974624869833573 0.11066516515775135 -0.8726339556023294 -0.9438272879177035
P 0.6471829244436462 5.77324887004419 7.602127314352513 -1.867561661740274 0.5215853001523663 1.1172348264099985
P 8.767430675151338 1.7506005048573725 7.772884343633295 0.8319778726438638 -0.569853905350767 -0.3272659512080686
P 1.9512689341241554 3.708234532597637 10.535936070310575 0.9348662220696738 -0.7105251299523054 -2.1589434974572232
P 4.20724516007341 6.542253875087736 3.640120766889729 -1.0106602863818528 0.34768590962531737 -1.2100871317560449
P 7.333886288535483 4.0889779070779415 10.047559961583998 0.1525371228011889 0.2050300504935824 0.9191835212270943
P 6.710533875069696 8.047194454433217 10.142539688763152 -0.967096028637657 -0.189873397357802 1.0006877485501735
P 2.6421040519478947 9.11879110677611 5.720755461751107 -0.8140778524349914 -1.2888338509386448 0.3751532618076507
P 7.276055644825069 3.979872393681125 1.5294784238364558 -0.9778488962787869 0.33213356371301506 -0.3031837134478843
Ni 2.8489287343840384 1.6451269992300899 0.07182567764837251 -0.13133092103721897 -1.3924472514559374 0.5338263223032484
Ni 1.83461792458613 1.8983233408637656 6.8251282602082215 -0.21228287540125373 -1.5132873002641616 -0.3241261200275063
Ni 7.078174781521405 1.0301282036342314 9.44426803503129 -0.7897642153902915 0.17586628444543262 -2.331496401258707
Ni 2.6666927445476434 1.8843128708927863 9.297472269008072 1.0105335309960015 0.7030717589980537 -0.7997444665314549
Ni 6.659150045150205 1.7829526140645013 2.6724440288507014 0.4275032361642766 1.2016659975718853 -0.4013895697963603
Ni 4.1630527055375985 7.24718118305727 10.319024394296491 0.905942339946472 -0.2599534420043394 -1.0657669975480097
Ni 7.505507735665414 6.209044402291215 11.319341078158383 1.6552116805465105 1.943499964939801 -0.28095215574319354
Ni 7.965428879521571 3.8627038230359405 7.9302456202580895 0.487289869304606 0.261000395211615 0.045767178932785695
Ni 3.4158488271306835 8.525066796690298 12.142041686066728 -1.418429534452312 0.7877883226108432 0.9596948510775795
Ni 0.3008855116496068 5.288548353180383 10.027890823508084 -0.8089125061839681 -1.2089828429482727 -1.1230619746147368
Ni 8.74113493889991 2.829751733360896 5.64290519121502 0.5974942927758549 -1.6255452638303296 0.6468067658577377
Ni 3.856411369575222 2.981442537855506 11.707062447565905 -0.22543869605692143 0.8952498932296324 -1.4307258353211618
Ni 1.4580876791184851 3.8627583031524835 12.590005352343635 0.3540887278278676 -0.6478436917626843 0.38396468945169354
Ni 3.3603154283345007 8.955541437554956 7.889659749437426 -0.011005092861252013 -0.16929223077234068 1.045478679612619
Ni 5.990542814876017 8.161275818474296 3.164023568430007 -0.3091455874582741 -0.42653315894152344 0.5763899066970719
Ni 3.1205847555063735 8.472466244168015 2.96798958107715 1.4742638678131126 0.21152234308614543 2.247677152649206
Ni 3.8236688195328683 4.54300611832803 9.418539799993852 -0.9600764027867141 0.753019037450458 0.07150315024630911
Ni 5.5865545906706915 4.95647388281184 11.374930773074992 -0.9703582443286966 -2.2488686018541464 -0.9901202574469722
Ni 8.339171559026099 9.070639763771505 2.3729913442661763 -0.7412657535692718 -0.23151961214367867 0.6092856289838281
Ni 5.075077096525991 0.31608274015928167 1.2835751538040052 -0.9868374729306423 -0.45094475501666853 -0.16111843671229673
Ni 6.565861925589711 5.614775291039974 13.37829995065118 -0.5470824159822063 0.9757521616507583 1.259725877829095
Ni 8.195689092090637 0.20941975198747628 11.321174334080055 -0.6669703852898061 -1.0245334448195194 1.0284001268637775
Ni 0.3774854635110324 5.086109320125952 5.379972344753164 1.200139790735346 0.38743490738848113 1.8573379271297366
Ni 7.193127827427173 6.102081773478423 2.351741374808572 0.5590596429487404 -0.710588379090073 0.13338548957340254
P 8.793136210140219 1.6873218494926572 3.6377817538861486 -0.45340092986664493 1.18356825952991 -0.18434372578882446
P 2.166538034624467 3.114700902919728 1.3786020970841644 -0.4756389153292389 2.1819952370703644 1.242138503764635
P 5.114393580631202 1.212336953412355 8.296505455755433 -0.4278742463504502 0.6778829184372519 -0.23327541849252084
P 8.66996574665588 1.8593518974966603 12.473269898624968 0.05794880860064213 1.1987976748851548 -0.7225982590667555
P 6.789421083823985 7.77754511760355 1.0410732590477239 -1.7327816058121903 0.8512557470368695 0.6538585304981964
P 2.245561443670115 3.7433288076707645 5.733195088361763 0.10978636209722384 -0.9387737846541963 -0.42311204907511646
P 6.840968354093104 4.050188064099313 5.9888720913020315 -0.4840613350649792 0.14169658054225923 -0.6354376047888477
P 2.3691223479896792 9.038587295205362 10.182568046391193 1.0659423467836093 -0.33054513617997267 -0.6826245468872953
