# total energy = -381169.66315689875 ev
CRYSTAL
PRIMVEC
9.23369481237926 0.00000000000000 0.00000000000000

0.00000000000000 9.23369481237926 0.00000000000000

0.00000000000000 0.00000000000000 13.51444571408705

PRIMCOORD
 96 1
Ni 5.147729338364338 0.06784549445656063 6.152086610532816 0.40680765548813813 -0.04505806868090304 1.7369424220580987
Ni 4.126565818651031 1.3043239983736707 7.984767230871704 0.3411792188550511 0.013244780825048156 0.15423842176301178
Ni 8.234165628589858 6.625332849636345 9.441286523889843 -0.48572818124444095 0.11175042780213013 -0.5771789782572705
Ni 2.3573899329363734 4.174728769694285 3.9396232078503353 0.41831976989279573 0.2682732747239444 0.08936846056250417
Ni 6.390215283989412 0.08028605119363452 9.85590895933568 -1.0985879007327723 0.7504911288222816 -1.0598465182985168
Ni 2.365589453742817 8.840800896542268 8.037811112881498 0.7229124478730646 1.1253291733823587 -0.34176568748614045
Ni 4.698426992732869 5.981495026133078 5.872945559132638 -0.3201771626820873 -0.6459726999922164 -0.06772157171668981
Ni 1.43232147294453 7.1166485057062365 9.472126140490566 1.4868782141430132 0.3646821870729977 1.8217356045450948
Ni 8.238191519436265 1.648186785346603 10.60412354324881 -1.5082363681038156 1.8601448004509125 -1.340582444265846
Ni 1.9488635826666783 1.8561203540856865 13.173908766155884 -1.4503883467470955 1.9027230401327553 0.011724744636095937
Ni 6.1487911049294155 0.952372494929517 12.209098484597671 -0.3355988965537962 -1.1480906354485905 -0.4766056501178824
Ni 5.55334707483445 8.491250153694596 1.6627095402163945 0.052814572697870335 0.521254913396141 0.4103161828620288
Ni 7.573919529779102 0.9259733620628249 2.6601563153448473 -0.7237655399019793 1.396709369166401 1.291613470566311
Ni 8.79251790746919 9.095660101247958 9.44086731415492 0.8651026802222908 -1.3682277167869403 0.250531120249175
Ni 2.1018105000517386 0.8238302323771488 10.1802424822257 -0.36143488378029365 0.47914435737933614 0.26223838138377414
Ni 2.1364553221978837 5.804318894112761 5.619116834744514 0.2018243990720911 0.2556789829987016 0.6462300674186612
Ni 5.64982071603459 2.56449246916129 10.114170780502153 0.6541791470624089 -0.6581877540011697 -0.3920857758969312
Ni 1.5232179626051514 3.5942433248543186 11.51603768191086 0.8313204415655232 -0.09357067156930983 1.8782451095960493
Ni 4.047192979853519 3.8433130030446483 11.259789729537049 1.3083986604444497 0.6546748557519048 0.8205076672207352
Ni 7.453696826063002 9.122613255790762 0.6737466836881224 1.2773261074093614 -1.142133389423891 -2.4261628769953574
Ni 0.7635240495629996 6.305117554538753 3.8438864154794237 -0.0232492003359277 1.663370562208219 -0.7263471845862265
Ni 2.233067468817051 6.069898418251199 1.6261801210020117 -0.8300343757642478 0.15689694243178137 -0.27019594566795396
Ni 8.643033625559822 5.614640339601538 6.830728075729379 -0.46501845950091525 1.4749590941079243 -1.3188306544110513
Ni 8.937496146412851 3.2919136962005124 6.873163366011107 -0.5854250203161465 -0.40197809530997863 0.7833326008323348
P 7.518969813203488 6.248865887024277 11.839302866335442 0.01482678060018737 -0.5921530830685996 0.6346655025095135
Ni 5.58388290288277 2.7838942865958725 3.2725635657928733 1.7641405797394456 2.656533720246573 -1.299789064398568
P 4.154183799205168 1.4033369055893194 11.2627362014845 -0.24665749622638164 1.4995131292982045 -2.1042677031808985
Ni 2.9703041132180408 4.866018549756465 12.96871852808301 -0.16610637684519133 0.27116756555260396 2.330308037377561
P 1.773266412423277 3.0071465546794265 5.775465445220896 -0.5898876840731906 2.3118359467153025 -0.9723169107169641
P 7.416605074847367 3.7693234082000164 8.727993772960914 0.6210785078536981 -0.22293624135004186 -0.6619042836208084
P 4.331443034476901 1.2518304445621478 2.002407930923892 -1.9014338890076867 -0.3115184585658248 -0.22442079631536832
Ni 2.4252021860923674 1.071191677066136 5.652308273360328 0.3383823728362043 -0.9542083740417114 -0.23026234269780987
Ni 4.768621539096141 1.157923770461323 4.117648839774023 -2.518189344005999 -3.806101197351006 1.2577173320394985
Ni 4.117627602276439 2.623689685253757 13.263306627182624 0.8622428421759926 0.859712619554971 0.2835613112312665
Ni 7.097063839455711 8.17765541762653 7.705990910408299 -0.21878673795804254 0.031014446103643362 -0.18392129353942516
Ni 0.2033001007878745 7.747309847012662 1.6727779608102529 0.016397467521416922 0.14393292607194566 1.4371121984634798
Ni 6.887939124112988 1.6938658725419602 8.006416551235205 0.6486849567170571 -0.5281824937539097 0.32477043847972453
Ni 0.7073887266005064 3.6440775746205087 9.51803514668151 -1.9128632138905506 -0.7640233589807617 -2.046630512283404
Ni 5.258718347478586 5.079455400478252 3.6711184492620297 -1.3587511447550726 0.5374052979037583 1.0902163888396257
Ni 3.1118197166860098 2.9265825692782763 9.507047050105307 -0.3526908190390765 -0.4495247347406903 -1.300055173575761
Ni 3.3024493417412244 6.648398618751768 7.597618730344213 0.5939466846339125 0.44881228205469803 1.3300820589551545
Ni 1.26680749720635 5.396411201381389 7.98165824589926 0.23368139568168786 -0.3970510903220065 -0.3182732607911551
Ni 1.6507629861405195 2.078375383152241 7.659189929318817 0.5030502174626562 -0.09915047964993247 1.6611437297602294
Ni 3.094183359996474 8.517760090896509 1.6142603446404822 0.32881452664211114 0.2748550417065202 -2.6365073977233173
Ni 6.028023613231806 1.7640234841268243 0.9335357579417409 0.36344780044526437 -0.03120727884073981 0.6610653326592809
Ni 5.499228390773001 4.3352103818744565 1.5651620203340597 0.7516067304839636 0.19403652759655615 -2.3657013292751903
Ni 0.14284617886009562 5.290352985184529 1.8693993302926084 -1.0850127331514992 -1.04584120515836 -0.672418552888571
Ni 6.410298569748438 3.111681211266982 12.660819134845367 -0.3075337628864639 1.9046300273474814 -1.2957118090054007
Ni 6.488286354355672 5.759701681796617 7.636107539553109 -0.7401092713673254 -0.11551246594772366 1.2709271458615532
Ni 5.5943816136450755 5.324766964965628 12.65699453854128 0.31091810597766456 0.07639955910666196 0.5176795373400568
Ni 4.351554021319733 6.548296135573102 1.8619255778818704 1.8230898045801442 -1.395945494417183 -0.26133566706384664
Ni 9.113841245919003 4.337703479416956 4.648969477706434 1.7271174655478772 -0.6205745716340861 1.3644708208476695
Ni 7.568840997748086 8.345874865883053 11.491414188516101 2.344458874956646 0.11738834281419783 0.5324291848454056
Ni 8.441203528952563 1.8209122765688284 12.833938904827091 0.6706023256154385 -0.8882822036625475 1.9115025860975983
Ni 8.386253812376948 3.7975508125978745 11.54472861777773 -0.05417288649797767 0.8480488100637976 0.07307923648417737
Ni 3.1886532894680126 3.654336209323165 1.5930422378148887 -0.5273276019527822 -0.35105096944280834 1.1345105827713107
P 0.14557565898440278 0.7197406398694025 1.3932176996751509 0.20672286481497304 0.8124300324189234 0.30696246376402614
Ni 4.459218900377316 2.9179121300471382 5.462795925351937 -1.3833085223794628 1.6922466218126213 0.9729262621661889
P 4.944606524512818 8.277268514991299 8.281246390625776 -0.3281218714504607 0.17665098513025707 0.008622194451372248
Ni 7.9025467206589814 3.378082534224986 0.9301211376779764 0.26485525018133094 1.0836022259572178 1.4829359416658139
P 2.3099102752936553 5.150111631571615 9.951902448416524 0.3267535303480244 -0.8524801063622738 0.15281634460450455
P 0.366084596401747 0.4530659995511837 11.655087888920132 1.056684061410135 -0.9797191167183062 -0.7888956967424091
P 7.365708950201965 7.764678426558743 3.415141044140055 -0.2614529093680013 -0.1361262855433333 -0.5190918443065512
Ni 7.491056354422092 9.181145645871895 5.44345687537782 0.1889161756508553 -0.6658059326680597 -0.4979663751818456
Ni 0.26070413338866194 6.6726185996924245 13.284578289436908 -0.5496825726092146 -0.7678586735664518 -1.2102128587006318
Ni 5.534851984546942 7.70390224868936 12.37579899009219 -0.5009303429061761 0.32774211951353877 1.3328472804051175
Ni 1.4569662038368703 8.945280150962212 13.436521504218748 -1.328903979486653 -0.48222196786339533 2.384246953487861
Ni 9.07665715775735 1.9334156115977814 4.589126826361298 0.18700764577423276 -0.7097617694237195 1.1537810009651484
Ni 1.929731367451643 8.023092603686147 11.565581070297089 -0.17507258489954367 -0.4090010635950311 -1.0984066379599018
Ni 6.532478816720131 4.852168007853688 10.400271267523747 0.12310467647268476 -1.0963669818220538 0.03502176749082356
Ni 5.376521823209003 3.5107707256535856 7.810592972966448 0.35542698702331693 -0.17101024190471192 -0.7722717150324828
Ni 7.244821420474531 6.201718642387226 1.2120581518035949 -0.5637804454631774 0.9061989360419682 -0.3564757400028054
Ni 3.5216664852837694 6.325680992417076 11.452667759227815 1.058007922427881 0.20738235277584283 -2.3281621946791513
Ni 4.389966190863433 5.198376153255491 9.222459965628957 -0.36445464444322395 -0.09231828721944746 0.015845965893321098
Ni 3.1619217435956535 4.173860802401712 7.287353664549577 -0.16574565107166295 -0.4084904425071997 -0.606306491750846
Ni 6.862324855287454 6.793210651192598 5.393155400664777 0.8396094210471927 0.6651891250196673 0.3259112369523871
Ni 3.8008010730977264 0.38795460206623117 12.987935693288383 0.3233141656491722 -2.285454628508296 1.145696167074485
Ni 0.47275592992017085 7.934329097478553 5.627779887019971 0.5662551322559151 -0.615299953498708 1.7530131023677165
Ni 6.516569160921142 1.9867771327018786 5.664647259456781 1.0924761314080798 0.8124508583545298 -0.27031421641337317
Ni 2.6677713432829937 8.805251172325141 3.5677186137410417 -1.1557134421011708 -0.9155929756623586 3.2722823312469256
Ni -0.013432255537312691 8.953922889109545 3.708729134114289 1.188680641055811 -0.24988963001043416 -0.6901766482029403
Ni 3.144710136857803 8.15874481108194 5.79149421568025 0.20740857802808796 -1.403699170220673 -0.19800785353947833
Ni 2.329605745879404 1.7882988672350908 3.2912267093221343 1.9801456411872933 -0.2186352999818428 0.15777060328598635
Ni 5.16395293977979 8.11554035403988 4.132177134860576 1.2457406192935965 -0.19559590166387605 -0.4621871606997073
Ni 5.7892772056063455 6.961614773341158 10.107750592645488 0.23579098582552294 0.38736934425786834 -1.0662267107932475
Ni 0.7057238914637927 3.048227261963062 2.58763764805029 -1.7029223563589122 0.05405230175971336 -1.5922109113442577
Ni 6.737614575994853 4.4380183375714655 5.641835416942909 -0.14428799541851925 -0.9404815113739222 -0.04415766835382073
Ni 4.101311663914968 8.558545319952886 10.459112986374041 -0.6187873978266762 0.7133142626616682 -0.6730998952263118
P 3.4630325245620157 7.389938164837221 13.265279867719041 -0.10625006680919122 -0.33564826173449286 0.8943572062120337
Ni 9.035151700522029 0.6197111028780902 7.243661668432538 -0.05673859034262487 0.4995118652920946 -1.297479699539101
P 0.5098790756974527 7.87589827803804 7.8669074296042165 -2.2228539229579396 -0.6355522759898409 -2.404467137189478
Ni 7.52970860002544 5.362957525838883 3.523040459040525 -0.32117037983329205 1.246609652162111 -1.3387572181316492
P 3.6851305808203385 6.670180904317535 3.9912755720836297 -2.0029580110961183 -1.219232802811055 0.255197929597225
P 7.685961180077963 3.1540454021002744 3.4279527954001234 0.46261602070700975 -0.09918621798387435 -0.3742533757012006
P 1.2832619409868486 4.016989564810864 0.44898470653716555 -0.6273460860299647 -0.3880779402891188 0.2507257527584843
Ni 0.4134783806846678 5.8109394531422875 11.131510627280834 0.35458160830388613 -0.4093733593327853 0.2867391947386158
