# total energy = -340858.570827294 ev
CRYSTAL
PRIMVEC
9.37740287037188 0.00000000000000 0.00000000000000

0.00000000000000 9.37740287037188 0.00000000000000

0.00000000000000 0.00000000000000 13.72477698319330

PRIMCOORD
 96 1
Ni 8.348607873951162 6.868459872692919 10.190207863327258 0.13922729306616022 0.042028537825959875 0.22225978410830755
Ni 4.152492098232238 0.1518670371661358 9.933018527431178 0.8515545092242109 0.3466829222820997 -0.4625571424446163
Ni 5.161753821546823 9.313345689117254 12.125181464878372 0.8038852281727058 0.8500663547144586 -0.1728706921522184
Ni 7.227276810644449 8.554695053685657 10.993505250883073 -2.359464090116227 0.45881618734494534 0.9804107434686921
Ni 2.0756974710565808 6.097187253190583 6.073241117586542 0.14120035763213099 -0.37934904505655315 0.40998219656137785
Ni 8.919747964450739 0.8774745186080873 1.808418049826091 -2.8712185202211 1.4228574883166787 -1.4180932341588157
Ni 1.6787613910192012 5.551272376027029 0.7992679176039592 1.0056085828905585 1.077634695519873 0.9865649359955461
Ni 3.450827939173509 6.8742269753701155 2.7993600791729225 -2.384735977309138 -0.19201564051178546 -0.21682575757692982
Ni 7.973943125390753 6.019617377831629 1.664211412947761 -0.543177167390529 1.3466479337336357 -0.20398181173472613
Ni 3.824995685389377 7.643971078227926 6.617250506515941 0.551176897766554 0.8741439644889526 -1.1791277072600532
Ni 0.1985514989029614 7.2187621289682005 3.263587463440032 1.3012700198194684 0.27206308078367986 0.2307472527540284
Ni 2.920104454427932 0.46884294188941084 5.836557348233914 1.1358902367276567 -3.2496879908861773 1.8619152620877741
Ni 1.0716495836582896 2.1084152291715945 11.582983790155858 -0.10465521151824556 -0.05381241783476539 -0.44475482415587275
Ni 8.942216221384982 4.7739044447520484 3.444054641183691 -1.5640732725677773 0.9126930284067443 -0.26892582070627874
Ni 3.2284428334992326 8.159587567180072 12.451487885315156 -0.2326763514559412 0.36495395267714564 0.7469715457047974
Ni 1.808263322681093 0.6147337602975362 9.821600916928588 -0.5757512446718085 -0.6849369970705558 0.487941901066308
Ni 1.3267805796557615 0.33878774346661755 7.3568368822032495 0.8969763890024358 -0.7406510028034082 0.39872564981095204
Ni 6.3254238581666 0.6610675071723665 0.3063316148876912 0.20987375173912887 0.2520455000111723 1.0026119621560796
Ni 3.0877911699947638 2.050997392273277 8.480086562107934 0.32120020462996296 -1.0014683354699399 -0.05410629492610037
Ni 4.981951501656517 9.055195169441642 3.357478708245585 0.36171487691455767 -0.42012725541517965 -0.32083536509137645
Ni 0.9732337420368882 9.305890653949172 12.463400937739726 0.7360590125573517 -2.376440312959249 -0.7742949161100988
Ni 8.998189938263318 8.317756218978849 5.929900014979928 -0.431170914823851 -0.8286601211245406 -0.8112712362241319
Ni 0.720292369576205 5.831131583015987 9.440148804274273 2.1935371762716933 0.022540861414993438 0.680188426641977
Ni 8.603935795405903 1.1149450520495245 12.959880960946581 -1.1243133305233346 0.6404638543588453 1.065547682448352
P 3.561415649534746 3.2090784968676753 12.585483468363899 -1.341236018689445 2.0836163454791343 1.0087669260138818
P 0.7495573680070835 8.125472576058712 10.630566944432962 -1.943867889802181 0.5842333140008906 -0.06020983672067695
P 0.09072824686568677 1.9258653302822357 7.713351667785264 1.0307213187977862 -1.4248673196578558 -2.1167840904803543
P 4.9674540370403495 7.354237466167285 11.110138572782501 0.038122775013650474 -0.029443759182413806 -0.05920402116398191
P 1.0744815592818877 9.295097263410227 2.669318009113947 1.6282384943917765 -1.845037769606145 -0.03851255425290141
P 2.5474183378429527 4.051131752154513 8.915024566697076 3.310942209710969 3.292044344365201 -0.6432180200652148
P 7.098365655354368 8.352733931151105 8.805007002421648 -0.718680412069588 0.09926309396839679 -0.2281686933935748
P 4.862117672206313 1.7078594716815365 2.143700520153301 -0.1641749641504334 -0.044972965166264485 0.29679349365082436
Ni 9.015528755905812 4.9134683295401675 13.607717890611216 -2.0882543584717776 0.6580967369492602 -0.16242815666265573
Ni 7.257209480149501 0.8460433401472381 7.413177255528217 0.21580117296715734 -0.41643078040019893 0.5325690528573795
Ni 8.041066574111667 2.9164941543779803 6.2076202364068225 0.5642699835050863 0.1766990647593731 -0.052226818515200384
Ni 5.632011813507759 6.613582066569081 2.69938946417936 2.2253566347751352 0.5856422785332752 2.4795988853273103
Ni 3.6409266472582207 5.804490381868162 12.696736036578491 0.27518877089685506 -0.9787485252749208 -0.8315011901177616
Ni 8.101344518841763 5.8505803162720875 7.985376992535963 0.7134289338626616 -0.22408243913934311 0.2549490468112125
Ni 2.7435185836730382 7.704746025302563 10.379527309245345 0.9407198526369733 -1.8096727598432896 -2.2575938975422862
Ni 8.762057560191044 0.721255428836283 10.42623240126817 1.3719270200153986 0.42452487026224306 -0.2136023655436257
Ni 5.691267621340598 0.49548789399832455 5.523454310836949 -2.6823709930246515 -1.6666746868807878 0.4627417476515966
Ni 0.42754110931796724 7.9944139955441145 0.8612994366440325 0.7127884720651854 -0.03797519369219267 0.15381007597634155
Ni 4.350889807730474 5.037662651258494 1.181539615256627 -1.0559590103186522 -0.11418012028954529 -0.2612978718473758
Ni 6.975784246905111 5.700251173153204 11.717184738324322 -0.5266148921564737 -0.6046108492159782 -0.8123313020575299
Ni 1.5796234893878094 1.024781324828012 0.7911911606350681 0.09548922874826135 0.20395121560710683 -0.5075614750694485
Ni 9.122487411411644 8.354496882863808 8.221361207645147 0.15628681965160826 -1.0813509680291957 1.6284418686518343
Ni 7.815952644243791 8.927474944297908 3.2890602402080518 -0.4805967735551464 -0.6340980600418176 1.5645653817128473
Ni 0.8411305188584861 4.5186234103109415 7.633912876062789 -0.46870105055882505 -0.6256568712529998 -1.7324087958538037
Ni 3.6806305704049587 6.057520839654755 8.254341533036522 -0.20413607792440325 -1.2017441591079885 0.8795142276619304
Ni 9.006582713704114 2.3484861163892696 4.148505764332928 -2.396256319243912 -0.36254611456660146 -1.63256437546064
Ni 8.155142678287403 3.027175638766489 8.639499595248605 -2.6663748747067113 1.8887041001458438 1.1439254483273076
Ni 4.807822510416137 5.351983813269714 4.823051412445022 -0.4950602572786441 0.23783989793475166 1.3589653176484078
Ni 0.9775192150831941 2.968098001585467 9.333246413184805 -1.9446158237117992 -2.4455564510306207 2.4219634942020285
Ni 4.778696297545619 5.301327083737669 10.307732976226038 0.099483437509319 -0.34618258560691345 -0.05228621099822608
Ni 3.3187753539698335 2.811795452929391 0.9922586166897228 0.18664306334596242 -0.27391607483201863 0.5619511055639226
Ni 7.821691614712805 7.496033172804465 13.353356779377643 -0.08226861629292928 -0.250147254547195 -1.0811532501960928
P 2.3707105608526065 7.804409061486674 8.173488628982794 -1.213054441914485 0.8219616260584425 0.5502728978950459
P 6.728586533614804 1.717827650780493 12.006036874528613 -2.588073984812278 -2.1922662799790698 0.4262351680851305
P 1.7629610901062487 5.102010388772173 3.0401342715951327 -1.974182995845955 0.9547027971796269 -1.098284767670057
P 8.188123003678777 2.7392518654321862 1.0203701945851622 -2.400093176491499 0.034082543506005814 -1.2911578710861311
P 9.116270193403546 5.002084785311701 11.539627368646897 0.8350385138470586 0.7643480893100321 -2.163410274979326
P 6.29193715302796 5.514747392404794 -0.014164566819354622 0.6393197134520732 -0.5493167046293636 1.2503925162433112
P 1.7706318055370542 8.079795247374781 5.1602965731630235 0.27729990370258695 -0.6700893905347621 -0.06231017089313139
P 3.0484998525680203 7.248619779251435 0.5601797821920894 -1.902146341693679 -0.4571426562972643 1.5105655304576242
Ni 0.5697325423502334 4.0107151464005115 5.22436392633516 0.6121380108309588 2.364611181534805 0.7447794231494851
Ni 7.556592439616376 6.679477075532739 4.563776542182424 -0.3326770949213109 -0.6197872998461004 0.6038595728722503
Ni 6.300986346659656 4.392000341286284 2.2616232349277126 0.882520361478106 -0.9299207051389403 -0.7462033000802052
Ni 2.9795759425234944 1.0889884013007831 12.665718401577907 0.7055708712708235 0.8950519182862133 -0.3124893071195263
Ni 3.7297587832924783 1.648969382555057 4.4263366391120025 1.6192573739390888 3.0299589436195236 -3.14612806931464
Ni 1.788608286564994 2.4174850456556123 6.099991096606001 0.28319338636888647 -0.6688025534025385 0.9761565961780285
Ni 4.584199587581876 2.280002944272919 11.145644232728296 1.3947237061949398 -0.49627690329456464 -1.4372651791015763
Ni 5.854115597100222 3.3644433052510365 0.13720734348278785 0.10495911591190955 -1.1845668759977535 -0.7999820364635577
Ni 1.5267349380067041 2.0311079210889997 2.9397369847774852 1.9967074022007159 0.4856600470106668 0.3975277728481089
Ni 5.134643750262643 7.1883980989377 0.6320932082260295 1.136046816910179 2.197275046047571 -1.6561745586804122
Ni 6.368541155906018 4.347973435482332 7.463341671417087 -0.4069380104184153 1.4638107908005886 1.4947128796960838
Ni 0.48675284335798774 3.651907585851709 1.6560999595887793 1.617470714352311 0.16417779236391078 1.1681670944834912
Ni 3.727667622484325 -0.032987827313555575 1.0225823238884961 0.7180265805356731 0.0244506768431966 0.17746036840542986
Ni 6.276614476971802 6.974574561953308 7.208376655447886 -0.835817043884296 0.6833809654373456 -0.6135719150640078
Ni 0.8282909790444773 0.5908485778112217 4.719100089993786 -0.03654103234882739 -0.7129175414438818 0.2760989414159503
Ni 6.39012793698391 2.52767890510231 3.8295971769075883 -0.30860719845630075 -1.779405219208 -0.37967120428266227
Ni 3.6479034348872177 3.917878859401762 6.967025752757956 1.366718993451898 0.3060931737851954 1.2737823559221613
Ni 1.4075481493446733 3.543307884868627 13.243901859265847 1.30658294739195 -0.3735460652215309 -0.2395118863205359
Ni 8.137860125061273 3.13456565479777 11.71990230963465 1.1364854471094943 1.0994834159638485 -1.018226271654569
Ni 6.647931492758618 1.4907163341317347 9.827859395508685 -1.368353186621211 0.04420574798293677 -0.47952899441226454
Ni 3.5143973522608345 4.047549584312742 3.320737106620353 1.7418681414944905 -1.4213971017210683 -2.5065882694319606
Ni 2.0085458901274853 4.380822477235525 10.938701833865084 1.1822335998788864 0.12418659668295387 1.6906088290988819
Ni 1.2477759616795532 6.431163451317902 12.055130391026042 -0.20052033554868695 0.9478742042935675 0.6846302644634145
Ni 5.754349409486111 2.7521176619738315 6.118121367038666 -0.8902858643561378 0.681626187529768 -2.5017209140373304
P 6.684381457159036 4.580551777921016 4.3106645009921065 1.5438212071869606 0.02716036246487581 0.699415393192389
P 7.615426264326493 0.8375961757706247 5.1404774324992 2.502897193733619 0.6662484195221171 -0.03238998629493131
P 2.753055402246546 4.158821845073062 5.163192315125166 -0.4978247073976587 -0.21057463446089544 0.4216238945653642
P 6.765936728677029 4.240433381007417 9.71165180769307 -1.3826765452224188 1.0241130694526492 0.532159990344419
P 5.320128776205598 7.442938318563362 5.083094291990974 1.0806801672144162 1.3449085824450255 -1.0575232694819787
P 7.030876487927095 8.244284268611656 1.4194715169122398 -0.1299607801625697 -0.1286852558842558 0.7813798479813382
P 4.9569325911804905 1.782456710375986 7.642793276445397 0.43310155618766055 -1.8100725663848698 1.3956109938958998
P 9.265624086638805 5.859713906528328 6.122856017675602 -1.4130880676347406 1.2821872921564048 -0.26502751409313713
