# total energy = -340859.92803615355 ev
CRYSTAL
PRIMVEC
9.37297071886671 0.00000000000000 0.00000000000000

0.00000000000000 9.37297071886671 0.00000000000000

0.00000000000000 0.00000000000000 13.71829008146248

PRIMCOORD
 96 1
Ni 2.4663754352998706 2.4332326103105295 2.8023036485070247 -1.233289023793805 -0.7783803990333821 0.6746176174224188
Ni 0.6207137481700087 0.3145212850416685 7.623240600433732 1.0240457065498236 0.6736652808114785 -1.3204273094742096
Ni 9.00257917823463 0.8607405353467767 11.561061860957508 0.4027669097598612 -1.2410501557964626 0.2786990980429587
Ni 9.338187773135184 4.00470490604384 13.007134116744583 -0.2812899986985865 0.38802343290209945 -1.0503043831360361
Ni 6.028376181305087 7.327844862448271 1.4389253655002023 1.0509332749692868 -0.9025435986775683 -0.10149763972587035
Ni 3.8558246367761084 1.9531771613628197 4.955800880558392 0.762236699393984 -1.1327889720945135 1.4960495962296365
Ni 8.663896248889362 1.117773640866492 2.550710615279112 2.665984581246828 -1.647424580401924 -0.9534851227224418
Ni 5.478417115623635 8.843576100429429 3.6057425264521217 -0.2227950877864873 -1.7623783456327005 -0.296658767845173
Ni 0.7432119163355065 9.169671129898937 0.5149163394971603 -0.4941973950577166 -0.5667739808738627 -0.2109908960627076
Ni 5.745884212313638 7.104655680138825 6.290233554930575 -0.15935517416428685 0.1521512002166799 -0.9786335969636114
Ni 1.7516676606711192 5.416742967312022 5.400410565574486 0.3965998617172008 -0.2542345372426912 -0.44132214432524
Ni 7.326204592546366 1.8900502025666615 7.546019505343322 0.12064130253385673 0.5072061486125587 -0.9283191649797754
Ni 3.9393846720645644 7.710749468348887 2.30275242015382 -1.5971947377120945 -1.3838546246909198 2.0565706542152515
Ni 4.181825936536936 7.740874196718724 8.594481901234932 1.0054941687998813 0.01742770855814418 -1.0508887948845964
Ni 1.6287224017952167 2.2955436682592207 11.440423290212228 -0.7109311071414725 2.1044273686872144 -0.1351017009335609
Ni 5.709104674627502 0.27861343364625923 0.6945212072702829 0.8336038382830611 1.0890946165303566 0.6127116239462416
Ni 0.15292658079145882 3.515538929412409 1.6270165210972358 -0.987930448884505 -0.14639270046634786 -2.0145755407303887
Ni 2.1360157040854113 7.122389341021131 9.434178242388816 -0.7740051527838219 0.08661455196645083 0.2098027892918774
Ni 7.486679226777847 6.0559045967444805 7.187698327435367 1.6721254255827138 -2.993917990835566 0.2313792299110725
Ni 0.654972893989732 5.794614287856509 7.269664957676258 -0.7614311727735532 0.39308259259256173 0.8285570198877731
Ni 8.040987350942062 0.38362913654871417 8.978236635593278 1.0786772778517744 -0.22385875316431122 2.18121053638554
Ni 1.1240066664937294 2.578944815424868 9.089012029094135 0.15227744138189903 0.803019794848617 -0.9017918081132082
Ni 2.4342823830477482 0.7342382340264579 12.746733302791984 -0.6195810973725652 -1.5790610042258613 -0.3016963302690804
Ni 8.692286977648616 7.960267325826618 6.6868020777626 0.3030489876422329 -0.10496168701507085 -0.3461908131370296
P 5.220294870889056 8.982605377314865 5.6571353003526434 -1.1053133923820644 1.6996380291806856 -0.11218340157449067
P 1.8039782110855749 6.811328556823939 1.9547874377579466 1.1521676337314415 0.8100548473185274 -0.543293124143103
P 6.547610648481148 3.8414839913480283 7.519132201111302 -2.1687599693270134 1.2967605619848892 0.09853187222932708
P 5.383150239721016 4.586644548326998 1.4049586563715613 0.11116395917104083 0.9330543656719158 1.1937721966461055
P 7.669639618121723 4.874835283606206 1.347493909276778 2.0339781136267163 0.22362683965916325 0.7740005247981315
P 0.8709683211579672 1.975250507757022 13.801148472481879 -0.15747158398832878 0.05646759606942533 -0.6893906619665353
P 3.499258079014647 4.210957129994762 12.911531688484885 -0.4048461608863931 -1.0411705391555681 0.4695500288226816
P 3.006727205841594 4.302512309433644 9.382172313527573 0.021914797795220323 0.043106344271170924 -0.3703933785251621
Ni 1.9358746571404428 9.27086172339015 2.5594077949475538 -0.5212389725565411 0.02337389883925007 -1.028563649024835
Ni 7.004786675540004 3.7409307598758406 3.2078571012131394 1.3645451257290306 0.3224965548438833 -1.6384354895294364
Ni 3.0564601892673426 9.122712545850124 4.442091779709034 0.7313567219856758 1.3157985524529467 1.5392932374096202
Ni 3.038707782443301 5.168921617561404 3.010931920572991 -1.0675415729499291 -0.24935921142826087 -0.4367126705776866
Ni 1.6426037716507638 7.2727692856277475 4.032176146360939 -1.63228875320175 0.1251654156564554 -0.41058332048048646
Ni 6.300923428205559 8.680167726316256 10.249428938221799 -0.09108287215044959 -0.5697073524705737 0.9037659011204434
Ni 8.280035599960208 6.290547549454654 9.46844582388232 -0.3067837720943168 0.8949912402516069 0.913474129547143
Ni 1.6096109141953108 0.5180234793399111 9.787066846381665 0.4141311857327448 -1.9361409534715686 1.066771270442808
Ni 9.020041022961763 4.514894456332255 4.827424922361554 1.7645355011850192 -0.3911468090224296 -0.8405514732454878
Ni 8.29317650511718 1.8055341242496672 5.317484143116709 0.5615171033502975 1.6928194635969556 -0.7565867001970583
Ni 2.90449621258403 3.471457847420081 6.606522582277953 -0.7742267818763248 0.7656763212031522 -0.25400622328196903
Ni 4.277589579895562 6.1043909750447805 -0.06100210630037641 -0.2558399340565981 -0.2899124502602749 0.45565784422162164
Ni 4.193373436646344 2.123549652830936 12.372045980451368 0.8584118984656763 0.6830174114503399 0.14804951934348048
Ni 3.1865007870903415 1.1207073807481842 7.101533543542685 -2.1649269687341683 -0.19238793624953965 -0.9625212647827812
Ni 4.1337519689548285 5.769691558318425 7.1821973308329214 -2.5168518561414976 -1.052931279235922 -1.6700631437370466
Ni 7.268064054251998 2.5479952656186446 12.239074454637937 -0.5863858415675192 0.14997450428033526 -0.7499005464261342
Ni 5.2256468372547 5.436079406212761 9.00408260276186 0.9511546748170521 -0.5990066156553232 0.40807520934665203
Ni 0.09181574802901331 5.789337305257808 2.571452062512968 -0.1898523143118795 -1.7060200214476298 0.1507959717403661
Ni 8.125775245414228 1.1313082107999222 0.13744243291747915 0.6272558403090036 -0.7371018519995692 -0.06619022267382794
Ni 1.923942865225445 4.736874525399726 0.8622852009458274 0.8519219198659587 -0.20689975671246946 -0.48540370802548655
Ni 3.6107495674898216 7.018752402133363 5.119679777809139 1.6946734860865589 -0.36283896321667186 0.21808971189101795
Ni 6.705357748190031 4.836715411085943 13.228204070340766 -0.6540973859818799 -0.26813237827070596 -0.883352370461098
Ni 3.599820683457703 1.7835545075641455 9.99351402812664 -1.3223126994223808 0.4935152813890275 1.17457865443679
Ni 6.211936442784516 9.187526639402526 7.676439708486477 1.3588269922983307 -0.031879108096783806 -1.874025929308379
P 0.297820525549019 2.6705468597180904 3.3874713419571303 1.0523152429184779 0.38997901396657353 4.781092826686656
P 0.16957203975598695 8.290767651604098 9.488420562099172 -0.05881886991042129 -0.469960633997539 -0.7779073160517054
P 4.3172559926090495 0.8638420514070067 2.36056115527946 -1.450804608348908 0.6711355724110893 -0.19792506401768492
P 5.992440210997073 2.6137747751704548 4.814187475604641 2.0208300062805327 -1.4815292911262743 1.496358642829623
P 0.30911495544499085 2.4954785098450927 7.025781192987297 -0.21466500248018514 0.0009507939490435238 -0.24121549927520392
P 8.689418848563 2.546233147095456 10.415557348480874 -0.7229715832457743 1.2143245668761602 -0.8588410155832951
P 5.870469741091445 0.7622371726034266 12.138285961596962 0.4325639385166356 -0.22336690112955726 -0.43795657028711676
P 3.0645303171847136 7.688666748983816 12.154281873680336 -0.4296290242580279 0.7034527964865562 1.902743094737413
Ni 3.82732143236644 8.876850147010924 10.58888794955494 -0.16835969165574233 1.0868626418760443 0.3823076134642448
Ni 7.568308430067489 9.14681045395182 4.8009219099351235 -0.28629490811234565 -1.4214701210508485 0.16834555058835524
Ni 4.4940677150635 2.9517641046714873 8.306012788720944 1.226684888213726 1.5897909890488555 -1.0387336475793014
Ni 8.292154851292567 8.030339656035984 12.577957028262693 -2.079307176580819 -0.332985113080033 0.5954718630291873
Ni 8.074692554183486 7.452786564119063 3.079564562457028 -1.0673518255366263 1.2139509855868256 -0.09669996122691088
Ni 4.57205083268548 4.145889966228922 10.964507882496925 -1.290783775576164 -0.6297323268739542 0.46857866604834786
Ni 6.73818189216986 4.170559625553568 10.374333148009121 2.2930666365275996 0.025444922435665852 -0.1156962998237556
Ni 1.422395194077351 6.74706746855275 13.586937658966916 -0.31937729248861124 1.1593479535299647 -0.2750455604507715
Ni 0.8328981253833042 7.875310717878827 11.542967340696785 1.7811913645741453 0.1732743553485403 -0.888110968192006
Ni 6.925753785180805 4.4853321062145 5.38457961777839 -2.320614978459513 0.44511966369445916 1.4377793997338335
Ni 2.3840526321659947 5.602243433761132 11.679889573731087 -1.2732395960448135 -0.9228781964698624 -0.7371386187747756
Ni 8.466342141903969 3.9444835682167705 8.352587080964167 0.578759692480829 -0.3951119643177647 0.33533972935513856
Ni 1.6042683208005357 1.8759438814102816 5.185732978110296 -2.114346427573139 -0.433252479943228 0.2003727542272291
Ni 0.8613713362861949 4.940530436420204 9.445618890630328 1.696623153613762 0.1728786625720184 1.3730210244105256
Ni 4.6810397379388915 3.138370581683026 3.3609533327773096 -0.4812886574158486 2.0909828131465344 -2.5820221221912436
Ni 3.5319228824897193 8.808090032723081 0.5387321211757287 -1.0289948230249828 0.11611153298430325 -1.480371009152115
Ni 5.961518780103454 1.8840233822985204 9.926856271204496 1.0865029445437804 -0.9715445513273139 0.38290102407386956
Ni 6.646204929041917 1.1725492826192383 2.8209605470198316 -2.4865398354215174 0.994400887100197 1.7582815498555073
Ni 6.548707286072705 2.4977467687951553 1.0155482713914485 -0.6270609506893782 2.6128457924403197 -0.5638028140606807
Ni 2.208984282292997 7.693671915427343 6.889832811626181 -0.5430126167882068 0.2215092790955282 0.15601531115777648
Ni 3.837997246185122 3.1979826764036736 1.1919138404325809 0.16432203125125894 -0.6092444913332475 -2.024547564341436
Ni 4.437164408923712 6.554893446845603 10.980352889749323 1.0949184223009851 0.4862855964098077 -0.35504234999038853
Ni 5.444561944848325 8.032973460849899 12.918321468581683 0.6931167046678709 -0.7236729801881729 -2.5137706461130125
Ni 5.147054476526298 6.036043271475132 3.447392744716423 1.8796656440926596 -0.9417362097166297 0.15139426744599732
P 0.5586459350819377 8.92320886092418 5.036698054823241 0.17056338417528044 0.5863688722866547 0.6474230592854978
P 3.7795942647064495 4.793534134296945 5.02795963408298 0.48918400100352527 -0.30305001608349746 0.49906706444519217
P 0.006802902256013582 5.7883812622292705 11.437103383930772 0.38808616781923483 -0.46512953115748285 0.6605025181772755
P 4.536002386727051 0.5638245014865223 8.432331379812249 -0.4304340366578264 0.7787532089917684 2.9182686796313675
P 7.576031758062743 6.597315512994291 5.043063239339719 0.6033780052501415 -0.04387253301323412 -0.497581223928285
P 7.903626462871134 8.456397419812992 0.9497031510435627 0.027422872097643092 0.15154879074599062 0.7815572540994669
P 6.558220851503752 6.130700904271331 11.458435328329314 0.019932734368185025 0.8414642148677444 -0.3892107683419813
P 6.4306453450190455 7.273491004384586 8.459301166187908 -0.5094016136019808 -0.7502404462640563 1.6948339229238232
