# total energy = -381169.32336331427 ev
CRYSTAL
PRIMVEC
9.20942186526922 0.00000000000000 0.00000000000000
0.00000000000000 9.20942186526922 0.00000000000000
0.00000000000000 0.00000000000000 13.47891980244587
PRIMCOORD
 96 1
Ni 6.077536872626337 8.872467448669525 5.18271169458281 -1.4621395737457528 -0.19122425495874162 -0.6396506144289307
Ni 1.2085432097809172 3.885777375571797 11.189215376135824 -0.3365175517133237 -0.24392647044846374 -0.38349520601444276
Ni 6.619327155501397 1.8985591360840608 4.919899662634986 0.7909086134073798 0.7356615200086168 -0.05298889349220551
Ni 2.816499041834338 8.588402834097346 0.5957234196012416 -2.132446993828592 1.2653270260659564 0.7381143524244838
Ni 1.9376623409300153 5.641912803944437 1.5783410944596534 -0.09891290971782965 0.7250204953550029 0.8878086064602387
Ni 8.114117612814571 2.1340072131193115 3.284583559437701 -1.0188083694102843 -0.743487443810939 1.4641985131573105
Ni 6.9748108359191665 1.142244582440826 0.7008406806545178 0.8418491090109889 -1.3562636024465287 0.40872081335045096
Ni 7.57448233463427 7.33175881439876 11.195294515447838 0.2364263054166767 -1.074659414941633 -0.33564929017575745
Ni 2.7758578635523787 2.9119823267714215 12.650410783765164 0.2639080557767132 0.8440692565907593 0.5004994260163446
Ni 3.986353470749062 4.845583312699773 6.191501625176436 0.07532535220587673 0.13471474990778734 -0.9117386349132749
Ni 6.966743382446474 6.693002529681245 8.918691378429962 0.8096876937870958 0.6985664149285324 -0.4814951169996998
Ni 6.017629583996348 4.857573979847543 7.441401585311033 -0.1478389459945712 0.9035288454089729 -0.06385129012800617
Ni 4.987113706499262 3.690961267396732 12.25076055841093 0.009909031583595837 0.6036423146551217 -0.6547499319642144
Ni 4.771134347091035 2.121206116855563 0.42408190037444865 -0.3290855209153107 -0.702562423461803 0.7587479695144352
Ni 5.815022305001764 2.4289205265394727 2.4286046433726765 -0.36405098124690205 0.02771983451277162 1.4009347201016582
Ni 3.6470507443855427 0.20369859547462235 6.787256356811703 0.40126281441050893 0.4006953719428132 -0.6593822885299032
Ni 8.074415795553405 5.14103998200451 12.062729952197829 0.31532934767148274 -0.6243021569973184 2.7346476909411805
Ni 6.942854142368657 3.0456294555336667 10.898245537118639 0.7049224390535472 2.890448572095306 0.14431679177392562
Ni 8.650824294871223 5.284596448593946 10.104916475487446 0.9956072487034724 0.16316837726278996 -1.7858707723276857
Ni 7.070653288305377 3.3212029832316174 13.367731724681535 0.12470621663184975 0.8982488279569563 0.6854262780021486
Ni 3.442408183179241 3.631588125229547 1.6461537507391406 -1.312189752055766 -0.8564480898710862 -1.1943046721108077
Ni 3.86477989393054 7.121470877645927 10.562877075736322 0.6779160856680325 1.7693012980047786 -2.6005371502762955
Ni 8.429374538930142 0.12743261095017494 4.928634799186184 1.0115064364322321 -0.323361731057656 -0.874918380761132
Ni 0.7326748888954531 4.229666393978012 0.13096074043121245 -0.08471450673026056 -0.9670281515141991 0.23389916811944877
P 1.362994422327197 4.883148544109723 5.307661445423125 -0.2985115047831956 -0.45783608281986315 0.31381753901264664
Ni 1.5826575504444154 8.007122550661887 2.7112574535871334 0.9189022425412496 -0.6628985292132776 0.013396218801247898
P 2.198335024200092 8.412309480385735 11.203785602322066 0.2116951212185838 0.16297914407011932 -1.2841482725375173
Ni 9.090841257738594 9.037942339077464 1.3008925284888255 0.05038565154140355 1.1109932163756608 0.3329509174079879
P 4.742023364868223 0.9419212400458179 8.513743893672196 0.49018827389832353 0.19525934426006375 0.9591580047375029
P -0.3101475389161992 2.6271349113485827 1.6114996175514715 1.9543551624867501 1.1377087779936341 -4.173772291848999
P 6.014977270525873 3.9850549422791426 5.502890135693596 -0.12612803668004086 0.04453356363600072 -1.6714250570815796
Ni -0.06884687434453667 8.448447251420951 12.432052630713105 0.6761829050270097 -0.28058603065302645 0.28561742242934685
Ni 7.225795207484593 7.814829824052482 0.6870569390876453 0.8194771690736918 0.05288142138006376 -0.9911124461569126
Ni 5.840909989604208 5.543869299754604 10.579738606059559 -0.12973169487089914 -0.7332529105671242 0.6750135673092568
Ni 0.6831521442561134 8.40679303674402 7.232033669793272 -0.370003342175595 -0.11619226562356764 -0.24626488877365332
Ni 6.068769503098935 8.757368095357057 9.968079203023215 0.7952465786611014 1.1172052587236434 0.9016259719593053
Ni 2.88487899849501 5.943816068489912 4.08187543525759 -1.7015254760113858 0.41860310546116947 -0.6103919746741294
Ni 7.156282491945906 4.692145136548466 3.6015534380029544 -0.3916743993911254 -1.43931177721796 -0.21622900453319532
Ni 4.289426331859642 0.872401156969713 12.088367140528062 0.06494580874376557 -0.9119782617279067 0.6007354254209718
Ni 8.975576134834222 2.1225138547472553 12.649616010666199 0.2870878363272862 0.37126832493094764 0.6640244152876047
Ni 0.2552538594991486 1.6106173549456677 7.605480327378265 -0.9114686690813399 -1.8984678644008275 -0.01936709167270213
Ni 4.3465431656925695 1.7352852974797441 4.9782634521759075 -1.3812804362058406 -0.5310407891383112 -2.3000626082294584
Ni 6.53058516730177 7.103825625529853 6.626506820715225 -0.02547911810771096 -0.13252031335962985 -0.06362271905696784
Ni 3.9163434464346616 5.912227751810302 8.539758668295102 0.8662715037194113 -1.4691759117672438 -0.3252967432968398
Ni 4.965904408157238 7.936808615428993 8.343384325956134 -0.7146149837509628 -0.24549844292127398 -1.5891752098417276
Ni 5.431670914300467 2.314161921832586 6.870987498624924 -0.5375608496450162 -0.06386877362950291 1.6352954012385579
Ni 4.3640594859038275 8.391100182043711 3.472897815841394 -0.9271760525142678 1.023886812374456 -1.6021667370053891
Ni 1.7227144367603073 1.5284693127351368 1.0248612925287823 -0.08924890426550436 1.4466188524023345 -0.5586032721376121
Ni 0.8016203040529553 7.096338365628827 5.093360042661844 -1.744740320835963 -1.3756738886523405 -0.4034708778054213
Ni 6.495046008681766 6.5255199853269055 2.3822241534421074 -2.6426577335954295 0.8470602208982831 1.0627379809136988
Ni 2.4779422786343894 8.494678548718806 8.800359518075352 0.7372964845088785 -1.6993153557339442 0.8601247673917252
Ni 5.741963962080672 4.659028055854623 1.3222326006200187 -1.834562581106434 -1.7506926817646558 1.4650621467091864
Ni 6.174208172972071 5.872921939685353 13.106294659404343 -0.789727191504769 1.5576311164868593 -2.0636537863142785
Ni 3.4852872509519126 1.6693826752758696 10.217520075499575 -0.13481528004139362 1.0385732107420371 0.12079454028226938
Ni 6.032843548764486 8.505849577328824 12.270642779075539 0.05599451308774873 0.5041390796514608 0.6605922496776042
Ni -0.13263409236727225 3.1420705203350883 5.273762484820797 1.7505286453829658 -0.43832038138443863 -0.9853829998723029
P 7.525635561553031 7.1191040562504 4.604574586798298 0.16651569646846806 0.320874445859428 -0.4811637018022101
Ni 2.4101056778582937 8.624752421833328 4.887523940393829 0.3670249762735614 0.9007232576393777 0.30513492363698413
P 3.8793215709092874 7.277018011383133 6.51518425127165 0.28420897211759444 -1.0662567927002347 -0.7279060444329141
Ni 1.8645487414782882 5.73056269792634 9.561015393142135 -1.76381353541733 -0.2261082113201203 -1.0707289695389755
P 6.526809304375052 1.4797054244498495 12.012669377326977 -1.9328185739665549 -1.905045517618345 2.697122440302213
P 3.4888328783343177 1.0499017103281583 2.2609673807325583 0.6113345410930568 0.025703832524007344 0.18621600311087283
P 4.098211107597617 6.538910484584093 1.744765476252336 0.49307433719686694 0.3034151127324 0.6631564108603546
Ni 9.101542605838217 5.721408532684494 7.911115249625948 -1.1085108162734394 0.6135384907229111 -0.6578054309610865
Ni 1.9986655507509299 6.0914983560334175 7.17861626068635 0.51848557818112 0.5817992506381012 -1.4851391199647195
Ni 6.795144226559834 8.842730225766182 2.871657031656259 0.6173213548041111 0.8526618833557768 0.13735964372980214
Ni 1.093655673169216 3.705585829171432 7.660380453390557 0.515752495520673 1.545541532312177 0.5956646957662838
Ni 8.14629533248762 0.7858049640430735 10.905106556339138 -0.548755432809255 -1.371587891508425 -0.9156467117184295
Ni 1.6277008323336204 6.493848783851343 11.868148684277964 -0.929742013469231 -0.8196039244595432 1.111887446055156
Ni 7.934920683965634 5.214770612714994 5.769260688214306 0.683195588899417 0.6907320064857781 0.43108066910288984
Ni 8.014048035834792 5.429967171272558 1.0296640059831312 1.0282186069805905 -1.0420285162804894 -0.0959088327841832
Ni 5.005081288377372 8.646412981842204 0.9777283928394016 0.9045981672137517 0.27134111501599073 1.0827254797792192
Ni 7.787790961728477 3.0188576664410642 7.083644098657639 -1.5216269304781085 1.3703679030583948 1.055792145723485
Ni 3.5177044155910457 5.508680099161954 13.312441119186092 0.10870007101158052 -3.4826119395765502 1.1563356490662022
Ni 2.687907885625185 2.782138689201211 6.339769631944672 -0.06068626213646323 -0.7208133992521908 -1.06635937971637
Ni 3.9418443353226613 7.398361352657344 12.647108285117552 1.4369931563871121 2.109572146112948 0.19234654148864294
Ni 4.990622496194577 3.352855765863635 9.12969028254363 0.8952316383971871 -0.14711980844035955 0.6475516144435622
Ni 6.933119783555145 1.6894039582092433 9.005724097948617 -1.2814069623469544 -0.8289884509982367 -1.10100216660122
Ni 0.4616563412061714 7.621413547986835 9.874279400386142 -1.2014862774609114 0.44114088155236925 -0.16677640632902246
Ni 0.9899483745893067 1.010724830108024 3.129576097816363 0.6522515910223928 0.485774461101344 1.8719757316475694
Ni 7.360455372641812 0.5048126125741949 6.9533970884137934 -1.221348049381845 0.6409104549779607 -1.4056922893913018
Ni 2.38147358556765 3.375289917301399 3.9105719018098473 0.4081708543842518 -0.43143856666294084 0.4965818361294932
Ni 8.900049666878106 2.775019806171083 9.43115978332362 0.37950408257717866 1.7732296865249075 1.2321546530790457
Ni 1.014362551708154 0.8930532852945017 10.05740414762104 0.5303561043664609 -0.12448407331871464 -0.7861376743812977
Ni 8.7166256134356 6.943121215600059 2.653271250338884 0.7628514501598475 0.1324974305414944 0.8896181488651518
Ni 0.47516932577293286 4.3943124364264285 3.0592695301208885 -1.0203389471221975 0.17230967744242584 -0.5146921725769588
Ni 3.373319101042088 5.010275402257052 10.983081809544556 1.2949836725901245 -2.451945899496732 0.640399319669497
Ni 1.7100883195102357 0.955265692194143 12.205539534681515 0.7917120831452816 -0.18169086154700967 0.4757566718540258
P 8.182433103522836 8.907665858683947 8.560650241585975 0.6597121610654961 -1.4794662379496586 2.9167386161400866
Ni 2.3801290099888677 1.479733052715167 8.29151686253352 0.40655028806169335 1.7585962528824486 -0.6425320497417837
P 2.9697069824413327 3.6980156844744525 9.071393721781646 -2.2824142990200755 0.593759508323771 -0.030819042263385634
Ni 4.481728267890818 4.328363767113691 3.428147393564554 1.9386878882631386 0.07918123561685719 1.6419350180422625
P 1.1120008413399982 1.0172543101447131 5.8340001604483165 1.2435929768229745 -0.4874801309385411 -1.7983671050224836
P 7.075782936232649 4.206044227131597 9.094092183624282 0.9039628476225979 0.019305385196831268 -0.3273263721323588
P 0.9739331901269621 7.314583242793083 0.561022318362533 -0.3924346745959177 -0.5885522530912186 0.11035380456491962
Ni 5.045731676081104 6.491702988578355 4.432205523251479 1.7621793422480168 -0.12731382945802588 1.9706333308214834
