# total energy = -340869.10035500344 ev
CRYSTAL
PRIMVEC
9.29585153122351 0.00000000000000 0.00000000000000
0.00000000000000 9.29585153122351 0.00000000000000
0.00000000000000 0.00000000000000 13.60541835501953
PRIMCOORD
 96 1
Ni 8.000697459435024 5.0002290794570765 11.905869686773968 -0.21140587211293912 -1.9896602655459474 0.2093582455552911
Ni 5.016171464312354 0.28378653503053447 2.1533430351205007 0.348253094982697 -0.2518511246121792 -0.7971736204804852
Ni 2.321555181423817 1.2589557234518576 12.601134287637388 0.8982794240845755 0.2833167993206282 1.0728357314693329
Ni 6.995090865339279 3.436629719575392 2.9114234210690824 -0.14699022484103072 0.9944512807221583 -0.6684791086248487
Ni 3.1666224248194803 4.393879295585334 11.809625091089352 0.8953478522600773 -0.012711019808765205 -0.2331422353487662
Ni 1.2860252422265328 0.6304027989230717 9.350023730180796 -1.343467736233441 -1.6159337088824945 -1.217613007819445
Ni 5.586918137982514 5.027475219405075 7.0179465747524965 0.588535283810354 -1.7475510508118808 0.24684004455083292
Ni 3.4479148829656583 7.9427657145848265 13.124099356412732 -0.5119467486213376 -0.0698239627716733 0.8259100691832292
Ni 2.7224759490175554 6.84935980564471 4.157067485563064 -0.7662877295349061 0.5726420096188655 0.6008788929773716
Ni 8.197267529493157 7.398437850103411 0.7269485801874601 -0.08668474308275392 -0.17967897332330346 2.790690283658045
Ni 7.018897540333077 8.489863742732055 4.033298803978746 -0.27491726240302333 -0.6800899533908996 -0.9377862239299463
Ni 7.870072157985252 2.871283935468448 13.07476534436291 0.6492516278538044 0.9491852097955072 1.2083498373499642
Ni 8.50857629125315 5.818803146854173 3.40481002082343 -1.1633071952880287 2.125778580669481 -0.8347230394891688
Ni 2.761109506719324 4.916371205533194 2.715355326977239 -0.623701547298842 -0.8525068458351511 -1.579512232830667
Ni 3.562058640188954 9.23566059086853 8.464134685704396 1.113816544757069 -2.4663150237342104 -0.545982498049808
Ni 8.945825245444219 7.828027022882966 8.880569299411821 1.7698330021385325 -2.5987466340347756 0.6810461466565818
Ni 3.349202238780124 6.345069172400426 7.175701818009923 -0.865883010031741 0.035701567166667544 0.8713746292739315
Ni 5.025086185639591 1.6061836543551689 12.292577097840756 -1.9008263373306746 1.0027849973988343 0.5559570927640167
Ni 7.6380012320890405 1.50718283878158 6.756015515543095 -1.9531585710754877 2.2671139212175793 0.9329571779724191
Ni 6.154067317227606 7.588556599409612 10.202580640910512 -0.557511324625014 -0.3010247581233525 -1.8515382897288242
Ni 4.024332025884635 4.346870175927528 9.123194734791811 -0.13367293890683432 0.3660194178271825 -0.04507220974829012
Ni 5.379527697095495 0.9228409826911028 10.091900517854608 0.47053836087788 -0.6407623594358706 -1.2770785101749296
Ni 3.166501578753522 1.1276239373087906 3.1753140457172555 -0.927782575750015 -1.1173775226354499 0.6530728013721075
Ni 7.766711588185934 1.7105760636407465 4.320658664221157 1.002279261407009 -0.4289985897628806 0.5803190665481489
P 3.4842895488191283 1.2824742270576022 0.8998272438070152 -0.16708133916395096 -0.08397557168170698 -0.4064569570169387
P 2.763145298138161 1.5851471430271846 7.4896738411466135 -1.8526865444006546 0.8788925349175315 -0.30714166965436784
P 7.928022494537904 8.985416275822427 5.859798780352866 1.300909036935624 -0.1661904519185654 -0.09706917164087153
P 1.02767494490999 1.5495161452719202 4.028400819966941 -0.9673068590968825 -0.5435286371926769 -0.35731417674370075
P 8.924072953571711 8.690942300635557 12.951079395854517 0.3711181725063286 1.8107284548013138 -0.2157672344054284
P 8.334065276158032 6.018775498461595 10.16414508483989 0.8708663221789453 1.8301582813911514 -0.6191769199556111
P 6.4947137854618 6.409424350448872 2.138146177533674 0.47893815490580094 0.2560307099111655 -0.9956560996635369
P 6.059733018970256 6.049990966883766 5.189406159033925 0.6556343914516967 0.30336163378664527 -0.21109785395421707
Ni 3.9009296008386825 4.983226967561857 5.293663778476703 0.9263838956302756 -0.8064943836607789 -0.13943426687064375
Ni 6.472571067837735 4.982650624785747 10.236770781725502 -2.1934243048429125 1.0810858872932672 -1.0457645862841538
Ni 4.978290870560018 2.1151779883206014 7.094817686893739 -0.028717936759982802 -0.6557274653861352 -0.14472148341151206
Ni 8.101408711634484 9.082399891679632 10.973585978405904 -0.16323008373866082 0.5332699355791461 -1.8452457718518929
Ni 8.686275783319319 7.009824789534972 5.844411357815876 0.04648014583941028 -0.8653577336558904 -0.4202414123955408
Ni 2.668188177848564 2.8440099079667664 4.6007807746977845 -0.265469229616246 0.26547925691857505 0.7127347360091144
Ni 3.4572107341932257 8.997993562533324 11.060633258885963 0.2204276159955752 0.6810320055891949 -1.5111877374226554
Ni 6.765446156613462 7.205288653297024 7.293633634608453 -1.133231458948571 0.6432259904850148 -0.11942825606236204
Ni 6.907440284114549 0.5146201831283561 12.98056211760787 1.3798457606418428 -0.03549356492091951 1.001801293329326
Ni 6.015745050961409 2.5794220944765263 0.8490895582218315 -0.7763240307249856 -1.08000782373774 0.548325801471004
Ni 0.40239508959843046 3.5897695726983314 5.779295779137014 1.1634822874133124 -0.037170438402710185 0.12402847383853477
Ni 0.7086385420245214 5.89099472748746 1.3482776987273037 0.20718206383957866 -0.5320494329084837 0.10934593212569554
Ni 4.672327223255877 7.78380665859343 5.807894465438625 0.4969726438100087 -0.19976700232243014 -0.2786687590256555
Ni 1.5350239132081431 8.310054092437227 7.146449633367015 -0.38877136681171753 -0.14831151475561555 1.4935425135370666
Ni 5.734099350468583 4.101915200229909 12.606861461578692 0.04492385709588392 -0.38835253410674403 -0.8679447776567761
Ni 7.099724966756772 7.408430890173046 12.249379277186252 0.9289179749060389 -1.6116268539770244 0.7005425648182967
Ni 0.5611812427569939 1.3050910330942727 6.375989032753559 1.6937949401363475 -0.7500396431071599 -0.16441047720000718
Ni 8.68821861622588 3.814375930058806 9.737832699618052 0.40977188032278467 -0.5461976993844077 1.0168281057554616
Ni 3.0389067248039368 3.7022028932957545 7.071062139081692 0.05884998025867284 0.07706110395006083 -0.7892803337753375
Ni 3.1428436373793636 1.7966277584543344 9.713928418186363 0.5913619546258719 3.08903183852228 1.5038392674773842
Ni 1.7858910502864946 2.392752105975753 1.8858874515265558 -1.2023198291058004 0.5531808155704603 0.14594352874407124
Ni 8.983928939626015 -0.002791544123638378 2.385505989943864 -0.22318615257731886 -0.05636732304613518 1.0135882586619254
Ni 1.4503387085250075 8.75684058998778 0.5909270371000855 -0.21425362597437936 -0.25613278270666856 0.5782567847024815
Ni 4.870877309625481 6.305478142022218 12.203597209890484 1.045093014138426 -0.4816208439442866 0.25809402019809746
P 2.6749090782860945 5.8746619168806244 0.35602924284557164 0.6906631009210558 -0.5539467472022073 -0.8328831580669527
P 3.9997352035364924 8.555854990596554 3.7579798598314023 -0.6998514522885431 -1.9075055491230632 0.38151108570487846
P 0.7705005727737344 7.40558635969741 3.009777245397233 -0.11082174534027366 -0.069623416725093 -0.43753439514803355
P 5.078834797437383 3.367775349532803 10.658429663822819 -0.23904574531739478 -2.158305863873225 0.7471404671824939
P 8.820582241855208 3.6266833979229998 1.3330529535867945 0.35832384895513775 -0.10046688446851085 -0.8664419678590045
P 1.891984600346717 4.786629009950041 4.663597489368069 -1.5235668278132986 1.2057751346442525 0.2806526222249038
P 5.332416323074184 8.600372822125372 12.03023702117734 -0.40273245697749993 0.22069166829023928 -0.20414147724104198
P 8.445606195037609 1.577320036293573 9.37126196148042 0.29202615416916805 0.5001515557586225 0.6160702560058293
Ni 7.6510619030637725 4.393377319619046 5.049283286384948 -1.4015204174017992 0.4999870051563002 0.6299174463015668
Ni 0.16023909470543216 3.8156122782720723 3.317231947238276 1.339582542246422 -1.3731377524940482 0.7504579615915011
Ni 1.1799688755712205 8.546559139368986 11.482469691741725 0.7368133742248729 -0.20085097941522828 -0.012925964033048706
Ni 6.416749481216195 3.05456093827116 8.76447434301586 0.780947645539926 -0.46685062761364754 -0.34454839243760016
Ni 0.9109069688851523 8.690923708933102 4.803583713004 -1.8378955021344092 -0.18064673655321148 -1.0758755467369212
Ni -0.00740321591763438 1.477835836456151 0.6115377984418472 0.17422874884200962 -0.4585081691862232 -0.8861178490213771
Ni 4.879541042969574 4.8832500876093725 1.0330154114402272 0.11480721235058293 1.3750190286771609 0.20707921971312723
Ni 4.87947597201098 5.677729308624617 3.314919139452857 1.1485444351565575 0.25564967242266295 0.031173083168694698
Ni 3.4720933920085604 7.328068256310729 1.875670381442337 0.14446720130886087 0.17684793163241153 -0.08606793543436146
Ni 5.157412627864007 0.6753064082778343 4.752821858205625 1.6447840574552834 -1.0450225659118066 0.7941065515193872
Ni 0.47208236791100944 1.5092465177541 11.328523888317358 -1.5205730352922973 1.7741480845741187 0.3562942201196186
Ni 1.7933184354173206 5.523167190263859 9.050813518793483 -0.5105033313065918 -1.8938092825828934 -0.5018626249124583
Ni 7.431391642705136 9.248702670140808 8.449916681251832 -2.0774696091514477 0.9625654877571551 0.29430132335658993
Ni 2.8805333074398773 6.6509956362996565 11.1443749346695 -0.6068466805250323 -0.5052415686870203 0.2692153269222396
Ni 5.839783883074793 8.012568261452627 0.6340858151794337 -0.7176401437305319 -1.0590528187526278 0.5120675904699181
Ni 0.21712319712228306 6.53054929194407 12.427106656806105 1.4678350814686334 0.7891803178623634 0.05079522827499639
Ni 4.469612595536323 3.059060130265302 2.7833284503234546 0.4480080409858478 0.6280102019765249 0.012018364617114786
Ni 0.8999564561390784 4.206549301647404 12.968058268121668 0.09445770215995346 -0.5269571059872409 0.41049101787699627
Ni 2.7749138457922613 0.19793377143321644 5.667976101516653 2.129817526625545 1.389609010676194 -0.03818988080616004
Ni 1.2012749665848044 3.1575310823189198 8.334447335643485 -0.32342343753352687 -1.2438089494885223 0.4314475655240053
Ni 3.292423179482145 3.3206639755114935 0.323001083434026 0.4074648294561627 0.39428046955540486 -0.2620823154218841
Ni 7.470369146902325 5.190831213027111 0.4446521701087046 -0.4959547440684555 -0.42076000390317214 1.7148381339598917
Ni 8.22254294898091 5.439764813050128 7.997264501576684 0.9355344517812921 2.685439604647646 0.7733343519690424
Ni 7.092808853443462 2.242726363014049 11.184047768538512 0.01355254187345408 0.21253664328327268 -2.2000901468988623
P 1.0117697434596227 6.269735594052222 7.060858083189192 0.35793766926031256 -0.7318796843686814 0.32139432291864
P 5.5450496240535525 9.260750093331735 7.32691185241802 -0.5037030205553067 -0.22239399569332666 0.2564503139470874
P 5.0208751650335035 6.215113172239039 8.659303870982534 0.5486890983476936 1.2790610878225972 1.0364582212815634
P 4.814544451186426 2.603265952875236 5.000290432075178 -0.2307238557152607 3.702711482808746 -0.4760518344969414
P 1.7691492222256464 7.478279916296985 9.598445128801176 -0.09117980273963007 3.3060080056341454 -0.5159496991331437
P 1.5908454998296833 3.338586376678243 10.88257959488802 -0.7424374052798698 -0.3180279775495684 -0.9058932318760914
P 8.025136252312297 3.6867624844067657 7.137891872726917 -0.9871015252253064 -2.7712036356883436 -0.5442562593873208
P 6.898999651199918 1.1121649367173467 2.456621111004998 1.610964023582045 0.44823995449099574 -0.5986530889706464
