# total energy = -340888.8783475864 ev
CRYSTAL
PRIMVEC
9.10877583148422 0.00000000000000 0.00000000000000

0.00000000000000 9.10877583148422 0.00000000000000

0.00000000000000 0.00000000000000 13.33161415854973

PRIMCOORD
 96 1
Ni 6.691552765756675 2.4255759535020425 11.971830039318366 0.01845692115360692 0.17133085846892426 -1.2999826684666127
Ni 4.7584063500603095 0.9079764520222834 5.906198655865318 0.841771461695518 -1.7479256605424798 1.1715401247207824
Ni 2.9494307684100596 1.823859321587996 5.046976016353922 -1.2213917581355869 1.6855807797566713 -0.6377971061599597
Ni 3.4428531627966517 4.890829735136777 5.020392964558134 1.3286628100101248 -1.0936493257805746 0.10522085421372847
Ni 3.5698750437219062 3.1500971030664493 2.9125047014984147 1.4199261736024964 -0.07790982510360131 0.6049849447259452
Ni 5.074544637709847 5.085957934002378 2.9831223089741568 0.4754285990906458 -0.436779262149564 -1.004745463559315
Ni 5.18589942396379 3.1981823314210147 0.7264904669294869 0.32803702504613824 1.7000056969327497 0.8875257851124974
Ni 5.663955313286136 8.224996983039192 12.918680925432641 0.3075350484380445 1.4431239518751984 -0.6038446604739149
Ni 2.3820360043573516 5.624559857208567 11.729274265723358 0.0032689005592588865 -0.4457596112713033 -0.0016743023786293745
Ni 0.8505164714376516 7.626914752737852 11.520448289551524 -0.49848419535852867 -0.3658859775731118 -0.2987159074845178
Ni 0.9980121481144796 0.24994481266324697 4.931003991559928 -0.8518568709559782 0.02005229066518482 -0.1857290361721253
Ni 8.765602836959152 2.7714543946991563 1.6718374941308338 0.8822632511619772 0.15517276065182306 -0.7585083426998034
Ni 1.8116353442339843 1.5032304073844138 2.604157149937466 -1.3651781313273392 0.27701811079611005 0.21232478438278274
Ni 1.719354334864766 7.26754621432666 0.3591134926839837 1.4465216647028378 -1.291989365848491 -0.5676977782397126
Ni 7.799680906592947 4.420589175598144 4.091152075029934 -0.17607814334592256 -0.9028608728076708 -1.9679002481610368
Ni 7.735054141073787 4.446230379958458 13.01754849070699 0.2373832700133073 -0.43952545743613336 -0.7613584105540888
Ni 8.36526302422729 0.07491968236717224 7.024560506505787 0.7839105848229919 0.44267583013965695 1.1208515972269792
Ni 6.87562291059264 1.3278955787053015 0.8505866090126337 0.9755176770424488 -1.6710563608882512 -2.0361915763382674
Ni 2.0556503437396594 6.538743940055558 9.531130785070522 -0.325099282574053 -0.17917632265527209 -1.1358156747359793
Ni 0.45745548158476645 5.174285734599882 1.7106463450358276 -1.0766556194360555 0.041240494707025746 -0.6377464554276823
Ni 6.467258266229714 2.1973555715312822 7.070248305024603 0.2836181326111309 0.7792975115310127 -0.32959177112776783
Ni 3.5060043066083972 4.733703349625079 0.43206294680847884 -0.38035177528945463 1.1145732204174352 0.44358420088653927
Ni 5.892357870776331 5.642476819544886 5.12435233560066 0.18055211995687614 1.9142320692136192 -0.6470947294118017
Ni 5.289876101680662 2.9524913171365483 9.76943367116435 0.1408707422068542 1.4904152807619944 0.40894527065643116
P 0.31270245735301516 5.768888412480037 12.707401955891632 0.2562808782487586 0.6939248023914629 -0.2413898200695391
P 4.165397707975202 6.66010016232642 12.788951005411 -0.6271026025605909 -1.0401711513567764 -0.6160766837637326
P 2.6021769020412195 9.015174189807562 1.3361344665716974 0.45040250935995335 -0.23323248106972733 0.44237732506263167
P 6.670010510583621 8.413284491150051 6.1061326449335835 -1.412341162166387 -1.186939232884672 -1.485534041410293
P 4.851989914393481 1.6378945513499183 12.87218062409715 0.079686714498366 -2.952542513212573 -1.4177361079297133
P 4.320756990948392 6.493992523706631 8.147642524854787 -0.36645316293049146 -1.2466921845735883 1.3300028689777867
P 5.005072003373748 1.5938718370787275 3.753968871375398 -1.0880792878919647 -1.2841493009787819 0.556669545450009
P 0.3089122956711938 6.2332902466208155 3.79744414821069 -0.3128528611065322 -0.9633509597729278 -0.2095053126561166
Ni 1.2240008799721749 7.781763944256627 2.591666285447484 -0.262190044644342 -0.057990460471854965 0.6756046639260365
Ni 2.011727826004157 6.866486808293032 5.046176265823608 0.35814875682985414 0.6920329846853888 -0.13005333987637602
Ni 6.140508254573154 5.971649765609915 9.379697384541133 0.2396432696920776 -0.1230301144810075 0.5635426184207585
Ni 8.819481246831716 2.7949914718100106 10.40160549553975 0.12188160269886106 -1.262185138002865 0.14126566365242768
Ni 2.3185296182827098 5.336075813409088 7.079913627208166 1.3103753245548466 1.3299481044804515 0.7567065136043742
Ni 0.7765067557900515 0.33780715480859735 9.221743922171205 0.047342236729389434 0.2453698877632097 0.20132920460322745
Ni 1.5411411329785987 1.1763801991921656 11.645684850386328 -0.8114329586129767 0.0984673375399788 -1.293456951532953
Ni 3.7987968014424864 7.07742784224549 1.690555117875065 0.2305456782661836 0.9604353287880298 0.4463355383794313
Ni 5.878922426218084 8.401388429731021 8.070626002258932 -0.5570292427822728 0.14630091208348997 1.0505090429476747
Ni 6.968996973078462 1.026249353626727 4.884369791217654 0.4859294986219696 0.5137249235676831 -1.2230418921445
Ni 1.308967542236124 7.632380018320867 7.355731918019006 -0.7708421816748079 1.3212282081089504 -0.21503241312193289
Ni 5.326229226583688 4.585813262948676 7.242413279665566 -0.5726062712849235 0.7971823622312334 0.9891692063876127
Ni 8.445219859706807 7.526936827672554 9.099107005998722 -0.12618665783211816 -0.14971816529515505 0.34632425339110035
Ni 5.203825495076082 0.7730326686344479 10.873117640204033 -0.3805813748017574 -1.1435073869532821 -0.1349536053914708
Ni 8.475561192468515 7.41843308829775 5.490492338069207 0.6309559148684101 -0.0899731840260386 -1.5783076709996042
Ni 7.21722933585903 6.374549144389826 7.239093130823885 0.5037798965398292 -0.5719367560217247 -0.1251628445532941
Ni 2.4677586950269514 5.389999767161508 2.8832281846477974 0.2720286280013186 0.7477835000831314 -0.2321374482333357
Ni 3.7112250292506332 4.71482085703576 9.638797427933527 -0.35868200362550484 0.15843883299760456 -0.2661716549999093
Ni 1.1724087728685075 3.661354480805616 3.9931516652280905 -0.6325065471849816 -0.7099875122812805 -1.3367278464064463
Ni 0.5694251102167986 0.2917978164979805 0.4465276830515268 -0.0599396137784258 0.38377108538364874 0.44072539128150545
Ni 1.1420674401067992 3.7005131087079226 8.371587247384435 -0.8459708444888463 -0.28094752775750326 -0.297656612982068
Ni 5.5567450200993145 3.2650862909330978 5.067773173652491 -0.8680841314481178 -0.15483183237263656 -0.4348072260248576
Ni 4.530759820975766 7.388100864312013 6.184775994917983 -0.2668959347604436 0.2507766606010778 -0.534145396205564
Ni 8.478885895698182 7.393584347446971 0.6425266809000211 -0.8198085842711818 -0.15515270604716505 1.1014557091988708
P 0.4471297731432557 5.853299439409712 8.044336253049432 -1.6927572429004525 -0.49956071625215903 0.6157578669717331
P 8.72775587279677 1.9371633858998811 8.057840924305063 0.13500014235869007 0.43612208818153925 1.84558001526286
P 1.7639600107981448 3.6742069637016743 10.405298193318673 1.2272063079348348 0.235337186117556 1.117462111929456
P 4.070220107846985 6.776218838413557 4.005790091888814 -0.13666004655961625 -0.21582611266782187 -0.4865074826126266
P 7.091655750313275 4.147125503375986 10.580555597402027 -1.4454551711115364 0.5138092557513732 1.20373445006514
P 6.609755957530875 8.014156145622422 10.218735887376853 -0.3452467040562054 0.3052120567318227 1.0432683022248612
P 2.7354291857311117 8.80057142791448 6.212718986966345 -0.2633866360556045 1.26563427289373 -0.846625961574342
P 6.960343635905354 4.3187712777865634 1.6382151802641216 0.22873973540569636 2.1446831308834677 0.8914611156111615
Ni 2.795501563264425 1.7461705713254292 0.22708907199507572 -0.16555744632025682 0.14738540339692036 1.708310103033387
Ni 1.7179060394852665 1.5628109110152555 7.2456523604011 -0.19230077585237204 -0.5124049192046788 -0.4797531946079286
Ni 6.880168189802514 1.3537462849129653 9.185402638676942 1.7248862622245134 -1.3579427899211645 1.162046326297734
Ni 3.0569416512039482 1.9773057616071306 9.662887407745863 -0.6197875569564165 -1.0929409868596403 -0.12112826947260429
Ni 6.528350826671856 2.5972126191366476 2.617556159391826 0.16210162656117244 -0.4924657570785905 3.1984237933945625
Ni 4.3157198378360455 7.177870314885346 10.511018290756528 0.2732581295330455 0.332277288379731 0.24656185118878177
Ni 7.313691273399256 6.724681383965721 12.097520217196559 0.1627271759603133 -0.8094645220326963 -2.208582243530274
Ni 7.532074177320588 4.035506562618864 8.53254022968184 0.6231916975419589 -0.49554079645948856 -1.631274710114939
Ni 3.405598269072429 8.740690334676573 12.26925799024445 -0.605284478244235 0.16579810157615318 0.6835090063747776
Ni 8.923102682285691 5.27700540123266 10.255597281979101 0.8840563385066582 0.6272244728504359 0.5970952575652233
Ni 8.58897456209206 2.413142474300682 6.006332340999733 1.4978809930114203 1.5627540395357216 -1.4410840386270345
Ni 3.4680571459103255 3.1028225557733644 11.864403868141016 -0.00750607856905804 0.699895418152601 -1.3519269227443877
Ni 0.992546882531464 3.5713506654293203 12.509520174049788 -0.1402274521959004 -0.21324703908673595 0.9401282417995616
Ni 3.350945613242273 8.589102084955664 8.463895583081568 0.7191835769582517 0.5221028632187331 -1.0702977955388278
Ni 5.76885197737615 8.24881643220517 3.7735937292064103 -0.48848414672302326 0.20419727017964187 0.31642463761819056
Ni 3.1466448769731774 8.921836562425627 3.7516096983987297 1.3154141725303345 -0.8810944276648567 -0.38007152504487446
Ni 3.5481597218053906 3.156901358717304 7.608178911441677 -0.11857285004060225 -0.11852374197022168 -0.8040757469169572
Ni 5.346022596770176 4.602710042376167 11.838486667868757 0.08309085508390851 1.125891730754048 -0.06657563103770471
Ni 8.303596610898929 0.06474973399477738 2.5590568674688234 -0.4675430256949819 -0.12025846527314127 0.4671437333740342
Ni 4.8223590661575635 0.6293563017225506 1.7331094974596188 -1.190332831947253 -0.46983876370769406 0.05855378917449271
Ni 5.881035662243517 6.098626102655312 0.7630439849038897 0.6253046301199037 -0.6054253746974735 0.06790797669588304
Ni 8.16977958309879 9.027899149840016 11.421966936378375 -0.7483874522157176 1.1161256525062198 -0.10000717122327293
Ni 9.23183553507024 5.0872513801903585 5.751431443330288 0.871645366436815 0.3902489797985086 1.8731666666318771
Ni 7.376131932685209 6.573093134244811 3.0085321504247906 0.19942118894723718 -0.1350127407641804 -0.7386511987645602
P 8.719667279733907 1.9048181224244003 3.6976565965631996 0.35788599008677074 -0.1824976737190212 0.4127983258539343
P 2.066690180217351 3.515513868722844 1.498953837065704 -1.7631571327802535 -0.04296621914888084 -0.13427406282594295
P 4.828307096867079 1.4609565780997882 8.272053830586554 -0.649076792838837 -0.7865068847952583 0.16762615592382746
P 8.574837741783993 1.7496683412985592 12.687164077437725 0.9727110608315894 0.8413369452612608 -0.1807539515550371
P 6.475911603402821 8.134291791913077 1.5636516510374427 0.8708894621073969 0.3891814577659426 1.1299000805824926
P 1.8944341178166706 3.6068657829429505 5.939740812503479 0.404538142727671 -1.761520625618095 1.2838441110335375
P 7.188782628499434 4.322770030438136 6.177483508875047 0.19106176123894839 -0.8057330800147221 0.5870201327174084
P 2.4150553172547373 8.508343677190636 10.343479663431587 -0.09651432757866603 1.2583074002150136 1.0731609760192358
