# total energy = -340872.23851152125 ev
CRYSTAL
PRIMVEC
9.20079898577820 0.00000000000000 0.00000000000000

0.00000000000000 9.20079898577820 0.00000000000000

0.00000000000000 0.00000000000000 13.46629934670163

PRIMCOORD
 96 1
Ni 6.9282107196916485 5.591123031338314 5.526366889093799 -0.07064980110707832 4.536392711296961 0.36718669866240633
Ni 9.314244679443249 4.850983171067005 5.147788980280163 -0.9441772150579547 -0.3648793906854684 1.6359019244743052
Ni -0.0515787581603735 8.944087341718712 0.37522605779991375 -0.6197970700381132 -0.5589071765312761 1.578118437806934
Ni 7.673604236094812 2.4007920410747143 7.60510612896619 -0.17172912234860746 0.2701290969857606 -1.1875876651019481
Ni 2.079481744337961 3.3770980057111495 1.1517403561652335 -0.35309319668381767 0.17826795190838976 -0.4275963100987152
Ni 5.435620330314665 0.19339527092458925 10.884418964793355 -0.4136341914916683 -0.3985425872658685 1.3745546874462329
Ni 7.206001237963112 9.260143982323608 9.187598443789724 0.3761297667883071 -0.37565334137252077 -0.5027496555031019
Ni 4.436100750230465 5.266482045425147 3.8573005777604754 -0.23410459926203553 0.9466621862633373 -3.0596037630691497
Ni 0.45789431520642115 7.622696216169137 2.4463148334452667 -0.3981332676425917 0.13656311597043577 0.2784913529075268
Ni 1.5668132335375524 5.0513121639897856 3.486627075221582 2.262210313268375 -0.1928759316295517 -1.195297117931064
Ni 0.050483863099618866 2.9951912478808667 3.277427592146924 0.8677100359381508 0.004471919728424556 -1.2900163012825203
Ni 1.5642554114628482 0.6069914200847139 3.0638926926636296 -0.07455145015432967 -0.7123629544919925 0.8663116129287274
Ni 7.242804433282596 3.7052628975761563 9.606305636699842 -1.1153808039203952 -0.7474130041175903 1.4796906952556388
Ni 2.7658337346498434 7.587300743070624 3.6040798726842995 -0.06763569687110287 -0.7081697423462514 -0.317453335993021
Ni 1.560777509505157 5.9256824783900806 0.9949670248231797 2.2651213162675825 0.4957156314744559 -0.3076090962090896
Ni 8.063966528049747 5.479848570289854 11.146365707479779 0.7041315677211356 -0.002722284027169505 0.7280230296267527
Ni 6.52382641031999 6.870963349372191 9.532887862436887 -0.7613452979279662 -0.10472668818612932 2.1755399683633243
Ni 3.415741360796608 3.3550804941112684 7.526731884373583 -1.1671877612893578 -0.24029941521883774 -0.9382104559515585
Ni 7.64598343800754 4.818651563978839 7.5657708738087255 0.7499841072788761 0.6731047803223181 0.4913653249255603
Ni 2.0586235333906435 8.46008852007218 5.799395993970805 -1.026268425232755 -0.8169963116333673 -1.0977996005035222
Ni 2.71051853208466 5.670967563583933 6.020688086947562 -2.0883867702845844 -1.2721620467099188 -0.5787599495911452
Ni 5.929804436265862 8.947344424504486 5.172001802480852 -1.0779347432587953 0.5112204119782744 0.06678414750408498
Ni 0.20200721862934845 1.3658401846966814 8.746145956092283 0.8927566944941334 -0.6407415335002642 -0.3218805185264392
Ni 8.1999727363529 5.766609867420441 3.332787878626374 -0.3530893400290758 -0.3389644705919194 -1.647279055962995
P 1.093818567291547 6.3987415502278955 12.37498977882718 -0.9844543174104465 1.079190212932451 -0.8594835342633004
P 7.151707324068043 1.648111491998292 10.63840340528085 0.0672150643939165 0.6849565374545816 0.37215175597716554
P 1.21338294808572 1.4278535688100116 1.1553111861911065 -0.45694082469910335 -1.120393169533322 -0.24665621067480104
P 2.500436692402216 1.1344952989184065 8.012556144507961 -0.5288432672663602 1.561625325247917 0.47178714568331653
P 3.7418360729248934 0.2897359153922849 4.46040190009992 -0.3155244944014244 -1.0494291796199344 0.1589851924193778
P 4.718022427176541 3.177569482286568 2.0059535604890475 0.9530801739745391 0.645413742164953 0.40467698229838045
P 0.48084294764788527 8.856514138456 10.066125679101356 -1.1663758069110235 0.31656347718889993 0.1101720275714167
P 4.856715268738015 7.161460170827707 10.989604337176205 0.5893328400109851 -0.4053647523940245 1.0271757675383728
Ni 0.21759061160750084 6.772450396300763 6.710499577619475 -0.9190171708525591 -0.08065242084574496 -1.0043968219706443
Ni 1.5304792789583919 5.150404767387496 10.514769511164225 -0.2581395287240522 -0.27449328749172724 2.174670421274177
Ni 5.099257526692243 4.211242427627249 5.699691537450907 -0.48699573510295474 -1.3213703901137694 2.0560564335829943
Ni 8.603013729095396 -0.058592527108384126 6.987070069966099 -0.6503016663848736 -0.40490452492815426 -1.371977927857992
Ni 2.674617015050503 0.6413011989213026 10.337713938881603 0.29630112739543807 0.35921370775925876 -0.0464264097833394
Ni 4.871142121303252 1.7378560837848531 6.352673150486731 0.24424040214445678 1.5138226039423412 -1.053056749070193
Ni 5.619571901320275 5.014499767871472 11.445976840256165 -0.5165497946109877 -0.7567749049484644 -1.2154720502170422
Ni 8.56851993428221 6.4462084713911985 0.2930362419325596 -0.7662005691377386 -0.5177636124134308 -0.3594659329793809
Ni 0.8632355076563853 3.9285478835794643 7.076580961462381 0.1368060852191773 -0.5963678924808955 1.5915408818604269
Ni 6.026753253536213 6.367826866159529 -0.33872740892169867 0.7701970918916413 0.32847154148039565 0.806736838688888
Ni 5.175265325825807 2.627490523443904 11.210101481134062 -0.8154132834169634 -0.021827380287736602 -0.9764928964715247
Ni 0.09799678825707239 2.573767059076288 5.380782649208751 -0.9894304304687992 -1.5657493747186195 2.342272665938605
Ni 2.042356521059432 7.438146593239586 10.352634874344005 0.669879331406485 -0.9388262351586865 -0.04295696317750021
Ni 6.7504972902926905 3.8321327126412466 3.7480751346114287 -1.3426449832218297 -0.3813858729809238 -2.266410210282335
Ni 4.605726677457966 1.5266425458463357 8.909599987464706 0.008447873657037063 0.34982738144835235 -0.22008077417911773
Ni 0.49762244447392084 3.9220705212032354 12.401397911628676 0.22734696882322783 1.6189791805770377 0.22878704370386407
Ni 7.9068996912250205 8.018367369048907 4.283710679450961 1.5666513177075987 0.7384683933297927 0.764636052864096
Ni 8.833843370139197 2.07531378246803 13.28826107068017 -0.30221646443860856 -0.6593987435901354 1.3522490819704969
Ni 3.6087281162531504 4.609250583409806 9.569583408410063 1.4941986590638265 0.13045957417585918 0.27593130548983447
Ni 5.3334270577112886 5.966902057147903 7.726585195996858 0.1578305099896443 -1.6227000810720504 -0.428127757122153
Ni 6.132958074429413 1.0144248741885908 1.5747894060431675 -1.344975174016903 0.277368037936361 -0.2107373852910048
Ni 8.153720320635138 0.9687981127912607 2.2871833373631167 3.005149083664696 -1.2501696015992274 -0.926614780694159
Ni 7.68308105888958 3.2371170523134927 1.5394132546221966 -0.3230549984505146 0.06291412302571746 -0.5608835835313566
Ni 7.388443877960623 1.5264677306685683 4.204420955374783 -1.320485930626287 0.38049035774984796 1.72148880650719
P 0.36706402915793523 4.425722249150371 1.7122263385643646 -2.264291878387752 0.12818363365748892 0.5242829015891874
P 3.10189291191088 3.8597351091308596 4.901436671530486 -0.7578388274366046 -1.0751944615094966 1.3105604439824592
P 6.91380226872407 8.32240776638199 13.600692596546098 -0.5643962246703054 1.3475218516981569 -1.1370359202963256
P 0.03912363678437722 0.5115036896685472 4.66946613143178 0.8723855870369491 0.27218752217668607 0.5898216067219456
P 3.8773362372924027 6.480021407090976 1.701925124194441 -0.6482072457496901 1.278496730678695 0.7442212366531699
P 3.6255747789106443 0.606196471065813 12.53636995014335 1.6400046337887688 -1.267425817576514 -0.89512519472631
P 7.212184174776786 7.090568015843551 7.538097631168123 1.4650264083752444 0.2686553406537115 -0.7407985841248662
P 3.518431476536797 6.958168520681707 7.533748413561242 -1.4353697618510763 0.4881992684927528 0.6903645958440304
Ni 7.142377714054554 7.654218152960274 2.0038392169179433 -0.06523531495972637 -0.3344156748789724 1.6405191115313422
Ni 3.584787637697826 1.4867570829188455 1.2134721958343697 0.37902919982328914 -1.4995300985790692 -0.6834308448386746
Ni 3.9920886002985534 9.035580085282948 7.124439836655838 0.1737610651769717 -0.6701238433171233 -0.8663926026783079
Ni 4.1478489236894385 8.213102276283125 9.321614519305976 0.07705133375804794 -0.8267086538251246 -0.8990623249971871
Ni 6.2445545634369175 5.030131925083423 1.7703201823761698 -1.4302650936346593 1.0500783831681593 -0.4017631510856952
Ni 3.2646182400159773 6.221892995918946 12.12315655421455 0.5398576160989929 0.36112352318746194 0.4393002287992047
Ni 8.826767955839028 6.927097423033234 9.23929497217512 0.41847866406816314 0.11734823360488175 -0.4267858983822778
Ni 2.256109479474994 1.6188345501216426 5.707637347320384 1.1072458335180866 0.8642565301719116 0.22307045293506098
Ni 4.5139855123253225 8.08661889476889 0.12047433979844711 0.12296043758533663 0.5519168612563721 -1.5022320708912644
Ni 1.4941085211839122 8.255931994836175 8.113391379204048 1.0322058737631128 0.5512200922996636 0.3749108067795414
Ni 4.463519130743481 6.959079399765866 5.4630617128247545 1.2967626188674182 1.5537924594670594 -0.005425027670313238
Ni 0.18294868393315378 1.8243803959809595 11.115796973447416 -0.7629352681229054 -0.5586233267422702 -0.9537370908322477
Ni 1.813928288510226 2.7738660320283213 9.647688069596953 0.9760828055172996 1.668684261111649 -0.6397886826686917
Ni 1.3086664207678633 8.911801738624694 12.078718536026038 0.8430955798235803 -0.6655953593191505 0.45158804502762223
Ni 1.6745269854388514 5.7425405776815 8.293274356967087 1.3550469564306082 0.526563470093248 -0.14212852587335523
Ni 4.960251857970553 1.9695137967233436 3.8370735416128876 1.4063756886115715 -0.27134008657472625 0.1860393683236925
Ni 3.8049259505013184 4.723202476917757 0.5408082339416861 1.3199262014680753 -0.059419479608897666 -0.813227074398922
Ni 2.344142722679199 8.224925302779509 1.1672022985988317 0.30944177854245414 0.765489916223959 -0.36860311939395873
Ni 2.1061824625422467 1.928929073084783 12.566467603275624 -0.751965399374963 2.273315936263233 -0.22512707835377357
Ni 6.745988898866054 1.2466438358557035 12.769701288388994 0.5031114097178948 -1.7577709287676762 -0.9413382029472628
Ni 8.089149114447103 8.290701813614257 11.83114068087222 -0.29447975791598313 -0.17068756845797056 -1.836236112154115
Ni 2.8696555486461075 2.581550934886359 3.2460381468589357 -1.2972688690798755 0.8799526007509296 0.47825989789185375
Ni 5.617584528773023 2.9856868226896096 0.02316117089443412 -0.3520891808993356 1.6247909021628084 0.7692442410600687
Ni 4.736249209658515 8.498143024032526 2.332699689174488 -0.26052936911246743 -0.19967547104988836 2.0524196081613555
P -0.015550270102364877 4.543234851805482 9.24465443749352 -0.08057605908185478 -0.4061281129226102 -0.7233857879650574
P 7.395648103444412 4.312313202773382 13.02325782262246 -0.3604753480805018 0.5213099350037925 -0.2795884426264475
P 5.379550662245431 3.618379754225685 8.372024914231837 0.1720386831692263 0.4682567639325548 0.11303289405897952
P 0.678403420202757 6.776379137401118 4.457384958163606 0.7845639021362746 1.532031156530568 0.6352254887780415
P 7.27386633013224 3.6609058464173487 5.634582084531326 2.194708570871975 -4.1610093357563755 2.9223233093167154
P 6.490280297786281 0.7017946110679378 7.170224851793042 -0.28612161575927497 -1.1228747983045952 -0.05469662021193161
P 6.2177158332501845 6.8009268686792135 3.9238370745785702 -1.647122475780473 0.17830754689707357 -1.3310858176293205
P 3.1948117792937465 4.099802352199852 11.802174725996023 0.389949960500851 -1.5824625737082423 -0.518393789798262
