# total energy = -340889.0110922 ev
CRYSTAL
PRIMVEC
9.09636800578027 0.00000000000000 0.00000000000000
0.00000000000000 9.09636800578027 0.00000000000000
0.00000000000000 0.00000000000000 13.31345405143055
PRIMCOORD
 96 1
Ni 6.40254216785698 1.8975569063999838 11.242200084676611 -0.17684407497766963 -0.2655414776150782 0.824188201396116
Ni 4.358306330286754 0.32060057433811484 5.90994838032979 0.66501891799039 -0.01025510206910492 -0.22228318114707526
Ni 2.9788785351709284 1.7818420113043767 4.502064417748546 0.7678427327268519 0.8081874550924856 0.30395581572721847
Ni 3.824495080873138 4.396192702275843 4.758188117672961 -0.9206688475233692 0.6467396600652281 -0.42610198494137586
Ni 4.041070502406926 2.764486241915024 2.3338214361738885 -0.9273706850235771 0.22596217266055924 0.47621072867230885
Ni 5.320265420464462 4.673841137383398 2.723467080847173 0.5534075868692856 -0.6113409688509601 -1.3785846345412323
Ni 5.3189100616586105 4.756381579023013 11.703817101214211 -0.6769128412144987 -0.5908955565124147 -1.160126483567202
Ni 5.882566493904447 8.204532633892649 12.16898897829763 -0.19994569399213954 -0.5944045981069376 0.37466526642763864
Ni 1.996388942813298 6.742036807803388 0.23902707659824574 0.36358818267787063 -0.7010984373217668 0.2120923566570025
Ni 3.031455541196603 1.7535432110023224 0.4091555343832963 -1.0508391725935837 -0.6011187769023195 -0.35482123511851793
Ni 7.91766048181104 -0.0157958427272637 6.909322650643278 -0.7332215431085566 0.669857219919298 0.6265475013880694
Ni 8.704996598861607 2.5328563316316703 1.0504048938089958 0.45457926644546226 -1.5227605298619196 1.9673610878281147
Ni 7.156358169474223 0.9879383166845125 4.890391089087277 -0.7543927778695331 -0.2366775021955343 -0.9133239771225239
Ni 0.5294559084992394 7.399185708549551 1.9635610609714194 0.7818326192480406 0.8572127359512527 0.6211247877106013
Ni 7.8807201320757 4.1222101034015655 3.4270956922662403 0.4908284785854837 -0.7792409472614644 1.9206827099349697
Ni 7.702485900922228 3.5350304639615433 12.402680125530017 0.2047444009323635 1.0838896752906495 0.46836115072090306
Ni 8.173213839472858 7.0951214212796145 9.12325759743724 0.7089593281270822 -0.1183062266427769 -0.9239035524105831
Ni 6.979670320850918 0.9308040303787577 0.22228521161723286 0.7213978110007511 -1.8247006007106898 -1.3405569903445493
Ni 1.9134846464607027 6.542953701596136 9.259653994418656 1.279712605363667 -0.2503434297184011 -1.8702646624937336
Ni 0.15857970919505113 4.994542681404365 1.0377518461651007 0.1210814753950689 0.2556231900601017 -0.09733656636964526
Ni 6.447905754197818 2.352147888429931 6.796811496295464 0.2842493384372266 -0.8538011391665424 0.8031244387472813
Ni 3.8984576476542387 4.269434816641279 0.40973861156084745 -0.8077606519677122 1.1301049975044473 -0.14594275741312285
Ni 6.315926553431986 5.967044461890683 4.427602460373881 0.666542039503136 0.23673329513413421 1.9976988195797079
Ni 5.466253027680042 2.978632933239666 9.173183012242069 -0.24003253471069627 0.09587360867087359 -0.28805405689529745
P 0.2511625409129261 5.933233262686974 12.308288026251846 0.8821732625513323 -0.8827095946707766 0.40136797252980555
P 4.100424302461861 6.549921519349711 12.460593970558334 0.18882721548147482 -1.2886695574466387 0.8879345905151418
P 2.611503527842394 8.523842433636466 1.377103673136663 -0.9270037886024615 0.5619361931655872 0.4834995490242383
P 6.548629835118631 8.046838001286924 5.397660046825751 -0.1650501676665351 -0.8214772302228562 1.8519612361988558
P 4.793995059977367 1.0023833487898364 12.713136430470238 0.1502508978701735 0.610359321663981 -2.4988942432218124
P 3.975431112185253 6.204259542018285 8.10625547591663 -0.8172397951027408 0.7944122556852642 0.07006358958630515
P 4.902187258882103 1.2274820669751907 3.5242176115285466 -1.0534323872420568 -1.1269327704240526 2.3956328267273
P 0.2151945928980264 5.96921849380074 3.524324039032093 0.39588303815583437 -1.0643492912648767 0.4514862293424353
Ni 0.9730475625557877 0.7285772194513545 4.870873922283006 -0.5833421696451889 -1.1417230413593498 0.8033486389429454
Ni 2.0819038967315278 6.805911502667105 4.506577125826286 -0.8891527791929591 -1.0648087473997985 1.0987195412146304
Ni 5.659496265743959 5.647698276675568 9.213788288573904 1.304137828285567 -0.19719821315398942 0.8673652510042222
Ni 8.747030914578673 2.16030549101099 10.295267284508213 0.5068657345540044 1.5026264781162058 -0.8938170174378478
Ni 2.516710278743163 5.263213001469127 6.775283122565194 -0.8929834657929587 0.5889096364306374 0.7255226318024021
Ni 0.6753461845790975 8.957184300428356 8.8625529666764 -0.583774114976285 0.36826784754172703 0.01295630305035188
Ni 1.8068934082930805 1.403987988242006 11.436402989546014 -0.18620109071253738 -0.2515485057700958 -0.5574586170102077
Ni 4.313142864038055 6.797442784222485 1.4750242534939613 -0.16487944641662572 0.5158874784366405 -0.21098343986353987
Ni 5.547156123111245 7.99349690036399 7.986408100918348 -0.06335943809325217 0.9132455584761046 0.6414431875529791
Ni 5.647680083939918 2.9921319430912408 4.705267268943519 -0.015108316396348173 0.11869266344791816 -0.6500990634557643
Ni 0.2871159347393067 7.4181425390958315 6.843581381101971 2.029144182573183 -1.3011121540853656 -0.4580381715283402
Ni 5.165226927263493 4.653201478789582 6.949916101696942 0.04668043477567445 0.06254568394270518 -0.02176927335629154
Ni 0.781307044456481 7.545009581144289 10.957638410022428 1.319388069576418 -0.8929803804691652 1.1133293207080053
Ni 4.774019436234741 0.326404057010153 10.302176885507713 0.2571892489956409 1.7769307895255786 -0.5830236099635056
Ni 8.567350360941104 7.8439799024324985 4.423328077133142 -0.19607438396219137 -0.10974496733632713 -0.153025118181201
Ni 7.002929733378194 6.50685021770065 6.988231822247348 0.6205537456984797 -0.8277432657372261 -1.278448651049579
Ni 2.1949626524223773 5.384713186501124 2.535507013215733 1.0671983306778976 0.3915640990655063 -0.7565867001970583
Ni 2.417850953226375 5.325232037296646 11.706067542613996 0.05894819639943396 -0.48517616539571284 -1.0688461506939657
Ni 1.2457293808311598 3.530473183681463 3.6163865585104067 -0.505403291075865 -0.9565678754128235 0.032223635920396114
Ni 1.50858712185606 1.0403970699284688 2.6069207777324057 0.30660353776271065 -0.04610553610881092 -1.5150209951258167
Ni 1.1907600300676389 3.4733207046400594 8.304066909902016 -0.5522742445957908 0.022336715823987337 -0.003351690081052292
Ni 3.6378921913211157 2.8264416031677695 6.930624524814719 0.6444202679034321 -0.343848281046782 0.07685233037336442
Ni 4.366729566892251 6.862791090673774 5.89911187734045 -0.050928411418751 0.5551471952682117 0.0672394898739487
Ni 0.8267343053720899 8.955174003139138 -0.14612314309616548 -0.541031581802436 0.1611248644701999 1.108888254217516
P 0.3012707927110285 5.4767866216208265 7.9103351768019605 0.1996998965299206 0.9459929281104547 0.03469266628617896
P 8.783707469647103 1.7472576208355852 7.945496276990826 -0.4402255688269515 0.21279529626129803 0.2118820404184093
P 2.081376307397706 3.4790605127373255 10.596990166700119 -1.0550467829170282 -0.6509310724387564 -0.6113743931920568
P 4.324640672968238 6.305902356089374 3.7000222028360925 -1.5508734860480518 0.22224332904807528 -0.28970393379389464
P 7.031237630048072 3.951835134048471 10.396329750312098 -0.10119630643536764 0.3570174714388884 -0.6819519463003029
P 6.413339556464676 7.640694274290324 10.062494870426102 -1.06524763470943 1.0111403113420652 0.36423712911577916
P 2.3036460551896374 8.388279263947776 5.9280283210177895 0.13390973750798874 0.6862816840239084 0.3900805725414443
P 7.2463303436264646 4.056634387754665 1.4412749095914599 -1.642278003203978 0.6329089248297229 -1.126185607845383
Ni 5.695481496857725 2.6645626413627683 0.49938877429210005 -1.2420860532601448 2.629722256480684 -0.2514834568601153
Ni 1.7111905224113984 1.3243219988349368 7.170053660870807 -0.15810870335169544 -0.16875924108700613 -1.3094875226332543
Ni 6.909892083269093 1.1098569346364362 9.059100005534178 0.4836779835836315 -1.3024511846117635 -1.1876817674776514
Ni 2.971073851577498 1.8184457954302098 9.19435116980649 0.3075931553694896 -0.739774513735726 -0.06911176719599711
Ni 6.600515517189642 1.8692217206266313 2.558459878147322 0.7076182407181555 1.851295834700715 -0.08719767816343046
Ni 4.1247388936567795 7.2997442154919945 10.421398430399668 -0.5635732145483777 -2.023781889820005 -0.619314731085056
Ni 8.071034339700123 7.384340436259948 13.420228029120096 0.32215999744007096 0.49089738415020623 -0.4845403315839268
Ni 7.475204054458991 4.166563992913882 8.03594782972742 1.5883879380537418 0.09239773430713119 1.5931897303177593
Ni 2.9659616928601227 8.552950810674902 12.363086365300267 1.9053262820835573 0.23153915252770446 -0.7278371388681917
Ni 0.23383486984401475 5.074235959914907 10.111567955565773 -0.34612293601357164 -1.4726702980737476 0.7569739083331479
Ni 8.843279582529826 2.625129886843512 5.713428630575486 -0.2757256172369316 -0.3084868708283526 0.30501202490587465
Ni 4.016446634705974 2.723843670475108 11.28399061773598 0.18981143377161502 -0.16996714535217824 0.8154436224342666
Ni 1.081166990517928 3.281796680094976 12.7530767623141 0.7804938458319589 0.8947876088812331 -1.3910141185538367
Ni 3.1674644329086945 8.5422625784811 8.08619252704289 0.2929563792929213 -0.3948872499014683 -1.2444527537201084
Ni 6.057262237974185 8.198801922163208 3.2748297719781823 -0.7146800326609434 0.5283773833735351 0.7559048436386852
Ni 3.4815802066247152 8.403761281985094 3.574648784384419 0.31479173000045785 0.9553376025501481 -0.39236011260424036
Ni 3.4777142502992984 4.193789421812644 9.085566797356377 -0.19001377959040824 1.5281300217039488 0.08714702743115314
Ni 7.403133532185389 6.077192379877689 11.355045075723584 -0.30147598672815823 -0.10356300689533131 -0.37427085920269737
Ni 7.987420526657217 9.211073022778288 2.094405944669536 1.9100810231597234 -1.7321707117010683 0.1356511456791277
Ni 4.739034805581671 0.34080906509704895 1.5139394246840028 -0.5770568508571093 -0.31959866447079793 -0.11285111706547661
Ni 6.248777166151443 5.649954175896046 0.25075229472404065 -0.19194724916769523 0.5348079694902274 0.8772745396981343
Ni 8.25189742115488 8.938509457284635 10.971936990605776 -2.363413304571962 0.39098714351611374 0.02703000753459861
Ni 0.25459823904024403 4.916222954435324 5.698078509871623 -0.378231129402026 1.345908741574766 -0.29649678834601195
Ni 7.421926628110829 6.235450987288535 2.3606620887136733 0.05638583498889645 0.5907217499387116 -0.617545040779143
P 8.63987570160593 1.6252571355732408 3.4448827299102898 0.527295463163266 1.2488179726673396 0.1639268526953693
P 1.986155529010723 3.467217041829812 1.3836539676070936 0.21357845428422573 0.019379947188508558 0.773065671688688
P 4.922735953797674 1.151454624697926 7.8814714920580045 -0.26501825812175644 -0.031293667906959005 0.9712923261071917
P 8.740463337009377 1.4114379134902806 12.316355594875406 0.08363130096841082 1.3147408006123937 0.6673115706793088
P 6.324777319325235 7.963633524796119 1.1621164774250357 0.5059529929317479 -1.2808243503706072 -0.4872785564506963
P 1.9983992401025148 3.476695457102953 5.712882848506015 -0.50817236918057 -1.2840762816490012 -0.3852584685624526
P 7.076337421721999 4.367302638065196 5.957118505320575 0.273051155728562 0.0009464230736693378 -1.7815369208390222
P 2.464606283844363 8.834219600176613 10.049567112473905 -0.03273091457411783 0.07506952744132878 1.683634454663578
