# total energy = -340868.90023799666 ev
CRYSTAL
PRIMVEC
9.20410424164283 0.00000000000000 0.00000000000000
0.00000000000000 9.20410424164283 0.00000000000000
0.00000000000000 0.00000000000000 13.47113692275964
PRIMCOORD
 96 1
Ni 8.219541058270007 2.1518090824841587 0.7068641477059747 -2.8892218987770564 -1.155985979036267 -2.7833577545523744
Ni 4.662338917020337 3.886478964379474 12.673901278477262 -0.18050352610712783 -1.2196657765834156 -1.0273644865104112
Ni 3.4010453115859303 5.77642208194774 6.572608378018369 0.42615314989428543 0.42642542971906555 -0.5273677111620982
Ni 9.096738196729435 4.7184563395394825 5.8713541317434945 1.3907138137045982 1.2953436270327046 1.0548837749766027
Ni 8.74877704233608 2.172223785313003 5.569843329363813 1.0169751728562872 -1.2366877650627088 -0.8218315282384814
Ni 7.772608172804261 4.5546140829766975 8.058110276973748 0.3815995316536267 2.483551956437787 -0.18935094919542872
Ni 8.704100321176833 3.943526001409761 3.8465211873772818 -1.028275428360455 -0.6863783575027727 -1.229118180245567
Ni 1.1249716200430575 5.372048973704977 2.9956441049184686 -0.7443621331064083 -0.4639126280312462 -0.077189401997809
Ni 6.605288469931847 8.027865590997381 2.6832080310068496 -1.8297178514196228 -2.0246192981196356 0.24634150764785964
Ni 3.6023482717165227 2.2978782140863947 10.914247776492399 2.3802152066206492 -1.1290639578344426 -0.05293464321550239
Ni 4.229479106678713 1.640337019274564 3.66525372098782 -0.6288419538492008 0.2632866201426304 0.6254925777609938
Ni 1.4718558942601385 7.516844528887251 5.210608988304648 -0.6287496512457107 -0.7846019544630617 0.9622937221530072
Ni 0.03817126040206642 4.8309304912836115 10.09304748678879 0.7056456903728171 -1.7685950159663735 -1.9431364109527953
Ni 0.0772003433035234 4.00871867054263 1.3308867567234852 1.4814958667851776 1.2131107490737174 0.6940225043115918
Ni 5.103510033337816 3.721688685097405 7.8653652928081055 0.21379211295692857 0.9543857801598402 0.3173540914109954
Ni 3.8601092062168774 0.8909766026636944 5.861237900959372 -2.6495657735691727 0.2792549705464287 0.11279378146497995
Ni 6.624322557150084 4.243128793015583 10.028654654299666 -0.7498632654302956 0.10312977601265465 1.4581006277896889
Ni 6.732305106107705 2.60641819074488 4.092598432170272 -0.6018841943134344 -0.457921700555134 -0.31781226199433654
Ni 1.9451401296803394 3.4397485692032843 6.706282342668573 -0.6999257571699041 -0.18241925507260195 -0.5714608448265707
Ni 7.867005464153507 5.795603434831109 2.3646696360963477 -0.8662810168011081 -1.2088182923459505 1.6432064285555186
Ni 3.358715636964715 6.901375293782656 8.6711008468521 -0.9031573210021673 2.6094948736902155 -0.24950884963224773
Ni 6.745098810765998 7.284781452952331 5.053440627603537 -0.33943806779422836 0.4514049824825387 -2.178716309208777
Ni 7.532592750952244 2.4493501547781404 8.897860518021474 -1.8968843219637912 -0.16163651399929582 0.14124355216524062
Ni 4.373983540588928 3.640821426732109 5.532690042871968 -0.5172198240948189 -0.39431749344092737 -0.06417602045727656
P 5.897502070997986 6.087410350289034 8.995836365033414 0.12615194793944082 -0.8913307606808842 -0.6603343680305273
P 3.4967587898172883 8.14303654523423 10.641766718351752 -1.55352943561366 0.5398604443124703 -1.3506400856121643
P 5.8453700255414605 2.1792004961986047 10.903969553476632 -2.6119343363696435 -0.40369122134634344 -1.3727813975958938
P 6.712626731604517 3.389871529244083 2.0362837702405883 0.3680107372255985 0.6123889504995003 0.2843958913174199
P 8.741238881102165 6.405688269054337 4.464011643735806 -1.1924010273301915 -0.7831425963087157 0.4859161288855309
P 1.1280641990108176 0.552156044022966 4.856358669599774 -1.0023049724386222 0.13131703708014802 -0.208510295732699
P 2.813280429734185 8.22705160719171 6.820773113614596 1.2702784565339607 -0.374859898936948 -0.09166085614110664
P 7.1515336383206 7.560131430331821 11.89009634320256 0.13030839330997557 0.43987049948037793 0.16293106444100325
Ni 1.5476793035946832 1.0406804349634557 7.127161170741348 2.0412921307896266 0.8581499030535413 -2.4671827710511445
Ni 5.4353087809829965 8.210649893737695 0.229575206604606 0.81379503108725 -0.9803621496189437 0.3350476520360165
Ni 5.182352388807555 9.0997663469687 11.243630446819017 2.328299234477648 0.435015999601554 0.4367939174375832
Ni 8.593531418975342 8.838406607776696 6.3765489959768615 -0.26272200588841205 0.5538788700787493 -1.4512314114736813
Ni 8.12218004540999 0.12216423250977698 12.634228828701263 -1.3770995653552736 -0.9657996784237367 0.9670425496919024
Ni 7.204834604994106 7.515859689751685 9.6547903898201 0.3947720644798427 1.03432394854738 0.5246973634187866
Ni 0.5115134816779128 6.8878912813190585 10.687757785572298 0.005489562359661513 2.01662291017772 -0.7138899326594802
Ni 3.4839098605345713 6.646900224435546 12.183955773868256 -1.011543974538387 -0.01661446862822945 -0.1813890140358747
Ni 1.217058681270554 8.118774526903827 12.518443960722896 0.047157888632725235 -0.25097334999291615 0.3553601383411235
Ni 7.521446580922609 2.624642316804895 11.902328597512538 1.0266386640879805 0.6641511706734562 0.2896517403997205
Ni 5.670989069817708 1.6228400174361364 6.972363787248854 1.8910546026558919 0.1258498433179897 -0.3385165844212234
Ni 4.830102121917248 1.0876489780363108 9.041476755888866 1.0833093773071474 0.3349201253192167 0.7734644497890034
Ni 7.825522567106797 0.16720359536941043 4.01716067479629 0.5160018925273178 1.1576402268102386 0.9109855587973342
Ni 9.085555210283516 0.7032635021935113 8.401300944227252 -1.9877604774200734 1.1843514175528378 2.512798254897414
Ni 2.98253469949055 6.395250815038146 3.4483682126655077 2.003272457012743 0.03426586316140551 0.46926103682735315
Ni 6.873127898389634 4.738539694621781 0.27901781285166916 -1.5066967915308376 -0.5366056848205984 1.2281938686590848
Ni 5.771774009392028 5.989009273669028 11.660670243083898 0.020105769610939565 0.015252298173380184 -0.3344632402874562
Ni 1.4318824702810264 5.2771270484237 7.800084264276157 -1.0062732130577507 2.1595263665438873 1.4297878968879245
Ni 7.78342299508735 7.0785358889357655 0.5678582455676047 0.5234593772466274 1.272762656408395 -1.5028077408890763
Ni 5.714027460452367 5.057701207377871 4.023693747865683 1.316458811744765 -0.5493280174832733 1.0363162963870605
Ni 2.3156605431510147 3.4903435292800005 9.200476733300048 0.05640177582849641 0.2141492391860312 -0.09156675376540357
Ni 2.529554717650345 0.8574368474300114 9.458111571574634 -1.5039099728143197 -1.3317959563224677 -0.12946995656908025
Ni 4.388406371667738 2.8668575195298125 1.5600385745408383 1.52035834817833 -0.1252453769647714 -2.129949424217719
Ni 5.7059370529742095 1.5419727590708403 13.211049110402522 -0.44632422552552165 -0.01635915808431376 -0.435116015514528
P 0.05094471603140375 3.4580923486162174 12.748599025883959 1.1232710053017494 0.22708780162457018 -0.03219406823404133
P 8.963784913427967 2.8926198068237423 7.533962321637966 2.0988987255595015 0.29224469793787733 -0.8962012013993081
P 2.2141208670428947 3.03549511431344 2.101806866709596 -2.205890298520407 -0.4932044350168281 0.16916907493091513
P 8.912297155256391 6.475989215946452 8.631024336907396 0.9620623228684914 -0.536712642712108 -0.0490839020108445
P 5.839810746682749 0.7349495508673524 4.971186310754784 0.4868689797171034 -0.7270771207737156 -0.6129952166249314
P 4.662817530432014 5.688301989574721 0.2084527081727237 1.4663433274144553 0.7848660067577257 0.21367487065277393
P 0.5624204608826266 0.19041542542534487 10.502623675062727 0.31726101747655683 -1.0063791425079958 -0.06079476268986949
P 3.3697973782658552 2.314077437250852 7.695467656177197 2.142190703478917 -1.3439624164816724 0.49673327410569296
Ni 2.780182471495896 5.119828909855193 1.0990859977545804 -0.2194480256911253 -0.4594144830505765 -0.03705139632634264
Ni 4.977708338899292 8.36312508177315 7.12767291892768 1.3071884421864324 -0.5136411056046251 1.0220227625825238
Ni 2.33286301365918 8.609555764162454 3.375947560605906 0.4210911619903458 1.651767173641336 0.26152361470493674
Ni 7.476548961265664 6.901596192280353 7.035260952826488 -0.664664877085081 -0.9993273778675369 2.868762345371124
Ni 5.048607552556005 6.234427504610554 2.2304158128896874 0.12058756647778587 -0.3933983240607677 -1.0045009516486763
Ni 0.4849090188615131 2.477781632252577 10.318419179064302 -0.48525072738739006 -0.0640171262819091 -0.9798859813134736
Ni 3.6552258496027767 4.001695939136676 3.228102036918022 -0.3490095135327473 2.269254621709666 2.7847682617466556
Ni 0.7410491106350148 1.3698744211566238 12.272057458033132 1.2768321984920785 -0.2052740481835884 2.000771287857445
Ni 2.145936864087043 3.351858579432033 12.15126187579867 -0.4554120467594028 -0.37836559809736126 0.7320997707992875
Ni 0.6264644578274711 9.103447988596987 1.287385399654068 0.9313386685323897 1.2681320996149192 -1.9096930436926856
Ni 4.320130327671179 7.86808234432978 4.910687734697979 -0.0454740731723991 -0.047747956808240344 -1.0121006183728054
Ni 8.219126873586825 5.140667001471289 12.007901512024445 -1.509467412297439 1.586626732388261 -0.09102862187374645
Ni 2.966970559506972 0.8814153793550363 1.6655709909948346 -0.08054546295423547 0.7008400414540575 -0.3356626599121961
Ni 4.203413083950451 5.1508467405735 9.595140432158615 -0.9400318254310133 -2.0361625228725453 1.9498274498197259
Ni 1.0226772074011385 8.116427480365795 7.911504546104189 1.1330939049294422 -2.750303652310883 0.8966033219337333
Ni 0.20006868977471004 7.638660846263155 2.8608251497218666 -0.3410606909993158 -0.31971462122337196 1.051189613954467
Ni 1.3093298245794651 5.414452281158758 12.49795470465108 -1.1483415751171322 2.0264920896623164 2.175135276725738
Ni 5.95952852833053 1.2450851781658794 2.2591501053880503 1.15524395866392 -0.9752330559224944 -1.2757862737260675
Ni 9.013836831364511 1.7912014890976427 2.5681778995622833 1.9598637510098054 -0.19065578404978134 3.8584964231232712
Ni 7.046441178041184 3.644797599690657 6.085949658973012 -1.927585350592074 0.38488205905964035 0.19464279372198737
Ni 1.914067074337608 2.618935772281052 4.507253445070429 -0.12165508851035176 -0.5361081763588896 -1.2790371765631972
Ni 3.452892029816264 9.134373778274584 12.874122756379546 -0.6373564190781152 0.04169223753246368 -1.1158073499348524
Ni 7.536614944431146 0.7746726232157413 10.313691030803176 -0.4032453920581765 -2.0560590046861558 0.8240755870776518
Ni 2.6750992153205506 7.696665110116797 1.1615717398802528 -0.2310285314398731 -0.8357645933798058 -0.3974043598963672
P 3.3787713797348014 1.9696322506125101 13.279523042636601 0.6931434441407481 0.4258698143259117 -0.9520815575066959
P 2.25477539472324 4.849706863587869 4.948649141527234 0.18219865442136363 -0.25533548361635383 -0.2784072778341528
P 5.591842978913635 5.68751043662464 6.204481952016486 0.4487850283611884 -0.5676540694859707 -0.6634256053613413
P 6.992265821480959 0.13189573174374325 8.091384033599788 -0.49250175252284856 -0.3328840687257944 -0.0855521721402075
P 2.352164019895468 5.021970875375358 10.790744346840334 0.6871414609210423 0.5469371486535936 -1.8253834857103273
P 0.7616828711407421 6.6015792159913484 0.9220441355439836 -0.11621874798612888 -0.43739735534953705 -0.06406957678639934
P 4.410146465482765 8.274010946160494 2.3250238782221526 -0.2249548144419674 1.174108656778907 0.80333372654461
P 7.740752768615518 0.024816105395459944 1.5507571559959301 0.8229234757510795 1.3180392688580074 -1.3102233723580146
