# total energy = -340869.3205848965 ev
CRYSTAL
PRIMVEC
9.26430068831199 0.00000000000000 0.00000000000000

0.00000000000000 9.26430068831199 0.00000000000000

0.00000000000000 0.00000000000000 13.55924050721037

PRIMCOORD
 96 1
Ni 6.38792056629535 6.351428486137215 11.743901803238456 1.3957632032030478 0.12328053992891672 0.25846734437711616
Ni 2.7990231475443994 5.713748145582566 1.204415593360381 -0.7085027002056379 -1.7318372396210495 0.16690496148708675
Ni 3.7825954161986 1.811791480143698 7.822516046530829 -1.079186356277709 -1.4590897311758353 -0.758023946864217
Ni 2.955654678195222 3.5750658179192434 11.482886618166269 0.26980230977396114 -0.6623814803675432 0.10707153426922206
Ni 6.051218824414856 2.5989883684698993 7.821864766196959 -0.4341410531957684 -0.27337691449909696 -0.4401708043296161
Ni 8.2035845240999 8.18267499759142 5.972533413494545 0.7749636600423493 0.9111696497836824 -0.24104863468003648
Ni 8.244764340373806 4.465772737117962 1.6285593631110387 1.5475127971059348 0.18174305494118378 0.08125714430927941
Ni 2.0522464028409306 4.501810866545519 5.326042723046424 0.9972108457451665 -0.5493807250980796 0.6274458448326227
Ni 4.337721573892335 5.459100314329287 10.76548141216129 -2.6340473662185993 0.5011936238698916 0.43167613659504367
Ni 0.819155019758926 9.356295129247394 12.238081832846811 0.5260083689207263 0.5044509544649248 -0.9605116905519201
Ni 6.044928364291126 5.28905407637484 9.438166533152316 2.0411406928134266 -0.23585320652202604 -1.2122962235922219
Ni 7.954587916227294 8.936261003253565 8.20186229061389 -1.4101161294906102 -0.37179642952027586 0.7478074113425315
Ni 2.935115723711702 1.722372450520362 4.050117846029122 0.29672073143135996 0.6293404907521742 0.533775671570971
Ni 8.231655354990774 1.9305320212421544 7.792793390838687 0.9261306419688887 -0.5467054922587617 0.03940061328480956
Ni 5.255934201643859 1.2134936815418882 4.983549866845836 0.06519906240515223 1.4211186512487008 0.5849282831853861
Ni 0.9363706569746634 0.29238410698522327 6.34964325540696 -0.5359153436217933 0.5111787601070615 -0.9779280862561547
Ni 5.682416280872027 8.62547151021854 13.399987256363673 -0.5993840535994 0.16297117365031932 -0.5072521713591457
Ni 0.7432109153932714 7.92335795882362 8.020480254415855 0.740966477161298 -1.2844904863682847 1.0566547508340964
Ni 8.639460604160856 5.8779764027451105 9.53209171859919 0.23978288059373543 -0.7753642379148775 -0.20150686783167232
Ni 2.5503415258930096 2.9079805871838578 1.881940764469009 -0.4190306799168912 -1.3761246030365137 -0.6187539734855795
Ni 2.399324161420361 6.471178836003692 12.481375337255253 -0.4006735175659422 -0.8844949687059735 -1.5450206268117004
Ni 7.693390224432813 7.34281056021749 0.2860575160890591 -1.2692230186862528 -1.1586941219960496 1.0342892386547025
Ni 8.707330870532651 4.112978905053492 11.916145533300929 -2.4585477210839657 0.04744045287015056 -0.4969988690622537
Ni 1.3301960765030532 1.9796976646539906 7.910908591645021 1.5406212121924243 -1.0189991452648517 -0.3333201278219485
P 0.7166510919341809 5.876067956816556 0.9419347959294683 -1.0611274418934693 0.7315094455134563 -0.4546260605229977
P 6.096493461564591 9.420589375578304 3.315329106333174 -0.7128756324623529 -0.4033811463050924 -0.2421045867483766
P 5.011365929469548 2.830067818935593 2.5408928656865406 -1.0443000859234854 -0.210010020206677 -0.16758861781767267
P 4.752493577131702 0.9922714469401845 10.649182940707332 0.31673059889438354 2.24444527597547 -1.006597172056073
P 7.053514244630263 4.876672262696477 13.314916889453267 -0.3459995230618299 0.3163963554834164 0.01255315407466225
P 3.3633394914571917 3.7538668199634193 13.587172450472615 1.0661590907801057 0.15685040546456214 0.6028396162481682
P 7.543947791066253 0.35283088926696604 13.497166064189715 1.259773700347895 1.0231869580939539 0.6661507176019882
P 2.3500380821004123 0.19628273732175947 0.4636532326220462 -1.8266171010071122 2.1943383320167498 1.335695805597506
Ni 7.398627971477396 3.032539109074218 5.617905249906514 0.19873110485874806 0.8861484451489964 0.12218576420284118
Ni 2.9911276852847117 9.028931802395942 2.583252027429887 -0.10243557815910745 -0.9744375566043928 0.13036315780731098
Ni 5.103731006691333 0.08965526928924941 8.594809454443121 -0.09405095363983801 -0.104300142171672 -0.6156668499198236
Ni 1.1755563704864012 4.572756880724498 3.1182051705147513 -1.4902615287929497 -0.4334550828723374 -1.0954311002713457
Ni 8.111071218068133 1.7609026768157883 11.789773061348379 1.362770293216795 0.15496861506081697 1.6428125355512095
Ni 8.026080524143092 4.245087831952453 7.6776214583406155 -0.5403314704116178 1.3065420668516852 1.260855106337532
Ni 7.807341122108634 1.0666915738531828 4.577219494335102 0.15267621948221446 -2.2619676011299497 0.9212609725814134
Ni 5.878708282494411 3.8881621218096565 11.583035560772379 1.6542207773881512 -0.02147771025780172 -0.23382666301030056
Ni 1.133579824358828 5.161744057199137 10.870253240778801 1.9960571702112269 1.1900314986567504 -0.17543485333496883
Ni 0.3704766026655952 0.29723582122203857 9.70315517676216 -0.18415860636121184 1.377370302518157 0.9275799728209057
Ni 7.795668103322331 8.4350901323943 11.670424782128986 0.8374823474018609 1.276429563737021 -0.5983484132460339
Ni 3.5420756433969993 4.555349259851907 3.1474655376057528 1.2639355450350682 -0.4852247592454611 0.6919401678612663
Ni 4.585801016003161 3.084400663967653 9.61455881703424 -0.2516814318035343 0.38724798818865563 0.8725408816678908
Ni 4.897331653088109 2.3081449146784556 12.829305411492097 -1.0648097758410628 -0.7952290951596046 -0.2824737345940425
Ni 7.888190673654724 -0.07550312365594976 2.3075658958894527 0.41418337912691894 -0.08335670715078547 -1.1436714233349723
Ni 0.41527876048350376 8.28747276625068 0.8009525218927914 1.5164788106182658 0.18153376714385508 0.3541830873138868
Ni 7.059693533146506 1.1132539487896609 10.014448647751133 -1.3527391342330382 0.6969206517949932 -1.6680977924805593
Ni 3.450090402500801 7.775675742575629 0.36826799339682154 1.8947019696004914 0.3047657132230235 1.1897967569381251
Ni 5.796404235750345 8.386656368731765 10.635909050773193 -2.0891316188704083 -0.034362022419637595 0.636218191708614
Ni 7.203670029144875 2.428617879993609 2.8688370641871193 -0.3495131926420432 1.0323362286933897 -0.48667254743558114
Ni 2.356930721764706 6.590373327832728 3.6615777100067524 -0.469064861656147 0.7552260724041058 0.21102637728633336
Ni 5.166580022124892 8.196775263141223 5.307276955702347 0.39717141794995464 1.389265511293846 0.004127134794496118
Ni 3.443781413775823 0.3674147513093464 12.18532349365297 0.047652054660324385 -1.0347690065045987 0.467553310107627
Ni 5.844004212356716 4.715769889457966 1.7844228832401279 0.13437587851112986 -0.5268270081672798 1.1793141122392465
P 2.63098726282537 4.402108463229486 9.438370347766044 1.143269045690231 0.0283366421611641 -0.51282323768902
P 1.1117068105854444 2.454576450342199 11.782261566402399 -1.29657389989538 -2.2632804064041023 -1.8224999935149453
P 7.621740123406405 4.834603073562663 3.7046011221048434 -1.6919090359675442 0.3014453906005389 -0.5499191141000529
P 0.7557223533860516 7.786635410213881 4.758981366858726 0.5045645972246536 0.33492912418028126 -0.5994267339118773
P 0.36682832107984403 3.3239662138049764 6.60020460365497 0.38172602992916194 0.3315380962208613 -0.3767123787646544
P 0.8160792719517412 7.522000662887877 10.246541612705098 0.21558082942623516 -0.6121827480259651 1.120330948836819
P 7.215000268808089 7.32115062535846 9.579535128525015 -1.2051693827394534 0.6021950406856338 -0.9322187571444976
P 2.6693692603108112 9.103592801125167 7.808807660897422 0.05876307697182138 0.01778354923566615 -0.37210676167184303
Ni 4.800899547892366 6.4126191917590685 4.110496998916308 -0.8012796722290587 -0.7841396701146625 -0.7569371415579417
Ni 1.203580879874154 3.7673834345739095 13.351363574538343 0.6150628977872376 1.5453003628356483 2.1472169530489147
Ni 9.032804280056796 5.110392038840024 5.181121268384401 0.7718785933591223 0.4125710403344765 0.8699525521154244
Ni 0.5720159041614409 2.424921424044613 4.683443038860404 0.5382136527376666 0.7845351057808682 0.2571524822204345
Ni 2.1409242884143427 6.875750844255981 6.472896437339392 0.897594739312725 -0.9204850136473373 -0.49034228297768456
Ni 0.8490184928205531 0.5391758113093065 3.4234231131544717 -0.2911959449583888 -1.6104472318466265 -0.21782540248603774
Ni 1.198263171315949 5.2388971527962305 8.037606240549474 -0.11480284147520875 -0.5186323881716294 -0.9994502765986464
Ni 5.522699738113395 4.178996311300476 4.509776312222077 0.3067205229565492 -1.064418453939915 0.08251441375514822
Ni 2.7891937245822813 8.693128697675983 5.1804570180296565 0.7408757172197048 0.8727236871026584 -0.8833711395141755
Ni 3.5452347699098006 3.9640274796200066 7.295928566909483 -0.9689276825297571 2.9267309514661077 2.158929613500153
Ni 6.954191677639817 2.7375267200019513 0.31112671357773997 0.3354621138656158 -0.5325453987082958 0.32206280974057433
Ni 6.12855720602443 7.5697673969054815 7.366071366224356 0.5596165438934749 -0.9432235928954337 0.8306807510989951
Ni 4.459213612276134 1.0369346402487323 1.2685467880003087 0.24776204214447006 0.6267858426511206 0.32077802949087975
Ni 2.566869038206316 1.3626396572884782 10.090488174413215 0.12046878151173446 0.3958712110812924 -0.05872631019661499
Ni 9.298393250347077 6.843881650109247 12.263221439020235 0.8252786062468173 -1.2501521180977309 -0.24309394724483943
Ni 0.6434501469833076 3.2261722564174993 9.605772554322389 -1.0734659088541643 -0.23021194907584866 1.2792927442174291
Ni 0.42069837634857327 1.5253578334493025 0.6797541618387746 -0.14725144892221737 -0.49257914272800324 -1.044535341862743
Ni 9.101323047472274 6.987848881806992 2.691631374710405 0.8114553272104799 -0.4838834147262183 1.1370595744454095
Ni 5.6547901364111075 4.962385572070192 7.072852545752907 1.889791676783068 -1.0423468188518563 0.01270279227864909
Ni 6.923165534849872 6.512108516160748 5.2832768585056815 -0.30998042465474357 -2.27196533577261 -0.8585710497513601
Ni 6.775928005031836 6.776122555344942 2.608770543498834 -0.7078817787921874 0.6285930710631884 0.4085804311178447
Ni 4.121631761836355 6.62615205684281 8.456477696814984 1.0732892740669837 -1.570159073750541 -2.6318449592506417
Ni 4.837336042246758 5.44263765212035 13.407566380704209 -0.9745283165459862 0.378635049708664 -0.8294661619656037
Ni 3.082714561254076 7.489047545568129 9.988441903039298 -2.3436487203505245 2.185194974954585 2.8249047247562253
P 6.642966762475462 0.5515594019534749 6.637831560639551 -0.1333165840086801 0.48883433097359036 0.20642281707605095
P 4.388925363441462 7.3635533293147395 11.95577913780068 -0.5724635750594721 -0.6328024811588457 -0.0193596354735344
P 0.23249966775136036 2.4973311977221924 2.488880302692934 -0.23807952474938354 1.2676500177721781 0.7542205139577269
P 3.911443309277896 2.781587733769936 5.745348675011203 -0.040942503850632715 -0.6932462882671996 -1.771387748220162
P 4.378512289540029 6.304903168403233 6.298890637298224 -1.4429419177713794 1.4514939211064486 -1.1437279876045205
P 7.317732098428185 3.470379220867472 9.935709503887201 0.4101436618399065 -0.5030409614912756 -0.6681901166295202
P 4.5145770728054595 6.704314961207925 1.9827270909580554 0.9177421607948775 -0.030795388114301804 0.5599993811541905
P 8.519126603355064 6.314176733327908 7.081937118944851 0.04204242178303082 -0.03262447090324059 0.05443128236568691
