# total energy = -340869.3223530922 ev
CRYSTAL
PRIMVEC
9.23845914159095 0.00000000000000 0.00000000000000
0.00000000000000 9.23845914159095 0.00000000000000
0.00000000000000 0.00000000000000 13.52141879147800
PRIMCOORD
 96 1
Ni 8.628536229562062 6.5404411786208465 0.8786911137572279 0.1540651294099411 1.9744478194715671 0.21662803974382694
Ni 4.307172978028313 4.1826108311052685 12.767884279548447 -0.44447405969066034 -0.15213474515644768 -0.8975579725375188
Ni 0.8124328835612717 7.40145634817368 12.658279198253853 0.11275778602072194 0.7998144005374419 -0.6520055364498577
Ni 4.07979601740605 0.13442512608606796 5.913294835049828 -1.9882209619962596 0.3052138565040356 0.929348120464922
Ni 6.019669227122513 9.063076401828793 10.848166616516103 -0.6247595562497111 -0.6212176045347236 1.1603375711367436
Ni 0.8519614794256662 2.5423500953828166 10.350537929443856 -0.24138262098068755 0.0017185253530034921 0.008837910006604135
Ni 2.084667582535931 4.9812109695365345 6.789415809426059 -0.9239827423879505 0.022549088945109548 -0.5338872574481709
Ni 6.853643426264921 1.1746331478660121 7.523412325724403 0.9857216141586442 1.214861670326553 0.11713688892502407
Ni 5.075184577672795 6.433395150556074 6.792132840310139 -0.41295310626424364 -1.8131429777800774 -2.305764286599926
Ni 2.9269471566011176 2.1467962214187817 8.946960978256023 0.7018553700924492 1.4485484653248795 1.6468741072150928
Ni 7.062598899016195 2.4978669137886267 4.520535195872095 -0.7488425374752651 0.2900741726491198 0.8728381011933354
Ni 2.3632256077546248 0.7949638808454974 11.708223757838132 0.2144595713375984 0.06228703096467983 0.6175527540886268
Ni 0.456726332307945 2.8318279795099905 12.790667244061307 0.6030206219107227 0.6821548063397284 0.9285109692756073
Ni 4.756540877493107 2.2085645603884085 7.220424118697263 -0.6941762562806367 -0.20683085114774702 0.2354616275105622
Ni 7.495171279449165 6.464805912221754 8.182134799382812 -2.1764151718794262 0.09453560658574041 -0.7479009994976022
Ni 4.670974267332071 6.343625041407426 4.040308070762634 0.7317002213680237 -0.9058212409875754 -0.22169542696440528
Ni 8.27462009172368 4.592669086191396 9.442006592104233 -0.5454909031253702 -1.3159260791697465 -0.22257551557651342
Ni 6.5501877531965205 7.869984812254537 3.9416967560510283 -1.255414652048251 -0.7206524481942944 2.2725646599195053
Ni 5.417016810729205 8.941756954124763 1.0642030721547289 0.059405852762142844 -1.0946039763843598 0.6165785631008156
Ni 5.720426291501039 3.893363908460931 2.8405934297065776 -1.1274757874117163 -0.1475414693588104 1.1122360876438264
Ni 5.177380414598014 7.286973360361593 8.804931676309065 -0.7916930569818882 1.207778024006894 1.1987071720538773
Ni 2.7162918073361717 6.731298509577101 0.6752907265911225 -0.19809835637075562 0.6364591040748265 -2.722181954374002
Ni 8.336443861449187 4.7341930444139075 6.657892483410341 2.969200176373912 0.11300615458610215 0.9165437696114022
Ni 7.465866886506949 0.7205813495293065 0.15538257103859535 1.1757397646244268 1.657251850904991 2.0370248708728407
P 2.33674818336232 7.152073377466814 11.009153236974228 0.6819632591542126 -0.7709697083916077 0.7417110686368065
P 9.180358642812852 0.9372509358072987 8.843562293928194 0.10063940549063313 1.2319114267199882 0.2390395746698077
P 5.769205356675975 4.916892815796399 9.026926310535321 1.1743557397927067 2.174729813757203 -1.0539514929703204
P 3.6922241722888227 2.6319077199672556 2.423971249278254 0.18610261746146015 -0.3321291928376409 1.3286504687149505
P 0.271128456238829 5.9541315967530055 8.177199614417576 2.5127087805074018 -0.7115332595018455 -0.568502276418879
P 3.1883216474968217 7.636667522293736 6.742996246759772 0.011892637672527904 -0.5121714630376341 -0.6531640755343332
P 8.032858849950397 2.569428019630495 6.521529128560314 1.4352689746071539 0.7772953934993194 -0.38897062730671716
P 7.202321357672587 7.687201894738226 1.9939228159297155 0.5229248448993962 0.24967108624172482 -0.7885560540148032
Ni 6.991342662331671 5.19794522502972 5.048222134166535 -2.289636013579495 0.8886120761981405 -0.5159139607992018
Ni 3.379280601505524 9.013973990577886 9.594704466866343 1.6306126510509078 0.16652752354300998 0.29331581951486907
Ni 0.02972659053283994 1.4167639280118312 1.7499147808514064 -0.3270525496456819 0.2552624642865733 -1.1192827100779628
Ni 6.435316750093269 8.295877786603894 6.806114324635092 -1.003280191867698 0.4680312781853101 -0.7272128750206315
Ni 3.9460046496288834 5.744945162518896 10.464713276560804 -0.09000815102903209 0.26623824657178663 0.6289072598694975
Ni 0.5760114712711556 3.1571233703953516 7.9087595498389565 -0.6646283674201908 -1.5556279700139013 1.3808790870023637
Ni 1.8419455409940522 0.5188346465803061 7.784510586686637 -0.21714020349355506 -0.9429230309358793 -0.5110334927784489
Ni 3.855430794519966 4.759700430578302 8.23043346467345 2.0511086026594154 -0.7238511576372502 -1.4658591886891852
Ni 6.987933670845013 7.965880019927994 13.196337230973555 -0.34183279327865 -3.1712919701747766 -1.9013552132509515
Ni 2.3226872482872714 1.5453448047362202 4.603123326750479 -0.2469259193964199 -1.0924887298135701 -1.2887186655170193
Ni 5.003540325697107 1.8888491989283618 10.716968484268218 -3.009564439123572 0.4347984842741093 -1.2467927147071947
Ni 1.416228097371652 6.010938883071317 2.2921781602505837 -0.9857869201789411 -1.3848108179566023 2.044824569422917
Ni 0.9970330060245368 2.9371464156831495 5.7483883363050134 -1.5186570492165072 1.3408210426392133 -1.733243633050273
Ni 8.190882696506705 0.414162902559087 5.679644960553743 0.40627955089881 -0.046241804576359076 -1.6287925671230337
Ni 6.375396102986329 6.601572063897846 10.720565016478938 0.06347333796329714 0.3334317136991483 0.08944379388512984
Ni 1.9076587020905158 4.545395889884549 9.16400656982807 -1.776979897595959 0.9968413782208898 1.7176938582411323
Ni 1.6314472455374347 3.1311540612652857 1.9584425129364682 1.7076632134780076 1.0055754156597778 -0.5595797771182686
Ni 1.4512233812509439 8.443480651054646 2.251626866940192 -0.31053372605505225 0.28085136849927117 0.4088725084369668
Ni 3.7007327933164964 4.790094961719504 1.5999893677292572 -0.0183893011404651 -0.9816145339688063 1.060936666038902
Ni 3.0662261692104646 2.3064829906515065 13.558332401481536 -0.46738978794656927 0.47075510487437633 -0.02187700257874942
Ni 1.178799693016371 8.593494753386203 10.14063181922923 -1.8097295812231542 2.0111287198323686 -0.5786527345893195
Ni 9.21357090404465 8.257639803505585 7.617710203782567 0.387578632055197 -1.0853197228689566 -0.8280823942441996
Ni 6.385004100672302 3.8501279188740547 7.289532413591414 -1.1650845989034257 0.13834000536520047 -0.11232069848330334
Ni 2.442722550146733 6.9496402569908255 8.54234602339737 -0.6692224145487765 -0.4748724694768595 0.9111117999625535
P 8.114933322490954 8.33722913049083 11.027771504028594 -0.8681111280313114 0.8491117041106733 2.279437990000571
P 7.234905403671072 2.602751142374055 2.1216592974728563 0.9448212763998568 0.8041791052640409 -0.7795121986449801
P 7.93983680312342 7.193609490540018 5.917310793313378 -0.7472553954938034 -0.04574609588686315 -0.9554594728399932
P 0.2965831831851366 4.785050762934367 4.093203793407638 1.4872044871341807 2.1729770927321543 0.49501526297332166
P 4.703872420947214 0.667177511622064 12.538316880222967 -0.7083952280934961 0.7979349241265419 0.9829828750712425
P 4.03985815779407 4.616679841947014 5.791629868967476 1.390892762484624 0.22617608844357823 0.35673542142209524
P 0.5442533435352912 0.0021276171798840903 0.34086311867443075 0.7053489850680046 -0.47278987591621807 -1.8247203982050315
P 0.5053825259740133 0.7281735153930874 3.7078297777610776 -0.08364235671200435 -1.5208376018075938 1.3537356938183525
Ni 1.625081947070478 8.594141445538144 5.541659332248276 -0.9683448134430936 1.2458228945947576 -0.40096456644379974
Ni 0.5748982369238866 6.350840278131219 5.604871642408594 -0.4820157653898602 -0.6714461616729726 1.211840624112042
Ni 7.43684888580345 8.740358541091881 9.04831703922965 -0.14848763532216364 -0.2565403025577324 0.027448326018939827
Ni 6.326284453276108 2.2922557633088165 12.536356479156655 0.7778209269854861 0.9178457762522773 -0.6864755452022693
Ni 2.5683286429721957 6.678399091548372 4.766056490585946 0.7948657982829149 0.30156468978722256 -0.5112085849037326
Ni 9.173041783036611 2.8995920785740363 3.4733687665372717 -1.122274445716435 -0.7413703974679361 0.2483701080421142
Ni 5.880436406809734 4.166628296493026 10.880767291741353 0.6518479278260709 -0.5765827394341684 1.8357167493155355
Ni 9.075973291030348 4.450359858927243 1.013038636785063 0.8264052636520929 -1.8632108409707462 0.01415957932983368
Ni 2.7502339068537323 4.424538365146192 4.131915709468725 -0.7340119002203359 -1.1709150895422737 -0.9732795317405496
Ni 5.749037799994747 6.000582570180957 1.8351266341748058 -0.43886082726894093 1.8951007477008073 -1.056258543836942
Ni 4.097912636119696 7.853835985374653 12.293390542288902 0.2735964867090707 -1.066379434321028 -0.4249879259415906
Ni 7.260200305271257 0.6722669788578353 2.972102898033325 0.1355200194179021 -1.1472077186230047 -0.27278427522042054
Ni 7.230711143142773 1.9642627423039323 9.976413585703265 1.1736036921180304 0.1637985546476211 -0.5130006438071487
Ni 8.993178218663344 6.723067042328831 10.219474678701948 0.6109352487721091 -1.3373022308526774 -0.34325692731968627
Ni 3.1367063753126603 0.09339435673730889 0.8003693033897883 -0.5717680916543443 -0.411242294220724 -0.4407526449750151
Ni 5.299115592971147 2.022686759002095 1.0863097814458478 -0.20747157005553946 0.22741998815300837 0.439632672437959
Ni 4.381320852477943 2.3405451901401415 4.709564235730221 1.47129938586815 1.6129224328599965 -0.16853735488418714
Ni 7.7926681462604 5.36326745444364 2.9516988367936725 0.24532720745073233 -0.2584254353955872 -1.104461071684098
Ni 0.6403970657642784 5.134052040418004 11.730412689417141 1.2124108947932153 -0.976219073984848 0.13613914105913974
Ni 7.603991091702116 5.54588407969231 12.427549600746744 1.5217847962122113 -0.1979957693546203 -0.22044612793833648
Ni 8.7936644513304 1.017422285729288 11.804239065482664 0.29769157998506146 -1.2945036476299125 -0.6853458024732003
Ni 4.491267756767133 0.24661974752621715 3.2528476665715087 -1.4753432169202203 -0.04722653708713157 -1.0602918333660512
Ni 8.899047556718754 7.405401170300516 3.7496116338520187 0.20210696330951644 1.0480297281692468 -0.5935846733088035
Ni 6.767448600870573 4.174684233014341 0.5773455047960155 -0.6534746647962165 -0.6954453528010474 0.2904930053540933
P 3.7769408441930223 7.462642664206561 2.2780617944196546 0.8393618238127608 0.5962172258356442 1.1267831322200659
P 5.730265250669847 0.5581165755810319 4.885112515758183 3.7776426848999973 0.7536304457822118 -0.20990254809453526
P 2.177126083344789 4.512737936211556 13.581859985815061 -1.613231479459983 -0.2173088678609354 -0.1886390107300687
P 5.336235722492529 0.4843742694952621 8.743544885709085 -1.3615773013499584 -0.37308378087313165 1.3446658703066003
P 5.570116558471451 5.893028426853946 -0.6467226388561874 -0.3746398125063419 1.2328794470602122 -0.1313895421892963
P 2.6848256149146117 2.261112916963227 6.789915610074915 -0.12830036174101128 -0.3203422275050418 -0.3569884179731659
P 7.980689270207431 3.5951926341198144 11.294630868218684 1.4576504276261477 -0.9383680645753453 1.78706324997389
P 2.9784885211107714 3.7197824964208 10.832360536476749 0.39379016018254764 -1.4829269428047493 0.23489109971907288
