# total energy = -381172.99253094033 ev
CRYSTAL
PRIMVEC
9.17331147490592 0.00000000000000 0.00000000000000

0.00000000000000 9.17331147490592 0.00000000000000

0.00000000000000 0.00000000000000 13.42606859606297

PRIMCOORD
 96 1
Ni 6.6343680280292565 7.1541461900178405 12.794398808672776 -0.8770552245984766 0.46656060717705455 0.3769232092238799
Ni 3.824619485717736 4.926159873804128 4.865298622991777 -1.785537557357983 -1.9231494263079072 -0.672562791775919
Ni 7.463406032154036 1.231012503054217 9.201851254917987 -0.09795928755530871 -0.5204617280708843 -0.25988813598404276
Ni 5.073905224779883 8.049378808115117 1.2590993474362835 1.4828873478160656 -3.1992755998718967 -0.939367452374137
Ni 4.552512560011481 0.7880947640272958 2.196075118371954 -0.44842430258766 1.4672894933778085 1.157033189353859
Ni 2.2460669126854125 3.9397995817596807 9.629149596881302 0.4743045127885315 0.3680271922858307 1.1616573183894314
Ni 0.5711404490026373 5.577134733275342 2.6636112727977093 0.335600439215693 0.8556101673508232 -1.238499878570783
Ni 7.2871041632602696 -0.009725544586147628 7.085970140815568 -0.5320430051505805 1.0831844216935087 0.74079832701455
Ni 0.21010919017068447 6.585795344966011 6.2998467213756735 1.4608272826922326 0.3839351217653388 0.3799054317806554
Ni 5.3993284413367455 4.313373509062337 12.332340038393776 0.9363415210636198 1.0912553716271014 0.41965185844065794
Ni 2.3091976407007566 3.999187598785449 2.626850145298626 1.0185327471513943 0.4443709584538928 -0.21649922747544648
Ni 2.0994407056820323 -0.015654255646350618 2.309350834998614 -0.4400620466658937 0.2930126864521534 1.5551122067197476
Ni 6.384505376230078 5.441773352485685 8.659545275164206 -0.5586271833970121 1.7205374983375141 0.5864123239300804
Ni 2.6783958985376586 1.0828543530722603 6.887976142811385 2.1009885182089945 1.6292214271303358 -0.534293491747654
Ni 2.675882411255443 6.736687141700158 1.5320081090862245 -0.44963194974251597 -0.20908210907576896 -0.1562068583432923
Ni 1.8292958627114027 4.778808975212081 7.072382632193608 0.9455221591216232 0.6793679876232106 0.06321931297096209
Ni 2.896684013017916 8.044608686265658 8.051196958404661 -0.15208897952017678 2.0260084651576786 -3.474871376399183
Ni 6.9419399808956435 1.9247625128793315 2.926144102093952 -1.1186589604510346 0.4458272312844451 0.11743153734730745
Ni 0.44608436607006213 9.031244177647574 5.338298401597413 -0.18539325009926136 -2.4968149920952807 2.358489127797467
Ni 4.167389433846384 7.730973174663707 3.4218753459745113 -0.6849033156191431 0.06902306413693274 0.4797922753759801
Ni 5.138934828223761 3.3386449756815706 1.8156606528709482 0.30557175406408665 -0.2914790234164464 -0.6671994705814767
Ni 2.14506875583436 3.3141247147131 12.13406441973425 -0.7995781161569198 -1.1652265237979287 -0.0677583384918962
Ni 4.005985022420928 2.5109829682441345 3.862733676626041 0.4074036372009241 -0.029369454301052644 0.03562417696151284
Ni 5.3934666954486605 4.16680234192645 6.644266030866883 1.695313690773719 0.6085634061058228 -1.3608833606067272
P 4.926187393737875 0.41580418296836935 4.309472099788154 0.4900226948547367 0.9124310329946093 -0.03309009768574946
Ni 8.55046176177832 1.4208083127952038 1.1630758772755423 -0.11680418817595369 -0.8647416973384461 0.006685639550291712
P 1.0085505319556827 7.166429253780198 8.379451058812954 -0.8957258044247863 -0.6415133786692824 0.325787052669697
Ni 8.259456809027556 6.087959743484941 0.8928136159209262 -0.5343217738824282 -0.4102907289407321 0.7596247156924337
P 7.428492409540493 4.092186628227408 2.001142254331549 -2.072866048941165 0.9158927662909645 -2.8360401725477544
P 5.943736944028788 0.0034317357382360188 10.645958860954424 2.54522449374692 0.3775189338263499 -2.9424576181727455
P 2.7472599460836027 1.2229766824001276 9.1499055453085 0.04007449942338259 0.46698946718435697 -0.06559115563724834
Ni 8.891048461829715 6.959332579023672 12.244762435899952 1.6078419330132954 -0.16490052946254827 0.31225559384216545
Ni 1.1030448111312219 5.296624048593387 -0.07038314788877219 0.9597280183083601 0.6667078756570388 -0.7198047554820184
Ni 0.8581384993998565 1.7158403491842624 10.115710281506278 0.6198274090554164 0.054758840908434726 0.8787750355030608
Ni 5.301018064681639 6.364626810753581 5.412612313356365 1.6844070711635442 2.2044039437828684 0.022360112862755042
Ni 8.587237566575402 3.5204049647684683 3.4505125890315154 2.8268909019483184 -1.210471511678657 1.96781103088134
Ni 9.21275648733075 0.7363692138877839 3.453708570670653 -1.6513935923520011 0.689293988487671 -2.277044807178046
Ni 7.270142710760942 5.228925011576061 10.994406171415052 0.3456742785119273 -0.741320003845975 -0.669891158481027
Ni 6.069136108802073 3.2191534233526147 8.971057165212022 0.1833314824742262 -0.9884870927189233 0.07618718598553975
Ni 7.724359217253207 4.027973449484686 12.945227309559307 0.5196914255637631 0.02255988757838695 1.32243559815349
Ni 8.73634974092725 7.595107261755358 3.2942874291372233 0.7663347807227576 0.0641377110201734 0.29220895960393545
Ni 4.5979754905613275 8.713609102341078 6.229159019553435 0.3682007417492175 -1.1937598553509312 0.33198932482566695
Ni 7.082924601480913 0.4670105236911902 4.966396768935443 -0.8712645860586286 2.5233665173315636 -2.19963737563216
Ni 0.7400522983542414 2.128033916845041 5.150118929298493 1.2524542838683461 0.981768028827535 0.5221799963135716
Ni 4.484299817564213 2.866045153446389 10.882579837965729 -1.1633781577352802 -0.8718297145334791 -0.9978029708032107
Ni 4.051860751976979 5.89651273771914 7.651140598857382 0.3501834792361904 0.015609424402482796 -0.781511488463196
Ni 5.119735087779688 6.507620386502373 10.825546609937568 0.5041982150241704 0.5133140612825094 -0.5457896653127117
Ni 3.968291886498951 8.662871517823078 9.874551267420113 -0.7816958365598602 -0.13825078808550384 3.109358980115406
Ni 0.6462707854627464 8.546783263967487 10.335186339793275 0.9802006843404152 -1.7818644793817702 -1.001896938366926
Ni 6.529939052771092 6.932629069977949 3.051597389403607 -0.9024723791200007 -1.8905064434619054 0.8693036056775157
Ni 4.921885110762113 1.0227141245240772 8.466653472876695 0.15732708799066455 0.6416511897987272 0.5948298585698143
Ni 8.603290861261081 5.217962904633553 8.069832540206923 0.9138819065085229 1.0112809506849874 1.1334662006671963
Ni 8.615601444957187 3.4821522568603043 9.527634982606934 -1.380781642192551 0.044159982346665884 -0.91681553521555
Ni 4.226502251534684 5.450561384662189 2.637873713426502 0.6284190073791692 -0.11031318113497131 -0.0733620578319188
Ni 3.2317850729424324 8.890534756399774 0.4663839865328862 -1.267457699255714 0.7268935440079998 -1.506508329669115
Ni 3.492609831684119 4.543119089292546 0.15894963333523335 0.01594443914439835 0.12981602705458936 2.887803421162975
P 1.7342236649271787 7.373094782908023 3.8829259693472524 -0.3599001923033221 0.17414390243768718 -1.1408270119076416
Ni 1.1370869691761132 2.736187759406108 7.995451663275854 -0.19329733543768646 -0.36496140887631345 -1.0501922830382042
P 9.29137176473434 3.5959471829036556 11.429625667641847 0.22453469618541327 0.582958561053525 1.5840283755334656
Ni 4.92835229519263 9.099190894068624 12.347189794643594 -0.5509128454718899 -0.23096579652273772 0.8065386066351529
P 4.47770420677621 2.4461001377802387 13.15949384438802 0.327060777175798 -0.2775397876275349 -0.16613800141407517
P 4.326849103287059 6.930776061105659 12.857353409112143 -0.9752245712820623 -0.6265819541704305 0.701176855968186
P 1.3534945548503339 2.1427387347771245 2.6342346608540392 -0.5095479093718579 -0.4056352324465918 0.6908309939574876
Ni 7.469735616915818 7.463672058180256 10.614206361397272 -0.9435475518937556 1.6867796851607788 -1.4325289499681715
Ni 2.986591636568975 6.969808500469985 5.504660987752931 -1.155853824333777 0.45855599170502315 1.218089176124915
Ni 6.190957682188266 1.1106403128453608 0.5770829200297137 0.10491463582721931 1.0475813277779185 -1.557476850297182
Ni 7.577760530183574 7.597455629435092 5.261608602224981 -1.3019472483921513 -1.2165843094446145 1.2392804654905496
Ni 7.059046472299869 2.9641353706315208 5.262844247250216 0.5249308195858314 -1.0494294367302508 0.7271560536407671
Ni 1.1741654932444103 0.7365260775101411 12.934002845915078 -1.7334884020712273 0.15536713605081628 0.8037224773425965
Ni 3.837333695108795 3.3105838165710013 7.908934495562411 -1.3746662733234325 -1.254725082180394 1.0724454380094497
Ni 8.089392791783082 5.478301477879044 4.613291251022591 0.39891616855520334 -0.3553933055719041 0.35169657344660715
Ni 3.074471958334014 5.440424875732088 11.602204089499661 -0.2439102724985477 0.8846942292009733 -0.4577962307208632
Ni 2.645105952015182 2.0861852709272846 0.9557104244994219 0.8349438972507234 0.22076931560571011 -0.8328746734265204
Ni 0.393522209944645 3.474850301106132 1.0877721652328278 0.09165699948636472 0.16979359588879148 0.2698449900864385
Ni 6.914860366088712 2.6580311475649667 11.201462483602084 0.15606441922815706 -0.2726639475924723 -0.004093710453399402
Ni 8.927484854110585 3.901005648487828 6.372979110645759 -0.2714889534477647 0.2789613505654099 -1.4218149059847773
Ni 5.279414916690338 1.7738707161451848 6.3748312021869245 -0.15069492738612758 0.6359600529512209 -1.2502534195622856
Ni 2.049464505997697 7.869013162338061 12.19343409013752 0.5410354384571779 -1.7238359665831278 -0.49194382313684953
Ni 6.052119616435253 5.625900055874814 1.114088560543845 -1.3468945025268029 -0.9354118101604988 -0.18956692186097676
Ni 6.970322205899926 8.885755461239064 2.2061584220968107 1.6676033693426442 0.7438186018981126 0.22616374714840404
Ni 8.28614197145078 0.6191462214306958 11.374873842121303 -1.2029039837440443 0.2992195865938137 0.7697692603256033
Ni 0.8123627589364202 9.566846301540615 7.708845313268966 -2.5304473354377452 -1.6586731567325501 1.3713827174761544
Ni 0.5734447847883761 5.639393996722035 10.34859863817038 0.08520250211027262 0.5322265819162963 0.029854107246955038
Ni 1.3180672268068494 4.904850271772794 4.668377902403723 0.48117938553149386 0.1040466313999692 1.3112782959850902
Ni 6.112810243658374 4.540899147970297 4.007104166393302 -1.400984085282355 -0.3126111774093713 -1.6930745170305552
Ni 2.881181117007173 0.930724159319504 11.547922854846188 0.6337609884173729 0.7733862882529003 -0.9900166419895724
Ni 7.97189184799515 7.509813813762526 8.373717739282354 0.9055497324937437 -0.4460452608325221 0.1098670947364882
Ni 2.628896711038269 0.39677323145127646 4.662417084754148 0.8692382996572192 -0.165633808084147 -0.6761448527002226
P 3.3109232290872126 3.0826912452130824 5.785064344693273 -0.7244450824675072 -0.46873756022371527 1.1126230386695999
Ni 0.5404263682788686 7.827614008671504 1.187410837356784 0.2010651523085634 0.5329683451783274 -1.210353240933238
P 4.5186997347478135 4.744555831008463 9.6015993912073 -1.1202759272291676 0.02449849936199652 0.44193766642205184
Ni 5.503115284807482 7.927171955656469 8.388768391048522 1.1553385752602554 -1.3471341293414347 -0.21589373268096365
P 8.24159637202583 8.800067560862528 13.28744410701964 -0.2491650931395838 0.27077778631335303 0.8068021447091848
P 6.960451722996045 5.763151138781757 6.628853033306381 1.2350461156942278 0.3519053470233036 -0.5616703410987101
P 8.396579465577013 1.897444391979928 6.884041709616706 -0.10169432911770873 -0.906838112287864 0.3449535982958188
Ni 2.9041235684408226 6.514977382124039 9.544229502656302 -1.1517765689406099 -1.6602543851767406 1.6633808466208644
