# total energy = -381164.9325786322 ev
CRYSTAL
PRIMVEC
9.28037139023697 0.00000000000000 0.00000000000000

0.00000000000000 9.28037139023697 0.00000000000000

0.00000000000000 0.00000000000000 13.58276160393284

PRIMCOORD
 96 1
Ni 5.927939192357189 4.874663462253787 4.890608996061124 -1.06690393936593 2.067815631001452 0.1003468139508788
Ni 5.0031409212392175 6.369118759152076 2.584038623273628 1.5781035254085982 1.5881693942850326 -1.3271751697210046
Ni 9.04918787956118 1.0281723259893027 9.882926220361979 -0.3331265237539037 -1.528131821476162 -0.02382229923057833
Ni 0.2763601741640531 2.5953022098071887 0.018066098628065488 0.1407002780672609 -0.6421376425168425 2.368107881834154
Ni 4.456536337536321 7.901521493914524 10.784400134526173 2.3749616715311936 0.5957387435373289 0.3981769763963336
Ni 2.7268143501772077 0.2982145203186899 0.106138677453805 1.1991368033921284 0.8699756920438758 1.0394034199528166
Ni 7.3824796126955 7.894078636206757 8.004470507784589 0.1850538644819716 0.24237609524220838 0.49213537032236543
Ni 6.487916790968927 2.9045891410125817 3.990737802004325 0.22040653294965268 -2.583099671526138 0.04998507366887521
Ni 3.9406405021563655 6.53718628170525 5.627528008173876 -0.31865532672092217 0.40024260067611067 -0.2816576664506504
Ni 2.398576900967752 2.203633423399999 5.106629124676392 1.6855869504042584 -0.4385088432461609 -3.063330062880802
Ni 8.117921189712145 7.564978112475078 13.289238213847657 0.6043262280960238 0.6281840085502278 -0.6687213065426418
Ni 8.119239002423495 5.206195443241619 11.600860280214352 -2.3662047512741697 -0.818079517395217 -0.7054726551300625
Ni 4.177345650154227 2.8836062217142535 2.533905129977962 0.02258534149968368 -0.8598193203361644 -0.217741841633296
Ni 7.2946594599665815 0.9490014792250213 4.914922640585534 0.23872358609128566 -1.1711498312608992 0.1623188847783011
Ni 9.30050961220958 4.393207084421862 6.846308950340285 -0.887577207175723 -0.9282757133363497 1.5467769473811748
Ni 4.829393811507548 2.5588581920785125 5.808070205703085 2.4087662787854645 -3.53808503294319 0.046141531553068924
Ni 2.1168433918750242 5.138884910879488 7.8506325784026325 0.223888320850666 -0.5436988442219539 0.7579848660961657
Ni 8.054406329173553 4.615323488882805 0.3122408733604828 1.1315584421215223 -0.33372661923174785 0.8310764438755172
Ni 6.850454492158314 8.03570638119207 2.0402125827100144 0.11358362435612697 -3.0464998786973405 0.9581246783769821
Ni 3.814149042609166 -0.0029307412270730368 2.633208814038039 -1.5201007236415693 0.12159389625511319 -0.6874960160469837
Ni 3.7931846840532506 4.8708956315438705 3.8975600909777843 -0.45286562618846526 -0.4561155005843306 2.9109454064970772
Ni 5.161000035465032 6.725123079011952 7.901580888290247 -0.47800792978204765 -0.4646109396498515 0.23402103840929372
Ni 1.6291970064482357 4.714874030816981 5.303239356912866 1.6261687563469411 -1.5536523343447695 0.45080000190868813
Ni 0.7507662539902555 8.12236648752015 8.741538933873768 -0.09703086220376837 0.8336945982246545 0.18623220106078897
P 5.96992359169626 4.460035037481244 11.911782412826364 0.7490947626953873 -0.5305016288053896 -0.7388746276292759
Ni 0.8406150958649558 6.455342688033442 4.3647794513415255 -0.049518675555417946 2.0223821812590006 -1.3207363560741965
P 3.28184551093578 7.166608898056658 3.465207085237582 -1.0433305229213645 -0.2666640212552956 1.0509497300295192
Ni 6.941606298150433 2.784705305764547 13.07972362544828 0.26621407820207055 -1.0953526816249264 -0.14968011296836803
P 2.724225126610541 1.6472287677028365 12.093398349304188 -0.4233012822677871 1.596472257723773 -0.2553822776938892
P 7.008489933437056 0.4968562258123087 9.19369532373193 -0.10830386401442638 0.13960267412770797 -0.3457465265107594
P 4.543122200894749 3.9584680952444184 8.34572367761143 -0.3637473339635542 -1.3916093289356744 -0.6657079736376148
Ni 2.7989506755668176 2.8920699202547553 10.084344612920638 0.32817097952084123 0.2500840054094274 -1.5255026113834307
Ni 4.357793187897128 1.536105602873918 8.093885956323936 -0.37358643154116306 3.656675366485289 -0.06445112849553415
Ni 1.518287290157071 0.4797153801935503 6.564521615094559 -1.1564269232284277 -0.5271735928734211 0.5473192145833606
Ni 4.902857229979714 8.451977431668197 0.7243552455731334 -0.9695210931393818 -0.7672449512418529 -0.1831039398444524
Ni 8.987696139945644 2.6282753687045624 11.510344179649891 -2.2666043285710127 0.9953509097182923 -1.9905123291335975
Ni 6.109964393205228 4.40779582795878 2.4596482397676236 0.5570264145687955 1.4817694321615384 -1.485537640954719
Ni 1.2662231278121352 8.020959871344637 13.141050174456335 -1.0380787876041218 -1.7334724612316277 -0.783387108219354
Ni 8.138699940843926 0.5555415811749403 2.1501515721729594 2.9806282157051958 1.7126480682871084 1.0171047564556162
Ni 3.361888712593491 5.015929272762038 1.8728178870693242 -1.3123296200677397 0.7800593293977016 -3.8500968862056655
Ni 2.407133403220321 2.4677899094272537 7.239231514897499 0.5683973754098985 1.9582539833205244 1.34534926952687
Ni 2.2146399436511346 8.785402608382194 4.449929641274278 -0.3600500876176251 -0.2696848103594904 0.19600624972841724
Ni 6.030580097903192 0.7771809745558603 2.511261952270756 -2.6068265828294326 1.6710710161762703 1.8166458487270134
Ni 6.73727108492151 0.3165655263428008 0.3839530857859466 1.1546088961830823 1.2866530412372421 -3.0219993224528143
Ni 9.00240552830825 0.44351822033897254 12.180816661959856 -0.11197000001210393 2.009784032879016 2.1240400007118194
Ni 3.9163630510796614 4.277026117285296 6.228239012086023 -2.3817437274500333 3.2810037702803236 1.808567699704569
Ni 7.957129478185017 3.7919411143115545 9.40105036975151 1.2077291730468296 1.5157141645380994 1.1649748127984387
Ni 7.69581278574701 7.2557283027545125 4.295725137229658 0.9612837928312543 0.14148472164176923 -1.195172676538058
Ni 2.4051288430396753 0.6573602458320307 8.92858759965599 -0.5587835064692183 -0.5117361752724283 -0.025042287680608486
Ni 6.342354168591979 6.83638544940897 6.004096702590658 -0.11337819321354022 0.9554687288113738 -0.03733833143914215
Ni 6.728129919282919 2.473794309597983 8.13119768876044 -1.3567922212564891 0.3989503642272484 -1.3597705871585226
Ni 0.7701408849584644 6.080768345388977 11.803637319117673 1.625680246746297 0.7681504937752577 0.6097607688480338
Ni 2.4595118183108853 7.405829026651534 1.449756388981261 0.6649127314298291 -0.33979288003048574 0.5428071856456199
Ni 0.8263381728005821 5.350644421073765 1.4853568209672483 -0.1716872133670785 -0.01602774288682401 -0.1064308153614296
Ni 0.3296554899298385 2.4166550640783857 8.256186656209275 1.109452097140786 1.0765738583555267 -0.41646754717540535
Ni 4.998862670112934 1.4595889422747501 12.769684056138024 -0.6257795128737933 0.3381088074598435 1.4301496511027176
P 0.8704635537770361 4.267736465707398 9.568294723378653 0.4762840051124055 -1.2103522124919737 0.44437815754274435
Ni 4.97845513382942 8.957005952365119 8.830927469336617 0.7742023563962924 -1.9865078359598949 0.07605400284178515
P 7.0594484517329965 3.603837270323133 6.061429907868474 1.1337814179147698 -0.7675239159348524 1.4791800741678072
Ni 6.4099709532039295 2.4316799850620185 10.61456098910964 -0.4390266634228439 0.9165501973693053 0.29029323063846135
P 3.276397933037453 7.34593351088355 8.658453626534504 -1.379495576391276 0.4328832695292674 0.30820353525997884
P 7.926977552134477 5.880915551452885 2.1736086384349917 0.22388523552687248 0.364788630743875 0.7919193140600813
P 9.243574534856531 8.46226008296521 5.678884654394583 0.0955686758359451 1.0693971381014291 -1.0637638510750518
Ni 0.15811432443399895 0.9058848745987346 4.003274655467443 1.2062752142091226 -1.3511897874680472 0.21294827689939455
Ni 8.351999992658515 4.476535537486741 4.497129609231509 0.5497221675978984 1.6350334058264229 -0.35302686222225654
Ni 6.686683781473837 0.27778563918140087 11.308137883575782 -0.09075042851169532 -1.6946925122499525 0.7086559379540505
Ni 1.5391588450009193 3.7689814759462004 11.826388149130876 0.5261430947263778 0.6725849032631062 0.9158380017936292
Ni 9.129398127900611 6.100377769748715 9.41740423989194 -0.5315881770013491 -0.059691245213045585 -0.4145027101395507
Ni 9.099348285933345 3.1410437189878633 2.6743097220382324 -2.6968108225990655 -1.423038751089549 -0.8424975412282653
Ni 5.229015876038871 8.065329326083827 4.136181635629828 0.7957340598204811 1.189042395270604 1.345533103402902
Ni 0.24213416515377648 2.6156355031210485 5.411806707511462 -1.376086807820043 0.20096899305033133 0.826669573057073
Ni 5.007938873153077 4.2279143928594864 0.2564667704453902 0.05171362632420771 -0.31687252378888653 0.3658427830400022
Ni 4.209669183067132 1.0291931668220387 10.764338756088668 0.4076514915456721 -0.25649145159766795 -2.0028168575325633
Ni 3.858973235537484 8.827340605865231 6.422500382370083 -0.5327914532808309 -0.11969590790145192 0.24537143042510648
Ni 6.627029555357227 6.490589537876455 9.989482514520084 1.018346342172201 0.7753896918361743 0.7329379504298669
Ni 2.8644608159148497 6.432243844099988 10.690352852717565 -2.89670638007956 -0.30571753561333154 -1.5167747445921298
Ni 1.897325491351954 7.29755493578307 6.889678909100514 0.5382709883381633 0.1717178094946978 -0.8168237906112449
Ni 3.7655941404557582 4.638143921680059 11.731321882563774 -0.11611950340410324 -1.3948692306338688 1.9714730531139597
Ni 4.705352369958915 5.370838508819524 9.876514411895275 0.6505538916049957 -0.2755793214670544 -1.1247930983732306
Ni 3.879584939987545 6.873274924955567 12.818378163859531 -0.7876564250186693 -0.11092741768020252 1.2704126681189798
Ni 7.240127998756066 5.501673182091456 7.705554391402672 -0.41292019614377923 -1.6041565137419083 0.742735910356895
Ni 6.468131039556262 6.236400170525187 0.4738112080318535 -2.314403450332162 -1.033466485643091 0.7514141548571833
Ni 8.94702027294672 8.034202961056586 10.98079320607641 -0.29551745515187816 -2.435648704998605 -1.9938069407244692
Ni 1.7836687851836086 1.379508619132213 2.1724949938901887 -0.5812264088537668 -0.25118135223866417 -0.0047801949974627354
Ni 2.274535459419119 8.751120917144677 11.062058632622042 -0.9967714442149028 0.6837478618584611 0.20361902907866866
Ni 2.735296609460123 3.056722266203868 0.6547079157411584 -0.3806996455471766 -0.06878009488819123 -1.5686400660028532
Ni 1.7706948262366544 3.78903635812386 2.992906721638178 2.0728138555469915 -0.1782350417879253 1.2610949902624797
Ni 8.894493371916848 6.546271765116601 6.449271469190025 -0.5202622104655685 0.8672984023220288 0.14460346977640903
P 5.934064237353605 7.42959605731187 12.412837078572581 1.0239487759606432 1.8874663710840012 -1.152418573399983
Ni 5.865287406340817 0.5498898351100655 6.70029437388557 1.1096698695785472 -0.8195537879478982 -0.13038012708817545
P 4.441028837249941 1.4478585530694927 4.07829160807961 0.09587643688435102 -0.8588983511837918 0.3904094166357728
Ni 0.024794367752916508 7.651684620659193 2.093117194847998 0.25159015764130865 0.34701588014148627 -0.09739647307330324
P 7.027923030743867 2.5830242787007367 1.7677418121186854 0.6115744250180049 -0.30848995615214614 -1.123412158865304
P 0.30817699880907273 0.31222695280367274 0.6468223843268328 0.9689577644367441 0.3306011862288887 0.6544897363242921
P 2.2875186987372795 5.497886790639125 13.412270879046122 -0.35115998421684685 -0.6531782166017203 -0.3537539701962682
Ni 8.213759583163643 0.8194205841031147 7.385694333281497 1.1029122391397392 -1.0889480636501634 -1.2643844596470288
