# total energy = -340865.3209464422 ev
CRYSTAL
PRIMVEC
9.31500552168648 0.00000000000000 0.00000000000000
0.00000000000000 9.31500552168648 0.00000000000000
0.00000000000000 0.00000000000000 13.63345215617621
PRIMCOORD
 96 1
Ni 3.577055195160686 9.53744765298071 3.794025888212429 -1.8008867861205438 -1.8158670615794597 -1.2973529441532496
Ni 9.151303422204974 8.08933692503175 11.166942027634727 1.7780741591014022 -3.203133540165406 -2.032232334580203
Ni 1.9673663848303884 7.368802633070423 10.037097086652395 -0.890950237413014 -0.1000634783825051 -0.37947400067019166
Ni 0.9927466925971982 7.372649730269979 2.766472746714844 -0.19028348831202713 -0.4912843351759797 -1.019415921087296
Ni 7.893619348131354 7.110683835492489 3.1968809512982537 -0.8474003778465213 -1.2392544973486206 -1.784019835161876
Ni 0.9922716273255823 3.2526415046790285 12.656846389978956 0.010218592404214659 0.8890777029806495 0.3329897410657233
Ni 0.21817419173983632 6.038964527743153 7.45579360480701 0.26385997614759715 -0.002129387638176978 0.4950782550007731
Ni 2.551864339013724 5.373882462486317 0.8408226817355208 -0.08365958310318496 0.8711604563805966 0.5050718758783753
Ni 6.448098191662967 8.960774303271048 12.843829286385349 1.3082338527318114 -2.6628239241306595 -0.21138890283207465
Ni 8.029488015813481 9.02600728556763 4.320250100578089 0.7680571627305031 1.0798185905450695 1.1681313561495497
Ni 4.782873319580246 1.4928413835234544 1.8006240634964275 0.14717585848927559 2.15809631896558 1.2727701126075628
Ni 3.575946709526915 1.0000310267619743 5.899317693900882 0.8754020052657697 2.8483632128894816 0.02237451104045824
Ni 4.799360879006914 7.185865243477026 13.024445376651558 -1.4071429057948992 -0.9459484480257643 0.5229814091689445
Ni 5.210543844098403 4.6662773979172005 11.851791465693443 -0.8255709406762557 0.03610240214951202 1.2415191250130813
Ni 5.498805998910629 0.447935318604436 8.012120188383527 0.8262779940456093 -0.792608626817622 1.4079612879311365
Ni 3.8987395890818837 9.147176874845645 11.618946140565471 -0.06456682813779203 -0.07901642790421876 -0.040528813351981816
Ni 5.69400193551278 0.23697652998996482 3.9337826391175454 2.5270827898408865 -0.912446716723893 0.32188617495339406
Ni -0.03027749331098225 8.458518531109206 6.481111502038137 0.9345144951572099 -0.3417253211665083 0.43561326686592067
Ni 8.40707175669481 0.46362737657627967 12.054357434509368 -0.4546931663155072 4.978776464117496 0.37129326463161216
Ni 1.501653378561662 3.4642132206439373 1.695933650140287 -1.2995229552213747 1.6402067224972463 -0.8179705026211784
Ni 7.95999807608301 8.47643128635072 8.363154301085256 -0.20587980008838735 -0.2048109925042408 0.21612847439958907
Ni 2.111404312183243 7.691837702763863 0.5398315721455892 0.5348426793829046 -1.2503449508348272 -1.5706817790232304
Ni 5.280713779217659 5.350129198905525 4.481492842767697 -0.09740881436847741 -1.2181174582596892 0.33760769945370883
Ni 2.732510237296975 3.418215724345134 7.778293061694215 -1.5407549095568112 -0.1549729859361912 0.11575363542425225
P 5.186986195629453 1.0316368398324156 13.387122314510005 -2.2327927793382063 2.786130432201505 -0.15213834470087348
P 0.10701171268332979 5.525260614035902 1.3289224403037438 1.1311113272817745 0.3548477174810792 0.823918492674497
P 7.825163373992046 5.414710130829301 4.906270126631659 -0.3418605611927919 -0.33588197501185385 -0.840925568755455
P 2.9751754410394065 3.651817427905561 11.617841380933832 -1.0220160777143044 -0.15826554064453388 -0.21318430416960057
P 8.771465450034801 1.0678815255551057 9.837285564911308 -0.2489599191073132 -1.141849025414253 -0.33870273229010056
P 2.4131918547285305 9.00710713976158 6.835076115415364 -2.233172531275128 -1.3706311840221106 0.8038407480880156
P 3.3044422492958057 6.733137354632465 11.498207836034043 0.39819908788352065 0.07716189119398324 0.5593270376775141
P 4.674334877524018 1.0103893126842645 9.780175267258826 -1.36611118466457 0.7144566037962277 2.0791230855944707
Ni 1.776557815736689 5.097441049432533 5.712688767696869 -0.20472486054833777 -0.2981209542129962 -0.5901787329510482
Ni 7.108336454150387 6.138877274867691 8.027363263098668 -0.13699737529437697 1.1631529290983516 0.6611121267368163
Ni 3.6702518234453207 7.738729439573942 8.302172687219372 -1.4331868952671447 0.050603681089480594 0.1821192073336799
Ni 0.7698134646364103 5.78126490540488 12.841866614763202 1.0142184360467565 1.1051902365406385 0.9871884285121579
Ni 6.128090498700414 3.513135628615042 0.6539217573759948 -0.7277659193106241 -0.22558370627521793 -0.9795419677104937
Ni 6.549324354538442 2.139237548096735 9.6092253580192 0.42396694087624404 0.2928571347108957 0.6685822098616163
Ni 2.996013107953222 6.361245082005203 3.3118653770399358 1.0172528519977062 -1.0191554683370578 -0.9411777661099984
Ni 8.360347689980594 3.6085026531405884 1.5295918740353358 0.9871953704906934 -1.8465616624498393 -0.48947839231549256
Ni 8.989091919461481 3.806530351361783 5.883175721171801 0.15878876013785556 -0.1759264482594067 -0.2710719205150041
Ni 1.2914323383689943 9.2164805144696 4.474785107432587 0.07872537902636119 0.2168293571213556 0.46198404354996564
Ni 6.58047373234792 4.120203840702793 6.269643182632345 0.8080270182552212 2.5810654147049292 -1.0848679800435188
Ni 4.780637718302055 8.42164042502436 6.42901826625413 0.42671904970008445 -1.7118373994603548 -2.7060043161728755
Ni 4.880271015266818 2.2928233559085354 11.607480300509943 0.5813665339760568 -1.2421742420985766 1.6419023650321143
Ni 5.708123483586694 2.2122578748456863 6.5588629199920625 -1.5025403461603026 -0.5326122473904892 0.23733184795008155
Ni 7.505509651231873 2.0074767977632857 4.840502463029377 -1.733965598817962 0.5038436598982291 1.3971901654575614
Ni 4.800460049635358 5.782867086320918 7.203492959555571 0.5490449390252157 1.3621113194765575 -0.6279117287254476
Ni 1.5049415754416697 1.5440552828047063 11.026449391308871 0.2665058984108765 -0.6366550221357165 0.0029333715967110774
Ni 6.853487223441809 7.23263588521787 5.5460880344438594 -0.009921629989086139 0.2976751249248292 0.6626537601923234
Ni 1.4461825218465194 4.03791508365467 9.82339316596841 0.6108953966731092 0.6223964553341732 -0.09462071010037898
Ni 0.011280471449544518 2.209370223194688 3.6969830942287705 1.5403689869723018 0.3517467099582523 -0.7009639686264315
Ni 6.132254306081046 6.855070774347196 11.27052954436029 1.040636263918653 -0.3164449493331647 -1.2181804502871407
Ni 6.447511346327442 4.639608537669433 9.934478330480712 -0.1641595375314657 0.5922412719070317 1.1639659119179502
Ni 4.132779097892623 3.8472462396408575 6.058282917288331 -0.5270231833384859 0.005219853638042623 -0.7481421689741309
Ni 2.719990870139099 7.2754942247218795 5.362241500330664 0.4716701604894781 1.170833328461745 1.3916154995832615
P 2.565743696949167 4.25962152541405 3.834067370105915 0.06404515130636712 -0.4664279382539322 -0.5245202144109741
P 2.6796848420943595 5.676471095489624 7.49550813001356 -0.48889218079471936 0.5858991317390877 1.4382931061454585
P 6.844963993568702 2.3899695464513098 2.840842817735503 -1.0265327346377353 0.8743365401157329 -0.04317499272557726
P 4.721003054206279 5.29572956780285 0.350369021321468 0.6930843087680385 -0.32176867553892324 1.389152896975382
P 9.188963988737186 1.61629314910629 0.39298051318434285 0.525831734133546 1.3219059509022655 -0.09366580238627739
P 1.6687738891118504 9.124625246951881 12.481343306136079 0.3423552414410233 -0.18001527361679964 -1.5399527253704897
P 4.921871829051843 7.353460819298831 4.368226104008092 -1.2186157380523464 1.81352864325427 -0.22289741769230642
P 5.414719445834627 3.9874370697941566 8.171795215176802 0.15383244457384473 -0.8190362248815314 -0.5090388309459233
Ni 1.970887456843541 2.7083098534605448 5.234441490261744 0.25094815318193553 -0.2131261972381555 0.009800531030189573
Ni 0.22832382154282865 6.826464392991661 4.880420986852563 0.04145312493846409 -0.187052125858923 0.9615427029195954
Ni 6.786558910175932 8.964500305401367 10.37231618331198 0.06420070304762492 1.714746345577034 0.4157324687815937
Ni 3.6098533289128296 3.44016187689272 13.706390396049692 0.11489694385091181 -1.210085331983832 -1.5538739634372725
Ni 4.400222215801684 8.760408538713078 1.0094606066532823 0.03214547438429302 -1.2785977750329336 0.44786174521597055
Ni 4.7898595735745975 2.456385534424268 4.133512188811764 0.4136228786377586 0.6192334842251593 -0.020645701274809605
Ni 4.087033106737616 3.8997269796464185 2.2873656942881486 0.3569452234400562 1.332412506860544 0.8317256474237418
Ni 8.863581537701645 3.0985806315956124 10.683499771729403 -1.6444860665988903 -1.18631908280217 -0.31339870630767314
Ni 2.0958575682944818 1.5269995080531653 0.2202225614109799 0.26636037397194773 -1.1428923790771026 0.6306828637126816
Ni 6.679482923955854 4.705353845258934 2.729348724489398 0.2896214013824174 -0.5937533376761839 1.3903546305929668
Ni 1.673002901529764 0.7148269881982094 8.69773345687896 -0.8170266506506703 -0.2560322525730623 -0.6641838236836045
Ni 7.879730675190586 1.4947789046312212 7.6209225672185426 -0.3897545566605933 0.1003486137230917 1.3065690634348788
Ni 9.279878440716999 8.636500337869277 0.1750177720654022 -0.6578013171960284 -0.6427451941938543 0.9323030893281878
Ni 7.3355201190413375 5.667854715563258 0.6613802821403634 0.0947855178130174 1.119595356222375 -0.9156968482300745
Ni 7.793986051166592 3.931919638052385 8.324203606315422 1.6092969202922673 -0.8321115700082509 -0.723108880154587
Ni 0.15583072409531812 0.22862283321378685 2.4784937680645234 -0.294547377929125 0.6772488843976788 -1.773222744546372
Ni 3.8504785464889104 5.544943220289318 9.683063542235756 -0.2804443628688396 1.822187604480849 -0.2416947529044676
Ni 0.24530973375442605 4.69105531208383 3.588692431314209 0.23458333867066694 0.2734532762629871 -0.733550130092569
Ni 0.2083701486344312 1.360996798142073 6.130159361383274 1.1901675100139826 0.845248107390209 -0.5582867693384579
Ni 5.340320498297458 6.640322641566188 2.2573993221550483 0.09964541700848001 0.5322777468692059 -0.7217166277927506
Ni 8.385675189461445 5.163847722400165 11.584589606422321 -1.8639909136698802 0.3518531536291295 -0.48239166067204015
Ni 4.093004025151455 3.3208366586692146 9.778034679034956 -0.18382102051613503 -1.5835609489787439 -1.1545813853792568
Ni 7.116617493885024 1.2333439651573017 1.0029354454225587 0.6014219099650352 0.2730465277428717 0.1364219624068812
Ni 2.5716494103257244 2.0212723206507963 2.8492002405138113 0.16713430388907347 -1.3698053456867054 0.6983247312313715
P 7.042125396294596 3.1710047980037124 12.06555034490885 -0.2508368244150519 0.8645905164725626 -0.6201436547442546
P 2.4332750062109567 9.237616261553843 1.8010059787147854 -0.13978085157678508 1.3284090421281058 2.8173917042086316
P 6.589593122561878 0.37956690551518996 6.095611869630944 1.401622490197302 -1.7365315597729254 -1.0216162711727244
P 5.553848365380785 7.754984123867464 9.213268700633265 1.1676258772680408 -2.0314301503938816 -0.7356854312680169
P 0.36189261441001597 3.076084893733804 7.772922029623359 1.6981197927639466 -0.6650063195848999 0.4349427231614574
P 9.161931843281712 6.101738348633723 9.735688664823867 0.24147132403975188 0.3723674715323974 -0.6245248145310857
P 7.91614303100914 7.179726654967323 12.707126925726563 -0.49045438307551664 -0.9056412637662854 -0.2698269923643095
P 7.068589326425196 8.493915551347248 1.5965313653076039 -0.25274663984325507 -1.5244667139197488 0.8785066123330224
