# total energy = -381176.9139203391 ev
CRYSTAL
PRIMVEC
9.14730922587972 0.00000000000000 0.00000000000000

0.00000000000000 9.14730922587972 0.00000000000000

0.00000000000000 0.00000000000000 13.38801167627081

PRIMCOORD
 96 1
Ni 3.6905916113843964 4.8117589892890384 5.233561534516296 0.1064272158170038 -0.9442674607789157 0.7310247925675539
Ni 0.9090550015703477 4.076900767964164 4.321449502255264 -0.7772717393502356 -1.2291708878603733 -0.18002093004375447
Ni 8.018476245569332 6.77501849272827 11.563185657198808 -1.0193264466972833 2.059191122557234 0.06553947646370649
Ni 1.6204000649347123 3.192758462641803 11.858337305256704 1.1143240805211068 0.33832760833886893 -0.7895032484194209
Ni 1.8526228002560454 0.1312684587871269 6.3713815885800935 0.03743783313148391 1.0114069347398904 -1.9144092182214323
Ni 3.5148077730155443 2.5688388056993725 10.143065009587414 -0.45538736416905434 1.3294685937408717 -0.2796144107683765
Ni 8.903030179799774 7.132751455778126 2.475416423452147 0.6868995201135654 -0.0120175932861664 1.6259787518233224
Ni 3.610131880818105 1.7445656382301697 12.530040675311026 0.2234808009996022 0.7721436740950509 0.5072843101486618
Ni 8.333491275269417 7.24339730627038 9.277637183888244 -0.3504007374533191 -0.3699105253514727 -0.9230422328515523
Ni 5.8263236273096926 7.008256579356203 8.44385904756599 1.2713755462528813 0.7724915443527728 1.150578949088083
Ni 5.029602154754732 0.7455221542369017 0.7777581861251086 -0.38400942664669996 -0.7995122959159908 0.24176520113108685
Ni 8.575044265840594 4.357238348985667 6.472634982120838 -2.3507020276528805 -2.104549238977059 -0.9704356345338513
Ni 1.921968550304142 4.6469427744932865 9.502355466849801 1.0122194033388567 -1.0006265562949348 1.9632748335738832
Ni 2.611483560576595 9.00395244075224 0.31962252927787543 1.2521053851693595 -0.5509496122470964 0.643662306691485
Ni 6.23216228875065 2.5312067761916732 12.87170273105848 0.7786578210644848 -1.0503064400185653 -0.7590315621931251
Ni 2.3474739262423174 2.0501314976625222 1.4153805120521123 0.027928608089468027 0.6444331234192386 -0.327990488078919
Ni 8.271326162840072 5.665541375813136 0.8441703941549458 -0.711704237862071 0.11287271433203143 0.33666744702762663
Ni 1.1620101128953757 5.489647769735462 5.991750882351219 2.871132131154881 3.1588658285962823 0.16195327390876624
Ni 0.6555446485848635 5.619448085417099 12.44803870843579 1.377972197768214 -0.299584169022084 -0.4915594432142373
Ni 6.523458346036184 1.8450213864201441 9.58627105078216 1.484377559208347 -0.7194193471181416 -0.7382177107715674
Ni 6.713868731605525 8.51257729221199 10.144417896598641 -1.2459339662513251 0.9045979101034356 0.2751576605486036
Ni 1.5693123437872887 6.944088206240863 1.0544505644828248 0.933160809342793 0.13925274698745696 -0.4979041544853425
Ni 8.858098597655433 7.929006415570593 0.08814712910743663 0.5140092875773212 1.0798381309290952 -1.0184515002914976
Ni 7.2303258016115315 2.5328990283693407 4.222123446735246 0.649664547021507 0.453485004940019 0.6054192040498865
P 1.3635619209101177 2.2638034901929913 9.477306475696691 0.3373886414643673 0.6644381057862556 0.887784952311155
Ni 4.591409461138584 8.426116926896778 11.624007029925995 -0.2829563306574159 1.3980465999205858 -0.164964035710632
P 8.663425566060182 6.086409066053595 4.4959755856272015 0.07674125871679686 -0.12411846244917979 1.0384621390854696
Ni 4.693164127216281 3.265973524425864 1.1008182741509163 -1.1274176804802711 0.5304761748840928 0.1543078415483665
P 2.4987704182348667 4.069061524092482 13.889124988432126 0.2613312961884725 -0.0902529200499865 -0.7272645541941732
P 7.144030087859553 3.7532964150487813 1.0134029297689575 0.21512085907068113 0.02330602171579212 0.5928467667015144
P 5.19012828159737 1.3666720059933986 11.070453047992796 -0.01061814183547849 -0.5124509419512658 1.5455600442549382
Ni 3.0323969873623966 3.591443928391214 3.230554228981828 -0.8965300454936366 -0.7353583869459013 -0.007013712313671793
Ni 5.592344608647213 6.309127747252785 11.376302474006271 -0.07300056072744203 -0.5876467105578137 -0.9244643100100595
Ni 0.45242499179578527 5.500825781417137 8.169391294773726 -0.3649416113819715 1.5018744304415297 0.41478321749444697
Ni 0.9422826017615773 1.0289533551853622 12.816102642347579 -1.0287883634411314 0.7980953609638062 -0.5082993816767375
Ni 2.0785155977019953 0.29689512516634653 8.670317148712371 -1.3912372903082362 -0.4621755907354814 0.7785914866029237
Ni 7.824809417971615 6.633162023694386 6.950814222598911 -1.9759094916187585 -1.1935695937169961 -1.1037396201370409
Ni 4.444247552844985 0.5352401544472088 9.156101461949973 1.26290736088087 0.4484155608369116 2.355264450212583
Ni 7.979911190536648 1.3899702021908003 0.6616824929698092 0.9708488108118698 -0.051083448939376545 -0.7834081912652766
Ni 8.786731292303203 1.0641247585536424 8.896038891478739 -0.607341874993896 -1.6776260436859687 0.13096248195420673
Ni 1.1357390412507202 4.877290311455582 2.0759186766574556 -0.6054467148537122 -0.8212543155787727 -0.19855472718188386
Ni 4.8898129775703225 4.027825454811804 11.960434080693561 -1.4938070800523628 0.552794378765319 -0.679018831813908
Ni 2.581645038395235 8.380828599698766 2.772670123133978 -0.15405973009330243 0.12597402760067983 0.5433075223208063
Ni 8.42460762090048 3.379610544983508 8.68627554411323 -0.19404681200920132 1.043589433009706 1.4901023775072662
Ni 8.441475258822745 2.529505376704937 11.266747897485887 0.17900560140536267 -0.514102618622076 -0.15723015740148405
Ni 2.787797942871419 3.665866434972313 7.554279581733328 0.6220989786984125 1.3261634406270388 -0.8648620249663944
Ni 3.1613740452278707 7.241686759474574 5.7083398054827095 -0.9507576964889496 -1.3684192639724562 -0.4693412552459852
Ni 6.118360616629772 5.810050564476878 2.1300862967682344 -0.8632442868573132 0.015993032994146648 -2.2742065663983024
Ni 8.928843885991006 9.015313398615284 11.07147022876121 -0.27692246575851015 0.5165058287469297 0.4959143777488233
Ni 0.9047072855701024 7.791723601070946 4.698282046640093 0.05029257760696499 -0.167209380101383 0.17589893745558094
Ni 0.2575635256337248 3.2889332701877314 0.3234031121158754 -0.5071632111897653 0.4121516934088708 0.21998950001689208
Ni 7.751813891605197 4.667313831788776 3.1309875992333094 0.9560210017704182 -0.6416733012859143 0.6113826207221729
Ni 3.9960111138716536 6.929781814857771 -0.10512087581489579 0.25258414612346175 -0.2122311962277119 0.739086743640082
Ni 3.7811774130894884 0.1620509832643534 4.9937822071734965 0.7756336895261803 1.0119417241974378 -0.21922305416451277
Ni 9.084924420626367 2.517476665279894 2.6842430863690456 -0.12602030745758297 0.46175932913366924 -0.5044684379664216
Ni 2.4327817306149 0.376319380346087 10.963724075243663 -0.36834960862225596 -0.3540221362559903 0.6665628654387424
P 1.9947353939438477 7.5788931609747765 12.209196980272509 0.08532797194454336 -0.2635766405792235 0.22828079349140684
Ni 7.240012801915044 8.457775763582765 1.5885280959474308 -1.8499511477473625 0.3546836810993892 0.4657265413115334
P 6.287924284832063 7.039741617169888 -0.09985385525326883 0.5400841302875021 0.6673539938814701 0.9184420150753795
Ni 5.003651238927473 2.874569316694957 8.150875311757323 -0.23654380483114743 1.122022477606629 0.44039886118002225
P 8.686467637603668 5.134915124060066 10.384598790809545 0.44361171169036506 -0.7399848299743191 -1.0751679791469353
P 4.635883677829502 6.535477910152158 4.037061492778241 0.09732293952289045 -0.3922269294604858 0.2865579319657452
P 2.2575650254082924 7.063378263802823 8.002362345914309 -1.4704059275196033 -0.8293057251283397 -0.25837298489109695
Ni 0.6907965482729462 0.490983643712121 1.80932309804952 0.05624005343965153 -1.6389466248379 -0.319240766910747
Ni 6.47525202724533 1.919571955328202 2.223828834832856 -0.6478323789087747 1.1540476243629736 -0.633010997625226
Ni 2.9214675702890203 5.533719504827367 11.606991205596822 0.4950252902756507 0.05256543280154173 -0.03582498011840926
Ni 6.228677163995562 5.212026939507296 5.3523393427704224 0.341250952633251 -0.3709343386302966 0.27527027486706784
Ni 3.6611555708020496 7.235869070907026 9.733499734431959 0.4711669956008144 -0.5675357987405517 0.20978916244512258
Ni 8.582929246257617 0.1602727463814422 3.786571581247167 0.37954624866902376 1.764966675185167 -1.9464965856742802
Ni 1.650019051698429 1.4820012787287105 4.01803691937763 0.8883235984234443 -0.5613695220288397 0.4332941318144409
Ni 6.808259813883102 7.291969517423972 3.7988344637843623 0.2540489035944464 -0.4627949694870352 0.6231706144960364
Ni 4.2523187139702765 5.68025939610431 7.514838214491885 -1.0252677518823825 -0.6727952195016994 0.33508107637711326
Ni 3.9905959069031174 1.2658137762044113 2.961762381466552 0.5208497075379224 0.573804919578715 -0.5210011455141221
Ni 2.3459829148641558 6.057101087798207 3.766957921142547 -0.5884131564101931 0.597590452034087 -0.18420591465937952
Ni 1.2893040658922508 7.414104388106229 10.163723292387655 0.4854476738895446 -0.911242926223779 -0.24268488473187882
Ni 3.436534249316618 5.602864014075958 1.8154947874780192 1.292791292924496 -0.5763958202343429 -0.6192692225591012
Ni 5.556880491388742 0.7837350378704491 6.948029781718469 0.876318346432452 -1.6652880909459065 -0.3923968793794468
Ni 7.579624945700254 4.653757519749298 12.280300843123566 -1.0393761662593068 -1.7098345100977135 0.131734841343857
Ni 4.848384814799206 7.737425174440488 2.1659254536985126 -0.4429223989328243 1.163899320346073 0.15798194796584406
Ni 5.425159240802724 2.6355318361176114 5.512527019177528 -2.091680353434191 0.8712944108552995 0.016223660947713995
Ni 6.10687159643977 0.42207787923021806 3.837995008637404 -1.0925524931719701 -0.7602834323223552 0.702272660135526
Ni 7.544243154223399 8.672115509675232 5.521376125970369 -0.6883786757622532 0.31150843126349576 2.988776298733627
Ni 6.579247784044803 4.064753141521231 10.215467790326194 -0.49116657865119273 1.04059461204744 -0.849919287613633
Ni 3.8815416881887783 8.338074077112722 7.591605176387234 0.031001333477520803 -1.193325853137306 -1.3857065902979941
Ni 0.29741926597597 8.045012589176974 7.202857347209812 0.41414301280728677 0.07284860853061002 1.2897352797069919
Ni 7.4063657646343 2.149379801055458 6.680189254346313 1.2851324908276576 -0.5632757379126171 0.4798424118876252
Ni 6.6682145120447744 9.265126409275291 12.540884810211702 0.7992392447602622 -0.923549511505274 -0.49571357459192683
Ni 3.440851779196937 1.4889715282388873 7.283734195069626 -0.704999829258702 0.3253098559229623 -0.27432128069023726
P 4.319240427115228 5.020125542559794 9.790130724874878 0.09248720869714394 -0.40650066577068056 0.2921086865806453
Ni 0.952966658753554 2.4208810815168156 7.246461654808318 -0.6799611411225193 -0.7930480283478858 -1.0960499648022672
P 7.230289212375257 8.919678282304394 7.818719139593824 0.5033929455140557 -0.9412680118309596 0.6214040095139168
Ni 5.222262778354918 4.039341916929011 3.3429463007752536 1.0588301612188602 -0.29735116592650723 0.6071454427123737
P 3.1662495609613672 2.4736336129147016 5.463754481955335 -0.031585488115764955 0.7394585251572039 -1.5297253912155266
P 6.594459759025674 4.032417403964177 7.534799472341108 0.8670322931448358 1.1974768991912021 -0.8048244521575236
P -0.05699871226747117 2.148858404438555 5.185993697898421 0.21192523495151888 -0.025065941829692313 0.07029498887082088
Ni 5.488980016173463 7.439433286916832 6.173707324879477 0.8826458313123766 0.24208273237150563 -1.5824744007827845
