# total energy = -340861.9263423597 ev
CRYSTAL
PRIMVEC
9.30102642207149 0.00000000000000 0.00000000000000

0.00000000000000 9.30102642207149 0.00000000000000

0.00000000000000 0.00000000000000 13.61299233086185

PRIMCOORD
 96 1
Ni 3.021298969330226 1.4589776314962302 3.3614830864153804 0.23215621728641309 -0.9269353972583715 -0.2212619389714125
Ni 1.0588009628631303 1.8015530425152735 11.730669577248365 -0.1608243025106456 -2.368232580337476 -1.2887567178438062
Ni 8.657507153601694 8.118521964278754 2.5985840530868596 0.06759173100704488 0.02344846083092736 0.26756416447206177
Ni 0.38154113177607996 5.708170226926071 8.32648175739052 -0.14099724048238943 1.4494776620073684 0.06498643217371389
Ni 2.520317774615882 7.10849558480463 8.170559347792256 -1.5492302940176739 -0.8714291366609508 0.1844439988121146
Ni 5.646234690925425 1.5326696650948366 0.3930139480633299 -0.23733827570798482 0.20388051027017146 -0.36681825957939407
Ni 2.3223082197401106 3.037278132995808 0.032635442066236385 1.682904775586405 -3.025367981814732 3.028986295293609
Ni 7.148945749403941 9.247527075772743 0.8680573699521743 0.14015957507244248 -2.353546439080211 -0.4486772991387305
Ni 3.623400925029557 6.413876317707427 10.25262577136443 1.6617098866763447 1.2682565410079256 -1.0389385645012559
Ni 8.856995571703791 5.008946951671439 2.498977499229205 0.40560180810549495 0.21336171028772935 0.794516385363296
Ni 5.870724268476348 3.3562940436860274 8.272479066960523 -1.3314763681995199 1.1642739300766722 0.7652474611958499
Ni 2.9785886552718135 1.5323720322442556 7.070846889411414 1.579402960946312 1.410681772186093 -1.177768107908365
Ni 1.0177369305094957 6.322735558243493 10.49040372559115 -1.2397419785080004 -0.9503211231721633 0.9308990098918097
Ni 9.217800994820937 8.741923270847806 12.586885810260695 0.5269895018870729 -1.038452883114089 0.34024976506224625
Ni 3.3363433416705015 5.409942110643637 12.209398065868468 -1.3769632968877255 0.3693068303292027 1.7249795932692678
Ni 6.527311637885213 8.344034654753552 8.98341791529616 0.8244897917969349 0.1395579369327016 -2.0087846450802247
Ni 3.1169135225794595 0.918972119557391 10.837520827889533 1.4108416948027251 0.4256834093467185 1.4904319929325427
Ni 8.621642395106651 8.002826494641866 10.23388048239376 0.3148938027959609 -0.46803256373689067 0.7704135787778216
Ni 3.5149323530458454 2.5706549304704396 9.314553993723646 0.30535449584695795 -2.351782405201253 -0.45262625648414945
Ni 4.657414652055216 3.6485509009036745 0.5375156271231951 -1.0558453675589237 1.1503280094195414 -0.01139410076955457
Ni 0.10338463085472069 6.815764375231369 0.5608007471678893 -0.19802070905528477 -1.0352307766323654 0.0038322292618966254
Ni 9.392362661686853 6.778169625792322 4.620413308112015 -0.6858646510911478 -1.3831683972571729 -0.17714643670943683
Ni 1.1477001749211238 2.286713191015907 2.1033983280349275 -0.49106090631126387 -1.0337032842442455 -0.35208172470016785
Ni 0.24705851854890676 1.675170693337201 6.740092153073738 -1.4369525329571637 0.4804250238639726 -1.8650399237596849
P 5.392381772459342 1.3149512348946368 7.775768903652021 -0.9119702913081069 -0.838957903506123 0.4579687517429854
P 4.539366022693419 4.2591632959243135 9.808719396159677 0.6165171137352609 1.9060379634386013 1.3297123343205615
P 4.90261761580128 7.180253004874459 12.452267402045445 -0.057835422951229426 -1.0209961210902223 -0.7174059162325387
P 8.370384463056574 1.981686024303007 10.68512350736534 -0.1807927752127725 -0.9842134050442339 3.219787860892635
P 0.06748452845867098 0.4135227116736956 1.1377043616548834 1.1351474450243613 -1.182170607851435 -0.013541743240176677
P 7.27164489205607 7.466203766070414 13.195877036348325 1.4049039891620514 0.019822176932249733 -0.3662274200729306
P 6.787870596515955 3.8556847628550783 13.289057510941397 1.8011649794825948 -2.5358913892714523 -0.6610648184386486
P 2.068501806406932 7.2777835695993085 11.9851512451113 -0.23484739096533103 0.7298022330143624 0.6699307534697106
Ni 7.156163346030537 0.22713199920249066 11.713435705097051 -0.01047904515445292 -1.058937633331002 1.8453229049467317
Ni 6.249313254415726 1.045798127703361 9.967705563913611 -2.51130958616703 2.046265672744818 -1.1421063928406976
Ni 9.003663459854295 3.5756308525112632 0.5196818387574286 -0.5154439631413187 1.8552939001165145 0.6534965191730875
Ni 6.678025472598304 6.128995174568247 3.2695545300000646 0.9154559358638621 -2.010273313810609 -0.7023503074509969
Ni 6.167008470203424 5.685922171345122 0.34382918940211676 0.10789094484672387 2.463595310810202 2.5702554685736185
Ni 7.902114978826428 1.9930611798111602 8.700798781821398 0.30987860896955666 -0.05350979899268204 -1.8849477184272054
Ni 1.2876434208538052 1.6324603792787886 9.178546942239901 -0.07771776369745324 -0.35630090498783795 0.5372505174934489
Ni 6.835305832077346 3.3774352771038783 4.072885125874735 0.10180694343617307 -1.9445145222472446 0.6909212396784489
Ni 6.642039800757712 3.8883778712861146 1.9291240628903545 0.16443207446656197 0.4150285007360336 -1.011166279483994
Ni 8.965612960112793 2.5394034811594057 3.949129386603042 1.0806133185322229 -0.028121697936880602 0.8393075735360577
Ni 1.04452388706181 3.8581123307926313 12.168368447313181 -1.8115280678844736 4.368572179974141 -1.84346014070638
Ni 5.024033216785277 7.208556028759421 4.9951107445300424 1.8061729742201476 -0.07919537668424426 -2.2921053010555945
Ni 1.9060872802553641 6.377416293511222 2.4693425683378907 -2.3528892651121867 -1.2607527764317126 2.438969284731406
Ni 6.727311612449247 2.237027107021996 6.420568406332214 0.9670384359268442 -0.3185679092134384 -1.5365470421230505
Ni 7.9280555419599015 1.7610284697033172 2.0105712924519192 -0.4918882873085658 0.8687351347685555 0.9242357389390212
Ni 3.4082588791922013 6.187135891723981 0.9167817277976444 1.520042102489492 0.6079265438527723 -1.9889552690591228
Ni 6.642542056193069 3.4473045887778317 10.802698714474182 0.7812176113718611 -1.2720874847182415 -0.5812498058925345
Ni 6.669877773313642 6.899854956547158 10.672435977006655 -1.088335883987461 -1.1206577360486183 2.105399759902813
Ni 2.7977208923842074 3.8361712090888433 2.6485984633190682 0.7273512003707087 0.722319294373756 -0.1966523679528484
Ni 7.646652982761891 9.175323206427041 6.920328376256518 0.11206333105685862 0.7034126872772402 0.8018774537140577
Ni 5.774412138233566 7.502226642017329 1.7850576718744644 0.1918965984354179 0.16835917743511006 -0.1728102712279282
Ni 3.719052682385113 8.268277793254036 2.7483947581189683 -0.15356787805854843 -0.07113753937677426 0.10744742955140206
Ni 1.7845600669523989 2.9044966775302385 5.197385750195706 0.986420697108198 -0.5902872335044543 0.21360905041184503
Ni 9.216545356232547 3.7270608662710654 9.884979443197205 0.06574490760629322 1.8684008698121177 0.9510937396721298
P 8.04303483255008 5.788986846885467 9.57326855878344 0.2990933454285946 -0.5858623649638813 0.8134792996190441
P 8.899594273443237 0.07595962387897268 8.749029255155437 0.5850401261729021 -0.2823734615707524 -1.417617837184294
P 6.419494137762149 4.454001200736078 6.308764486216677 1.7846782946814812 -1.3663320424261243 -0.9446595540110119
P 3.236487520300485 1.0043341512067576 1.1642401904895197 -0.5045684538793955 0.5587133153529152 -0.3267242197719857
P 5.051610760596949 1.5597728565508937 11.890418429181913 -0.4257181192393959 -0.3327755681723882 -1.0538165100543528
P 4.588726570757006 7.55540991200557 8.431764727770355 1.4302990321963882 -2.376641887447094 0.35751472279028107
P 5.682108750447049 1.9602006529016716 2.5688393700818937 -0.023633323148223813 0.8000655973162994 0.9976723587626174
P 0.7185777814663373 3.2926750218742806 7.948817293493262 2.0466454246817394 1.7498501312587025 -0.761005140979728
Ni 5.665004162565206 5.058316800761608 11.95320128870406 -2.0576137507677856 0.7154127970619099 -2.4929976752317193
Ni 2.124252159731436 7.787377514927348 4.505614457437503 0.6400208532841558 1.5080612759785317 0.6419229554028751
Ni 2.3313581186030974 4.8084912268049536 9.463902437734694 -0.4509941201973652 -2.3231272033584056 -0.5635505888405585
Ni 4.833501687280361 8.399106033137667 10.606073152353613 -0.25842157874084526 1.1744606408016869 1.1510222072730887
Ni 4.327944387488329 8.541421040848418 0.40841179756762036 0.06467610002214669 0.9425836453185895 -0.6585574786357626
Ni 8.096329714857287 4.140798431658775 7.598336939983312 -0.5695206903810643 0.7512007532947966 0.8865032573852539
Ni 7.598222537356369 0.6473486597062907 4.770428635728899 1.4007753117056585 0.18568738430091244 -0.7552353283754865
Ni 3.184383169395601 3.2447747349838574 11.562181480739623 1.5146510133809077 -1.014123562340105 -0.8693295738194448
Ni 5.042616667893445 5.804203326371435 6.780617655988353 -1.7164990666020825 1.6619171175911442 2.0170507417437586
Ni 2.233111374831536 -0.07230246022745532 12.903319755972124 0.46527531270672773 1.8444687844765524 -2.081734297965073
Ni 1.4298189131658463 5.220136061212013 6.510277737805384 1.3325055807949826 -1.1335703303452285 -2.4994092351850177
Ni 8.44657847280538 4.446039521983029 5.328179576280988 1.132845793474378 0.659302070111271 -0.43339749016152457
Ni 3.8029386411161283 8.308123391125605 6.530751157514744 -1.4080070535674072 0.1863710406314984 1.6765307537392609
Ni 4.5170249568466625 2.341570645788667 4.985241425225299 0.2170332456020456 -0.2149282834439008 0.06957585131660922
Ni 8.499557120208847 1.6269448705164544 13.208591539684093 -0.8203803976142516 0.33811266411458546 -0.9766983276141114
Ni 1.465999906564632 9.280499215001198 7.406557212711269 -0.49439151334639364 -2.6908990851003205 0.5616975947922197
Ni 8.294813622088673 5.580076488857157 12.201896787931164 -0.42220367832823413 -0.2280283111609686 -0.18611958674232465
Ni 3.6426726521046944 0.05853136027212312 8.70578134176066 -0.3134490999296344 1.3849373162321374 0.6038156070081924
Ni 2.0456398830716576 8.196027418775433 1.1280238531897275 -1.7192115804372394 0.3668455132729037 1.5965632747756826
Ni 1.7118818452510847 8.59882697690428 10.229292285981517 -0.5753730353967833 -0.2154497031650096 -0.344939971449064
Ni 5.876835042939845 9.289446802571797 3.4175822282366592 -0.40280341942475145 -0.2977509724680872 -0.09514033004927487
Ni 7.670789146738716 6.888154265108683 6.560441894565542 0.34160859308298586 -0.971556892622488 -0.35070824139140894
Ni 3.430358118347861 3.8490066257701607 7.5274128918951115 -0.4462717750210315 1.1633894705891898 -0.9141822113577611
Ni 5.215950599250713 4.771873085156876 4.496902185839394 -1.530945893886189 0.6396621843931564 -1.0653324811137523
P 1.0241267357704122 0.7549522362180009 4.257218451266296 -0.246000322258357 0.855413735069301 0.4834972350313931
P 1.268864648187443 4.613578913780543 4.054915542520891 -1.6046375671433848 1.3698719372585826 -0.6927855465806972
P 1.6601774384891697 4.943384015304333 0.45940467579611477 -1.3181786226493493 1.0636985450547551 0.5743142551149657
P 0.8255228452961365 7.408407186898163 6.622244425886084 -0.33547522649173833 -1.0359609699301706 -0.30509250043482294
P 4.0607630979321545 9.139532856144644 4.736491049941369 -0.2259611442192947 1.885389176839998 -1.870120680716702
P 7.308951309671116 7.654344931744101 4.434377894856192 0.42935854420546055 2.040993111491969 1.616500122908926
P 4.595451212974828 5.311304723755688 2.3370782499502063 1.8663951522359985 -0.6535739093782421 0.9168738992573112
P 3.489001090938952 4.59254929268166 5.563834106139342 -1.325576200665001 -0.63293103631691 0.49136712469777305
