# total energy = -381170.7255438837 ev
CRYSTAL
PRIMVEC
9.25369504131430 0.00000000000000 0.00000000000000
0.00000000000000 9.25369504131430 0.00000000000000
0.00000000000000 0.00000000000000 13.54371807078835
PRIMCOORD
 96 1
Ni 3.5782835021791306 9.122949399842357 7.362933653307144 -0.46941093214165613 -0.4941526578627103 0.8771796659914828
Ni 7.715564203125318 1.9683441787932376 0.7411626595631212 -0.5323296831530638 -0.002388040616202339 -0.536095063732767
Ni 1.003803803030315 7.834205824854102 4.358449560184234 -1.2605049220869646 0.29255400164818 0.8558122560593002
Ni 1.5683532187100362 6.014540761287165 3.1985655367830375 1.014329250593008 -0.5271016019849051 -0.11331211586229518
Ni 0.6944111424195155 5.322216327057325 10.589453676875962 -1.2790443756520486 0.515588459138983 0.7263772664932134
Ni 6.770086438762543 3.547218848552773 7.530429231650464 0.44560945884668424 -0.6945493233493393 0.23962321508741957
Ni 5.717950587507484 6.358426569467892 9.99786403946208 -0.860780398697853 -0.4588997481976871 0.3573619992625007
Ni 3.9556584320380788 6.944000379856903 3.9271496489305178 -1.580546587632452 -1.3772833992313054 -0.5198947998238208
Ni 2.5760898420534883 0.5504125460505922 0.8126853924625792 -1.2096081352370975 0.964514898174042 -0.24752395799173496
Ni 7.375777781765108 5.453276407280771 0.46028155816833927 0.26463310686819586 1.1484950699758607 0.372816643254674
Ni 0.17779679145528282 8.985430240610514 11.176424795187993 2.0065981789518665 0.1983014735204972 0.12583750202281554
Ni 3.9040875906142807 6.641339782252709 8.2962446596753 1.0990818096500554 -0.3942066788946759 -0.6157838351136621
Ni 7.363285293711613 4.384733755048787 5.255829394802081 0.3005832997105597 -1.1444962332291129 -0.20887976325697574
Ni 5.192451764113503 1.476621341617965 4.015617747847427 -0.045503640858753885 -1.0982608564106568 -1.0783322358075298
Ni 3.0922239262547753 7.351847726871524 1.8360274468085602 -0.6474006906879947 -2.19422674613955 -2.541929625045732
Ni 7.385512668751979 7.700295606615491 10.847014541868068 1.131850005220012 1.0715797475750448 -1.8975381534977063
Ni 7.588492465384137 8.361287030068192 1.12314407872061 -0.09269572516352423 -0.3929524947726007 0.665316651736467
Ni 0.6163654800171623 6.0068416871682695 0.9430893857208437 -0.36929860279908655 1.0093335971506294 0.7474286878468741
Ni 1.6582806253054914 5.881953821412737 8.38560666551515 0.24473971037837855 -2.8351770532165106 -0.2604337240748676
Ni 7.547248747417895 6.032113527815747 6.9852811126025625 -0.8480966325825975 1.1881713055195602 2.0750435162084586
Ni 0.01607459333164903 4.343878692266431 7.005366257284127 0.7825854382536651 -0.1917736997043084 0.6348974160146613
Ni 8.154078294887556 0.64943078247105 9.575096960233642 -1.2622057068281554 0.9348808773576931 0.1746861480944024
Ni 8.473821213193046 3.6950188627679004 9.429379952730251 -0.6056650015121052 0.22667693933939673 0.3399576877431242
Ni 6.123734360569566 8.420806795371956 8.612057533776111 -0.8926332815423916 -0.8088927086896264 0.07484198481155499
P 1.9697414867162581 7.8717388111837145 8.60437789241641 2.916177087209662 1.1411247456537186 0.9896227489852635
Ni 5.87024789742187 0.24301498205041033 6.236110305512409 -1.7088945147819472 -0.054535926264351234 0.6614319719700802
P 1.4220430493664735 1.0788327609101205 3.917655358009861 -0.0025183955464795336 -0.7817380026517053 0.05564561438876223
Ni 5.978553141998244 6.173917147765198 4.4999006143597295 0.2316365973375172 -0.43333526946502143 -0.3447705357507353
P 0.7529851801091546 1.8971647579728794 10.017718767141767 -0.26837251930597006 0.6224885008273472 1.7325921155092032
P 1.4919824750763369 8.01146960348577 13.353916358233874 1.6162566394395517 -2.1352764928575874 -0.4813053695863969
P 7.754142856973481 5.865852392366011 9.445388844828432 0.09726508970176152 -0.7909096418486443 -0.023943655299791023
Ni 7.2412105511918305 4.942361406977387 11.471894346520802 0.6865351947956112 0.5922703253727541 -0.1004080062061174
Ni 7.489144797426861 2.433527419125974 3.5707741288047514 -1.75027667727316 1.1439293049820494 -0.0898662261345291
Ni 8.845708702003312 2.1340130777722903 7.667572690871217 -0.7714173374519876 -0.6639238851539986 -0.4838492190541732
Ni 2.248490536816577 4.329405913514086 1.4037660766594675 -0.03497574474423654 0.26468967113774416 0.7850310715806803
Ni 8.587817480104903 7.218159597309419 12.778335612918173 0.6672557777407089 -0.40994311579332626 -0.4023953853530553
Ni 5.560452701084903 3.1244915602122108 1.8430158371626337 -0.8214808297672821 -1.4261122478085504 0.7011123212788377
Ni 3.7780152519173797 9.072313181598858 12.72346953075671 -0.13733650380135057 -1.957068190542539 -0.9839642651479054
Ni 5.583420371713625 8.465196769588708 3.61280070935568 0.96022012745343 0.29427175567023517 -0.8259026129840614
Ni 0.05022165271402084 1.9631065875056242 2.441133030926839 2.828987379466031 0.1534704332487357 -0.783611051304702
Ni 1.1341513487499673 2.3022359965311687 0.10310466806817885 -0.4449366011493756 0.6221110628832706 1.1485886581309315
Ni 5.055025141830202 4.278408801171263 9.112823081563143 -0.49739507605940786 -0.8212910823539792 -0.4058679172826881
Ni 3.7308954377185675 2.1242781907854185 9.13749990963148 -1.6600522964682636 0.3381370895946177 2.403864984829105
Ni 2.0277991682330194 3.081776504764112 11.727044624003325 0.2274590689210599 0.38847003352121484 -1.4747850304239052
Ni 2.8635003505375636 0.8780275825687561 10.867005298862116 -1.5510393222019545 0.3422454553360364 -0.3311110359857717
Ni 5.8921328857526225 1.5431831687059572 8.85335225395308 0.8270781213494013 -0.12722281240611638 0.21145138063889388
Ni 4.649324652021812 5.397041703650334 0.8617364527775132 0.032462234293763444 -0.013033693255506587 -0.14413732877326788
Ni 8.282371520349523 0.2048869831416581 3.5084190313975885 -0.12082025131388226 -1.5651161120099948 -0.4097731658743652
Ni 1.6911682568181738 3.6937140917934244 9.201832521629036 0.39802579553045 -0.802268004284257 -0.17866081647143423
Ni 3.028910146060692 5.309261154261108 10.31986578468154 1.7251965943760803 0.24576558053973155 0.9007142587783132
Ni 0.09619308338139705 0.20704587015119913 0.012445294209737365 -0.6303841015253402 1.4460233849101805 0.013987058307711395
Ni 6.045549892744396 7.098398278503247 12.425710615316913 -1.6993631782527443 -1.024724477784403 1.4717788966077299
Ni 5.2387942679445425 5.110473281398011 6.679450199141237 -0.28537830983534723 -7.636176389019106e-05 -0.10685530449335791
Ni 7.634825715520322 0.6396487016404206 12.049574755198975 -2.9270376840732495 -1.3253170334663433 0.6768603907100085
Ni 7.765941317912893 1.328876849571964 5.5070385236461 1.150063185793929 -0.7447691387368399 1.2382121721270352
Ni 3.168196761009734 9.207158023017769 2.8563296623948573 0.6269701907477847 1.1861103092254734 2.7421332006849486
P 4.590702495118929 1.232869765457141 1.6514125329845255 0.46958396738441066 -1.2789813836245971 -0.6097859656590143
Ni 1.0957300077143293 0.5144906279951386 8.476592694801951 0.5992891798927485 -0.501645880915962 -0.39675284235529734
P 3.318689600427504 4.6228775921278205 3.6347680555706368 -0.4179855264818285 0.8453650925840474 -1.5788522306491648
Ni 3.202019015702715 6.253721012189894 6.0357576328494265 -0.6689341938843963 0.19921447225306982 0.09353519034568408
P 8.627349264523074 3.866175202795637 1.4049977434445935 0.392519263889924 0.45634767119979475 -0.2118900108382093
P 5.993331292680787 2.383335378235487 5.778251364656962 -0.4973937905078273 1.719077111741904 0.769046780337282
P 9.05827532650467 5.86014286264082 5.5259725086877705 0.9983274758481129 0.5290222160463857 -2.8208423817613935
Ni 5.454608939339809 1.4831544501852 12.982289823618505 0.5900656044119515 -1.4242433129206116 0.18411798293126355
Ni 3.1271843854148527 2.3758583927930994 2.795829930806009 -0.8203983953363807 1.13244984358754 -0.05184398125448491
Ni 8.50639421908068 2.598761394446868 11.906634781521399 2.442971463912264 0.6366413952889616 -0.04552189569119902
Ni 8.265853675034345 6.717072020941452 2.996723944617976 -0.016438862282313622 0.4149405690079176 0.20739495118133314
Ni 2.1812161752247925 5.758046847311776 12.636898439284959 1.087405658863708 0.18160113004668077 0.6512005240500591
Ni 2.0526453389171926 4.220425149213337 5.212110313462277 -0.07717783203358322 0.3908819853968171 1.2665608984730574
Ni 1.8414852760337095 2.4694410088560583 7.145191437273697 0.04258029656437183 0.3848735744192081 -0.20928188379140086
Ni 6.618196291421753 2.7293310288430273 10.952831467898083 -0.564237330494938 -0.7155390382271289 -1.4899033741225824
Ni 7.347914906558387 7.9385967565070485 5.223757939175561 2.691863763006435 0.38297275785206947 -0.4931242165981959
Ni 0.7530471798646794 7.280159352834172 6.882822352435224 -0.7819627170680017 1.2501873422110406 -2.2789286544643206
Ni 3.1323294397539216 1.7570453104869375 5.209347160178741 -0.8890231955936302 0.15000227219447715 -1.476980238303011
Ni 4.133792057986064 2.193551350465762 7.108271045543449 3.2411341877788953 0.9248250357835879 -1.6591719507458391
Ni 2.971657535996267 8.66347568923481 5.153763916666057 0.5542663353251551 -0.19949986470397255 0.6977894275531917
Ni 0.8379960986284455 0.5384854587527035 6.0125030976802165 -0.1331232370509514 -0.45139906894526777 -0.20385248524571342
Ni 3.7046427054165187 2.8660081018431174 0.3003277411313891 -0.5492089754069058 0.10400420819780798 -0.77226991526027
Ni 8.080243063643973 8.972475067814296 7.487914981380706 0.435473913074579 0.010295211278420981 -1.467634021201421
Ni 5.204833207828744 3.7786537568623357 4.172968500521824 -0.4295899434899763 0.6763186592739255 0.835127216906123
Ni 0.8656442881145435 8.433141970612926 2.0237839900356778 -0.45376731206712817 -0.23439564813989308 0.48765162351939895
Ni 9.16940294801165 7.46749115146747 9.166347377970714 -0.5976475305242676 0.4012718132715734 0.5981928615047762
Ni 0.32591698351237414 4.379560939625155 12.791906156422211 -1.010742304572698 0.6690663485868865 1.036747470387208
Ni 6.842885256182429 4.643679898160603 2.759979266200935 1.4256553627767898 1.5679409830532995 -0.38060708583337033
Ni 0.31764973252941675 2.7757383085380476 5.074830824927163 -0.0307503938089793 -1.6373800516817285 0.4349023568418252
Ni 1.9054375611727494 7.482121243032341 11.043683318609498 -0.4356765160036884 -0.13368116643695044 0.23384877449748762
Ni 4.472671617250538 2.9595444494318044 11.301853076723026 -1.557652456643098 1.1806096911222184 0.6332570521977611
Ni 9.217263057798817 4.360165195210247 3.54768245866498 -0.5503325474883878 0.8202485000220776 -0.8045935670936402
P 6.005999600936516 6.6459388685953655 2.127704833990018 0.7618080964969977 0.5602768031852932 0.5433154927406062
Ni 3.8870607920821096 8.048151249888774 10.103857711063814 0.6593928300528644 0.27242792032226626 -0.23191813313367798
P 5.7728805201634446 7.363183503068214 6.428742620558331 -1.7838509136841794 -1.0167550864256811 1.7007220062734838
Ni 6.174722219217534 3.624570483841043 13.318377543145393 -0.2209428650690969 0.49755294179351084 -1.9849554038711104
P 4.362506380008421 5.292391668541463 12.217746778636153 0.5412231289879518 -0.4175983183457389 -0.7019875247949394
P 3.2656659289115586 4.234564794950923 7.473017458034542 -0.44822658475455707 1.011764318079309 0.5477897264618758
P 5.0225816876705345 0.3157083073489551 11.05860767767074 1.3803363271250164 1.257718360480763 -0.6095365686523697
Ni 5.231705937686041 8.224369361001887 0.8167024213988918 -0.3930288565364909 0.7430382720886622 1.1497574816280522
