# total energy = -340863.9285585696 ev
CRYSTAL
PRIMVEC
9.26841898118322 0.00000000000000 0.00000000000000

0.00000000000000 9.26841898118322 0.00000000000000

0.00000000000000 0.00000000000000 13.56526804511020

PRIMCOORD
 96 1
Ni 0.9118993235109513 1.6643114057252475 13.212855620228925 2.394185552757812 -1.2179295106185992 -1.7210249794968944
Ni 3.338197087948057 2.6151770150552207 7.528302732651867 0.14931604476072996 -1.9205544118872213 0.5659098331013545
Ni 5.015808674480662 3.100823617106764 5.87994690968611 -0.6513745877340782 0.7542963615009848 -0.601711416180996
Ni 9.04385416486195 9.016419645565934 9.36067188642817 -1.1642425626181048 0.4094070407841982 1.7380942762743552
Ni 7.889528228644776 2.566749527446546 10.500209133797803 -1.142437036707239 -0.8493400180713953 0.22423130601238156
Ni 0.48251294969546804 3.7120109501936165 1.4985689086607275 -1.3710523307199292 -0.9027567431296388 -0.21707798279705193
Ni 3.609251992276416 4.362014420716857 1.6903408327492093 0.9418863621412488 0.10560754812918587 -0.5825101606621967
Ni 5.599663440876992 1.9109347584102643 9.001681006179272 -1.0695550038355324 -1.9679979500811655 0.1601918111329693
Ni 3.468650080884342 4.163160497914157 11.287455640783092 -0.3763585949696615 0.366950157171568 -0.3460020941649912
Ni 1.7962751509065498 0.7380284232631188 1.8864948651901088 -0.4021971532993202 -1.4260659679516472 -0.42777757287158585
Ni 0.5896382596533278 4.366444724846416 11.250368063430725 -0.6992048198434797 0.43280793620664165 -2.979228764254508
Ni 9.188293201587992 8.370179153027214 1.882886669797562 0.1268572015365815 0.048637558502045264 0.16870550503093523
Ni 3.536874910795816 9.170293932509324 -0.0588998738764333 -1.171974898265356 -0.46271346551682246 -0.37377360785130465
Ni 7.666270559454777 4.885429828893827 3.155457237864293 1.8284171303303283 -1.5575462700825369 2.01917781538909
Ni 2.2055499830259446 0.4558273186288853 6.919751337837916 0.30753170600393487 -0.7561395853573106 -2.3807068015450867
Ni 0.3541027162364942 6.731087114533201 3.8423082336960594 -0.12045901131972157 0.2468097055335298 0.06153472617968757
Ni 3.313672852117903 0.8125288994635561 3.65078006901889 -0.49174481975216594 -0.13205828612154677 -0.7399580905014417
Ni 4.987382434385772 6.513195859759551 3.8257854237132873 -0.04643309465155874 -1.8899623980329776 -0.84612999577453
Ni 2.5499829580524613 6.811740893896012 5.606810318521978 1.5987942209887303 -0.9522193686361408 -2.111566550835157
Ni 7.806371976238073 1.7639932486403271 8.0533873830333 -0.201306321785092 -0.04115333430985816 0.07146715480205111
Ni 5.237221928353126 0.348570397125754 7.021002324035703 -0.3156188538874435 -0.3015862870537774 1.1750427385574023
Ni 8.497721862497638 3.0360095652699295 12.744325006955744 -0.3392429210642867 0.8410739214078613 0.8487862024504543
Ni 2.4600700284272468 2.7616551038911035 5.175543382556103 0.05335501858237262 -0.145979009967697 0.42533039688267393
Ni 7.045796270849476 7.310038887447237 5.2648705481206735 0.9922540159605234 1.0572306779422245 -1.075425089463064
P 6.844699390725953 2.6875448281171397 2.3579691282364035 0.30074682187161755 -1.085848084568601 -0.24821018542548223
P 1.6080335674936934 8.135994018212214 0.5779656131663683 1.101930077732128 -0.7407731302035693 0.3669807532991873
P 3.4081458437342125 7.9724064284910465 10.803853651892595 -0.8686155784715557 -1.1442612344001712 -0.13172455693121185
P 9.189201506618739 3.4381755202609314 9.115548163885753 0.7791753841308517 -0.43137608885612155 -0.6478367497841488
P 5.587623765010263 7.055370547347038 6.894967586284692 0.7413210322872393 0.10114488437214192 -1.5706290714084241
P 5.777904400532957 3.5798525682200113 7.741617242280798 1.1405704158121455 -0.03214598860492529 0.376349596108597
P 8.421665218800648 0.23548456711408774 12.436908242457749 0.58213272271812 1.9828105896139658 0.5966861950522626
P 2.858528615945814 2.1487345765108876 0.7360143958837188 -0.0041042519763606735 0.9462767778994607 -0.5768547621486324
Ni 4.593474640439617 3.148935978480281 13.359129803853827 0.7232996560091544 0.6826980804377081 0.3190841867282247
Ni 1.5828420055185017 5.64623724474945 1.5660698750732085 2.6832950475008173 1.925819516940903 0.3703357858143493
Ni 1.4655779723654017 9.15294345273833 11.28177224644785 0.7751665200817747 -2.4139393383459717 1.3966047252677367
Ni 6.2595377772955905 5.580199761646712 1.7321895967780487 -1.1855570078251647 1.3271949672153465 1.648929961302857
Ni 5.548798359155193 1.5083702614159757 4.510627953216862 2.0192014695381744 -1.2958334221849297 -3.1907971300872404
Ni 5.325040195356416 3.8712979936467597 3.380084779335357 -0.21189695281674475 0.007245368708503652 0.618878929099218
Ni 4.311983496676355 8.195404581957977 5.181756003598035 0.9071870109868506 1.4282118106500563 -0.0852238422665113
Ni 2.3462816522795538 2.869836086736739 2.7698919475729844 2.760303700946388 -1.3199673391186557 -1.1750553369628924
Ni 1.2866140760523126 4.382970315354793 3.888172076697545 -0.9301261362815271 2.9578598116604287 1.458125053269721
Ni 0.09056449945849544 5.5328844842797675 8.768900963636325 2.027380920025173 2.0634385849796786 2.0204469119095005
Ni 5.13433321257439 9.244580308238227 11.012080726507477 -0.2800080466623694 -1.253395564735693 -0.12104753683333992
Ni 4.777221040792147 1.5893298985952617 1.8283132937614597 -0.2812946266842768 1.9505260185486473 0.7008996910473992
Ni 5.936255333699311 6.015129576675353 10.461860124662941 1.764917567114786 0.2194012316135899 2.1909377909756333
Ni 5.79755344813686 7.675566783391907 8.860493330726554 -0.048574823584909894 2.1497757149150267 1.5264068683652552
Ni 1.4476621190548626 6.789626446922941 10.336313832576423 -0.3686848804744876 -0.5741656453522433 -0.17408579550624212
Ni 7.568414595019871 7.926805808580104 11.139200796086044 -2.7856344664016928 2.733112999464209 0.5529095641869446
Ni 4.720192460647425 6.983994455083995 12.379582146073364 1.2112341008762948 0.35843234950854397 -0.16459791062046492
Ni 8.74908137712869 6.1407722603161545 1.2948184802688099 -1.8266798359242478 -0.664008731558321 -0.8983601567238398
Ni 7.971359097180085 7.392796597850655 7.616721593185692 -0.8738218052628434 -0.8258751021802356 0.02859940890424752
Ni 2.4163138238338395 4.165366381560256 8.996973576331147 -0.9509451299094075 -1.8457152552891438 2.0020128735740292
Ni 1.028914963043398 1.8115587733116603 8.229721828966566 -0.24656236540941404 0.5369756665655074 1.0439025933747506
Ni 7.2486170768476805 8.166357357811451 0.0877886080635102 -1.1630400576695712 0.42055791519469504 0.9572116796444096
Ni 2.0217943142547337 8.606060408460852 8.921170887306017 1.0409784777494202 0.2159911774907764 0.654869488261214
Ni 2.4176206708678727 6.698453012357097 12.50605064581865 -0.60600207313655 -0.016305936248875143 1.0976944423842256
P 6.910699800153967 0.26633820606155484 9.711212749365524 -0.1225716867873502 0.6849706785219687 -0.5800545000328525
P 0.21795891423002225 8.748645761450678 7.371339281762072 1.5423410230970083 1.2162639499907184 -1.0957871980591838
P 5.12664969348777 5.2117708506548635 13.684235345404673 -2.8754333296333963 -0.5548332635722187 -1.5755352504607896
P 3.1452193425891655 1.663718226929658 10.013080511599153 0.13993177533235254 0.39879789780978414 -2.2864511880936105
P 8.653709348900316 5.113534881054033 5.157622895036223 -0.17777352877047448 -0.0818919496798009 0.43996023098070675
P 5.309738036113942 9.044178559515787 0.9723572185676751 1.5334938571190235 -1.6829759951439724 -3.08715236211138
P 3.700898116194994 4.826343659801903 4.780454792069978 -0.10034347151676912 -0.2017773478842396 0.05162466615482722
P 3.812221092973518 1.0935158412505674 5.576613810459 -0.6051659503884996 0.7296963035641175 2.619163507128231
Ni 1.161601644881825 3.952785930690868 6.864594978266773 0.1509684927624884 0.10971462831902397 -0.1824123130940665
Ni 1.0401946285782797 1.8783840720022904 10.727711738743738 -0.41418620734039635 2.9596621549764897 -0.7554646707774731
Ni 4.043875949488581 4.845075133956377 7.135547929989641 -0.6019237893021181 1.7057215163706043 -0.21495219470330074
Ni 2.774649426881986 7.856680952839008 2.902506335745699 -1.0946949934362695 -0.7673282549842785 0.05567209675132348
Ni 6.520592057867058 5.498591335159751 8.264449666922726 -2.40955355057345 0.9125829851914412 1.1966441188772616
Ni 3.6734265232242556 7.780188693464005 7.380143352667235 -0.7687109942644181 -0.8345430622678789 1.5423772756515826
Ni 9.112375584171218 1.4913256394614587 6.077538473864445 0.7207280386272361 -0.36029768485205693 -0.4004493173702781
Ni 3.3434986234336375 1.7387368077343677 12.051939838329503 -1.3100516226668406 -0.09138214855842326 0.26322671343897247
Ni 7.517262192318958 3.259295039715972 5.311494401454008 -0.4870134757147677 -0.9025425702363037 -0.6649451273296613
Ni 6.081658285968189 5.280060559497105 5.761657789426882 0.2874886713101307 -0.8644403640479436 -0.5557066673161074
Ni 3.9974597087337025 6.6210895216260734 1.2262173525588838 -0.32108219099485996 1.76679678641537 0.12201092918787375
Ni 5.037459700519679 8.634254938088716 2.907253619794151 -0.7117551457046645 -1.052023422709672 1.8510767767113732
Ni 3.85175089864835 6.045168521620752 9.405492105486164 0.3218239542568909 0.9978091414507976 1.0523656365404392
Ni 6.5743766914734 1.528668098327554 0.0019343189787426442 0.8052394282077552 -0.21752381208521895 0.23193767351770378
Ni 6.985097396907045 0.22070236615962371 2.1985504732379884 1.4692036796813859 0.7095537671779716 0.7573287205694054
Ni 8.799381085310943 0.3381184013790933 3.938729446919133 0.5324440972437411 0.07352943664771854 0.16325116678458337
Ni 2.0157235000186224 3.9531288621820684 12.97053930170501 2.1756669808594915 -2.0488930830653356 2.012135563830328
Ni 0.6416516984497144 6.400899699019513 6.318131793355548 -2.6258126370136328 -0.09904712130284878 1.8799610638458912
Ni 0.05072605544158357 7.50695571074559 12.660681235726415 0.9944782773053518 -1.1594492549945195 0.12531453963980999
Ni 5.203781473751767 3.9255367797684753 9.943245757362774 0.5879321030087165 0.9566941165780427 -0.9160274920966159
Ni 8.17129742496847 4.527149836357767 7.397357586683617 -0.7469558619755136 -2.9502166932928735 -3.686341011870522
Ni 5.545341238987148 2.113987274875496 11.427313298155074 0.3145528745167744 0.4861084474019951 -0.6226391674725986
Ni 6.981640276738999 5.846203377793881 13.17260751210631 1.9825503939740439 -0.06636557190942764 -3.035626683428262
Ni 8.906153268517055 1.405768866616354 1.3645169887505766 -2.557526965263357 1.0407383367141558 1.7361610638073843
P 6.927410759035965 0.9163231397474336 5.97933957793834 3.215252434916127 0.6607480585291782 -0.46501023197079916
P 7.604904359367307 7.131631096255013 2.8361314822029695 -1.057016247938573 1.338908913218165 1.1680845620720142
P 0.4926711365699383 5.223476863449076 13.138748124980568 -1.673143582434583 1.5927423583676956 1.2638632970362362
P 0.5589292080372857 2.387702215365327 3.5856119635884385 -2.1310801953880523 -1.8326149704617598 0.7570775237905477
P 1.6977982024200111 8.695463575058607 4.63816880900355 -0.9681375825282938 -0.43063895357978094 -0.23901797740325287
P 8.40180299756708 6.273514552666668 10.588301745994052 1.7197972777373802 -2.8498153719549757 -1.0371421347224654
P 2.2831637210613582 5.921759526882092 7.984109660759654 -1.7373234595466014 2.171884630998924 -1.586088600496604
P 6.561836520997891 3.7647204472329525 12.188284765021354 0.24667497972787839 0.4329956267374156 -0.3014546465719195
