# total energy = -340882.82340133534 ev
CRYSTAL
PRIMVEC
9.12573794406284 0.00000000000000 0.00000000000000
0.00000000000000 9.12573794406284 0.00000000000000
0.00000000000000 0.00000000000000 13.35643992486473
PRIMCOORD
 96 1
Ni 5.673471121097139 3.1355304639536885 9.544150936633775 -2.9474406732096337 -1.153224614241046 -1.6539477262324227
Ni 4.508853602996293 0.8877389863290335 6.491082463583188 -0.2915304454796721 -0.9976967842426495 -0.6892204549372581
Ni 2.3047506819827692 1.727529521693826 5.231851122272899 0.984704999968672 1.293767026574204 0.35892394443298187
Ni 4.169458292613916 2.966476173269557 2.5958106101229026 -0.4549631321474422 0.7754385427962387 0.23416347752442895
Ni 4.884678858232167 4.6440149039044 11.61793832345192 0.14219948832060672 0.37940869464989496 0.5781272011031527
Ni 5.767000806669158 5.699479473510082 5.180241425347932 -0.6088354288202869 0.8330032285845848 0.793242403746879
Ni 3.397585147423891 4.544124579163319 9.371825981561996 0.4578862193315082 -0.21133053879031344 1.5599991024984037
Ni 5.548229497056705 8.352632568974027 13.098232447108305 0.7522219954704594 -0.7429410843891657 -0.8723112821555881
Ni 2.180047476465973 5.445145164124563 11.966661962899739 0.8431338892606833 -1.2314923369046984 0.3980466214660564
Ni 8.127911278388508 7.467965305951027 9.557187052922158 0.11006609812117174 0.5241348060470974 1.4012828474696963
Ni 7.884153698984252 0.056137887966127 7.358583301439876 0.5509375280622382 0.020140736613933057 -0.6767421199645893
Ni 8.928448365658902 2.0028256505504087 1.6332122849592672 0.11121640967553104 1.2467744598747497 1.0491936665703607
Ni 1.48121673573672 1.0693083136795194 3.1024606157171886 -0.4367257832038091 1.3501441198123523 -0.6808358304179887
Ni 2.023860475922982 6.723633637105657 0.8513072163279977 0.12145865622882952 0.023615582536410943 0.4419006425365292
Ni 7.4627545097307495 4.317331746122454 4.242633020271175 0.6737879224322718 0.02373102506835268 -0.3613893752543389
Ni 7.757725729044282 3.74845151008103 0.197517466535349 -0.2703075315451538 -1.1378653581761564 -0.8715849455125247
Ni 4.615734242806957 0.1572227717706644 10.64418743425886 -0.6353692134447573 -0.3556442452404456 -0.17569504897489097
Ni 0.5290536916201726 -0.03462578651243184 0.802968183790678 0.925662958303851 -0.16153366987284437 -0.2441694396972053
Ni 1.9185677144701612 6.770010636039895 9.834065584693969 -0.6416411624963981 -0.30712367193223883 -1.320573348133771
Ni -0.1268048629065161 4.634588016871918 1.9787300527570277 0.8673616514597966 -0.29206986292290993 -0.541841222187925
Ni 6.407727975534127 2.2667328587714284 7.484321365610577 0.01849343081849718 -0.8030321361437912 0.31503084259445746
Ni 3.0368173593744574 4.38829348239019 0.8716055946690887 -0.9211069635020523 -0.9047200375035966 -0.696654028397168
Ni 8.604721946888112 7.475494039544246 5.266524362621312 -0.8386948796527235 -0.6600654306398568 -0.775770986434993
Ni 6.713129913025902 1.1343018174988113 0.7207763147231641 1.0020509474462873 0.062276746552034676 -0.30871287079622967
P 0.20245905349380822 5.9195922665627805 13.347050248060976 -0.8739701579152497 -1.3686563196839268 -0.6537464304003644
P 4.0668393723039 6.297808465073109 13.076181014557205 0.14729438634501085 -0.1583789262939466 0.10350541418451852
P 2.5715963777395676 8.638788325680224 1.857186177628077 -0.4396450137331331 0.19617825652990728 0.737067142106892
P 6.522155600413388 7.8902314402849605 5.903373092968562 -0.5729595408592842 -0.55480395299618 0.7619826744016489
P 4.475289139777063 1.2861084639512015 12.871039906756675 -0.8920609539786895 -2.0993995764553195 1.3037999853301738
P 4.155897446408431 6.8203208279179846 8.657283458254017 -0.65105037162544 -2.108242628668246 0.5106524552899463
P 4.77022385613984 1.4285429777972432 4.284064781951877 0.10630560263747499 0.7149499984928784 -0.9062069064617684
P 8.943040420223216 6.147854343371535 3.4520256481799105 -0.5251591335465536 0.4823199268938403 2.3509593950793257
Ni 0.15314356702379225 0.6732768500532097 5.122448128565065 0.5331408662004496 -1.068317274773689 -0.5331724907693334
Ni 1.7348848662709602 6.397279005880506 5.412056151838917 0.9726326421851701 0.08220690981705843 -0.0313880273929782
Ni 6.911687713657769 0.7101877212829051 9.413618209881404 -1.0239037816553205 0.12421205060425058 1.3374554686010902
Ni 9.122644063675546 2.789610251123854 10.831605446894068 -1.682419094199238 -0.7454952182695871 -1.058307455946171
Ni 3.3465722737437678 4.246662033460758 4.872763382531964 -0.224246218410717 0.9548280099035815 0.09811612484814716
Ni 1.220467032756008 1.178178364306331 7.257675456946501 0.09066558210737288 1.3635184842367292 -0.8535771960811944
Ni 1.8108383810544433 1.1301678583258066 12.312326655074287 -0.10377023781013098 -0.11171006148249793 -1.2632827419424177
Ni 4.390839563205351 5.87213843058127 1.860191283048983 0.8270884057620466 0.5984337738709887 1.0411566551984972
Ni 5.706123010547493 8.097650332212606 8.202309767469828 0.7689184822895339 0.7721603862655992 -0.4202704658612633
Ni 6.774117217999832 0.7936699696596087 5.240065198766545 -0.5658892642760641 1.097021327576601 0.5698528769095025
Ni 0.7522765360771982 7.73258432171177 7.215028147005656 1.0203212065103848 -0.36284693363647186 0.37623621045918426
Ni 4.935764737813801 4.930791210773433 7.477829315818799 1.1734653667679533 0.7823285850478526 -0.49018287458168486
Ni 0.7599312048505235 9.186150072251571 9.082579337500617 -2.159231461011288 -0.7048116245072958 1.8129498879326649
Ni 6.060721799919331 1.8721633383228569 11.607427298782014 2.829944601172978 -0.016484627918584516 -0.3171370903041829
Ni 1.1573443051629102 8.037329206089954 3.6220527425016633 -0.9442831445081995 -0.427357968835664 -0.29808058789336406
Ni 7.698399308329704 6.646338638881927 7.452719848568198 -1.661734569266693 -0.49980317128026835 -0.6985337619183841
Ni 1.909551485633674 5.882112861875076 3.145214696788992 1.882831957635783 -1.6328610807654524 -1.2940516476941586
Ni 3.6750714533257747 3.030931258565212 7.459344221556463 -0.9626307937774519 -0.8502756425117873 0.001944011100248265
Ni 0.8976696140819335 3.8205448378221707 4.278895964124969 -0.09583375657187367 -0.48224742178469204 -0.17298819156668918
Ni 1.0917211254430943 7.501173865400396 11.975156199540429 -0.4917815865273724 0.9698360532766395 0.506774717502095
Ni 2.536170264031832 5.788747439581454 7.602925840629981 -1.2038938584611396 -0.13233185149790758 -0.6140038603951039
Ni 6.363294758727593 2.233195772765265 2.9067217554573777 0.7053728963274045 0.004336679702140919 0.18219248377377656
Ni 4.218043720068832 7.363804135971611 6.36713486914702 0.24845444022580432 -0.21545227426817087 -0.6733896585525886
Ni 8.48731020578463 7.188078931037002 1.6069401987271188 -0.050221358049397376 -0.04676708095220978 1.154557474119857
P 0.22351578063683467 5.823114967717295 8.7109099432082 0.14921628595807204 0.4741209360228158 -0.3811341619814339
P 8.510462202300992 1.8824389189603916 8.71762831129466 1.0682504260914958 0.5843353867963936 -0.7590945542205766
P 1.9681295958577734 3.556710635502661 10.764248377013388 0.4010828371892189 0.4530029230972779 0.19097331529020012
P 3.9342424036863326 6.423661513538688 4.108414408066316 -0.40884474052282493 -0.3164243805078744 0.07685464436620958
P 6.808274854168832 4.091378480948954 10.808083858001309 2.8184551124761397 1.9367366780740385 2.4073786544093183
P 6.917665071843902 8.539920083560284 11.164167404895107 -1.929131097812639 -0.5773237313652508 -0.4615017045969084
P 2.467097555465668 8.67852178757705 6.046633486075436 -1.6762960120206356 0.12895547882650693 0.45195468433842156
P 6.180743502001797 4.253533713940389 1.9767798826129412 -0.44135042646001404 -0.3822623620486062 -0.111894152468846
Ni 2.7913532670224055 1.6224831551586014 1.1031967405867 0.0003036472833478642 0.06539935134141639 -1.261475770640666
Ni 0.9513399025770218 3.759676167438195 8.698915073590104 0.9447462001875471 -0.4221764246347245 -0.4532176102112453
Ni 8.792420119670364 0.40263849771296617 11.353708064116717 0.3673206531371094 -0.09341794804152942 -1.2004274971790938
Ni 2.3848837846277013 1.7246184113711143 9.335576726314734 1.1428065042315156 0.6325895938170911 1.119315363088111
Ni 5.250602688075747 3.129498351341423 0.13622079905377046 -0.1984364564364647 1.233104932807457 1.4229047966148463
Ni 3.9820065147492603 6.679319054889077 10.902941338407043 0.795391845989714 1.2717167316423839 -0.436151655867894
Ni 6.646977440520139 6.346959688264728 11.616175230930454 -0.3643101484455597 0.31599937715531384 -1.5024840390010705
Ni 7.68198210622764 4.106527205512282 8.547680610890799 0.8831351122439695 -0.1368467086491256 0.04726947450992504
Ni 3.2500493462098374 8.461666882879236 13.027403946610827 -0.5390279211088459 0.34723082436576974 -0.43417036377180707
Ni 8.976705266557023 5.279768545728999 11.157101346202706 -0.6824414843422119 -0.04590884671697255 -0.13841045359181967
Ni 8.466330134838188 2.435321736833434 6.265172089376825 0.1520784379972155 1.896290397133534 0.5733647467175028
Ni 3.846297669579829 2.5931878731111553 11.303327604058424 -1.33820263117976 -0.10992777277109454 -0.48267345357851715
Ni 1.1241722486642967 3.3589011453612714 12.845502442408469 0.006283776126182726 0.7747098921603303 1.172375219027568
Ni 2.9218056872831157 8.741535006317882 8.25321130715015 1.7415786352785299 -0.705947537883952 -0.12908866197026156
Ni 5.454827571812328 8.334079944252794 3.897235712210905 2.2885288965582458 -1.9160835206000617 0.42204915502824086
Ni 3.3828653325319347 8.924697687468825 4.125056103315524 -2.261110909556609 -0.2669661258767467 -0.20583300601085197
Ni 5.314920887306071 3.1403579791910383 5.579799986590944 0.002704800525672761 0.08469342368433802 -0.9646192849623902
Ni 6.227677170935049 5.747006315393103 9.40011485582336 -1.22984785932274 0.7226548233363038 -0.5128389214183039
Ni 7.774635720981538 0.14345294617210644 3.254791079512913 0.7933766153318981 -0.6013946562715256 -1.8517889722870495
Ni 4.711490608375032 0.43538073196643956 1.9871175182667595 -0.5511606998166378 0.04968862547437894 -0.4831694193783292
Ni 6.717784039247166 5.722686224452579 0.36884862877282404 -1.0018190339411392 1.1766710181894444 1.6959248419951567
Ni 8.044511161651004 7.809377404362618 12.789151924754195 -0.25816446842471663 -0.20990640474927721 0.9612927916923186
Ni -0.0024310965202835417 5.027104246340521 6.480450979175792 0.4748986947291047 -0.42607087459312426 0.04351257857065409
Ni 6.561332392311201 6.190590172967961 2.937494655517618 0.6862739707144245 0.45576943009882154 -0.3672527760136514
P 8.226286730673253 2.3132832467217526 4.0082411854568845 1.029909107309136 -1.3512301537876794 -0.25812641609792963
P 1.8320100924923481 3.143278215251439 2.2906696687290253 -0.372482656954023 1.1563667594144538 0.20135594407610483
P 4.624476699512781 1.2271470727441747 8.60730361808026 0.2460031504718344 0.28974738543732037 0.8124894249019491
P 8.57014452678543 1.8365638355990355 12.849896485105603 -0.014134125408536948 -0.042649459239410416 0.6462231254401257
P 6.369126105110706 8.104476384003792 1.7471024038886613 1.0152815872039482 -0.024804460638189536 0.4708054984963375
P 1.8260966144700368 3.749738239095144 6.444709114944025 0.142997815852186 -0.4410061557467179 -0.5567783031137314
P 7.027173924108927 4.258671504259156 6.443707108945801 -0.8200574670571941 0.4610898138704705 0.11374508963465571
P 2.154906069133461 -0.37717038897119703 10.640006933823642 1.2398743903208067 1.4296922518503248 0.2909956560221246
