# total energy = -340862.8823578682 ev
CRYSTAL
PRIMVEC
9.28483604100570 0.00000000000000 0.00000000000000
0.00000000000000 9.28483604100570 0.00000000000000
0.00000000000000 0.00000000000000 13.58929607162456
PRIMCOORD
 96 1
Ni 0.739032082356067 7.607307437954697 2.9276777353367116 0.7050988167304114 0.2088838770220338 0.06536309878684227
Ni 3.7554561359512726 3.5635107239115746 8.565686339984165 1.1108762311818223 -0.9360427588762782 -0.7285328793836356
Ni 2.58175074818219 5.831703279765963 8.148671863921429 0.3256515555330972 0.05268216088506411 0.5818563291282817
Ni 1.858851996642172 1.9087487046333362 11.407480271962584 0.3266887385483599 -0.4305942163847746 1.0912299177058047
Ni 8.509357097698942 4.699584671880101 6.132034294906528 -1.4540596249510958 -2.9325578425605303 -1.3375130613119028
Ni 7.125350177365686 4.49008163520116 10.284651142369457 1.372496005144991 -1.0341604263863222 -0.404366135926181
Ni 4.529551472504926 8.8811404957976 2.770517960901944 0.07488697911687749 0.13449440636686516 -0.8116296480048151
Ni 6.172948852672413 3.3713424758108816 0.2689649825883217 -1.034994235141527 0.2254217267760569 -1.5054374652024396
Ni 8.082756028595474 2.563942432974328 7.043046606720714 3.1184308605096875 -1.7319164295984173 -0.05451278633589967
Ni 1.2424503125860862 7.313015280067102 0.8087779124803741 -0.03087714919483069 0.6047895408856874 -1.8879101434896388
Ni 6.785645887214454 7.423634814679445 6.183170528486977 1.1268558944395302 -0.24436484353746302 0.11856179429700872
Ni 7.277110819739257 2.1603956113479845 4.7846959768936115 0.1522555870050281 1.8361908607384765 0.4002037770183753
Ni 7.040319650424286 5.622423079148017 7.853783619570671 -1.254207519114027 -1.142109221054175 0.14225553836952273
Ni 1.4783129983135783 3.600668637082516 7.2950333384283805 -1.0161035688846114 -1.0783870003048655 0.09375321989376112
Ni 3.9105500344038973 6.855653549710429 6.462580022950859 0.8402046314290305 0.348489122252903 -0.7635459051237109
Ni 1.109992843996219 5.080420784956688 -0.06326780013446065 -0.17762440478711988 -1.0915343363201007 0.5974420993816807
Ni 8.440194355267572 0.1780404418336004 5.736557852622559 -0.5866588927232478 0.09877355592648795 0.9139886072897162
Ni 5.117727255501626 3.0237182206584468 10.24700856076585 0.20885122401188547 -0.9614115766583701 0.3286918850213178
Ni 5.214855923587887 4.551277988451954 11.910678451582369 -0.07233387367772058 0.7217238268816022 0.03921446541593246
Ni 8.21875101965364 7.7875353871204 4.028383886490958 -1.1295527245454031 -0.93330710511267 1.6965467918498716
Ni 7.407098521986429 7.829697826827857 8.335415910904064 0.051030741324570174 1.7607207554246191 0.9075171406327597
Ni 8.048374281351098 9.127355773525492 0.725495720134199 0.48987614197454343 0.1322680881395077 0.2471596326737808
Ni 6.6444235335587765 0.18391774294234753 3.8894465309440687 -0.28935477798459197 -0.49913339890675323 -0.8338012990058479
Ni 8.831475908703306 9.600705991258565 11.385315511762265 1.0211964100264865 0.07942111954180514 0.255735804378566
P 1.8933451619170463 2.5410367428712006 5.440175678179546 -0.19207246189164986 -1.3359104927114736 0.9587497135554907
P 3.0285927594927156 5.8561131132808075 4.163298122653297 0.9444736632524507 -1.2101220987590384 -0.2825711794038553
P 0.3204466120633138 7.792242798908922 12.287889764733437 -0.9863844445536238 -1.8862980618075127 1.2502547051138662
P 2.0287180689716005 9.115053365991384 12.079253003241613 0.18969316302619588 0.6317305882509057 0.7928806495320861
P 9.195097936068018 6.486479190492588 5.695939481121081 -2.2064430857000836 0.8295672063198423 -2.466002377589798
P 8.315146185705792 6.319212872208103 9.616600701792633 -0.5458711692829245 0.8070556554808875 1.3531258281484957
P 5.146900209820242 2.445040824761665 5.422047036134003 1.3952045024861002 -0.144245572216358 2.8740539327873664
P 2.5511572139747307 5.750210275292861 10.314221487663513 -0.0636178339609614 0.28094109999960004 1.0880093538859779
Ni 0.4444558084907026 2.657830693340284 3.82194855958505 -0.326352952475496 -0.44266323173416666 -0.16513681384307044
Ni 1.086650766606977 1.0300968312935828 7.288279548813052 1.1482078777527451 -0.2806438804741554 -1.9132355096283047
Ni 7.1267893269262785 6.07908844681408 2.630017967477327 -0.05025683927302312 0.4935556477086596 0.42644754120625267
Ni 5.607558056912467 6.201926825437656 9.927510858928942 0.9257719730778895 -1.074227726720853 -0.5907867988486922
Ni 6.116459911210141 3.3639981706339164 7.145849238010065 -2.42232601974777 1.2051123042492728 -0.37337405842004084
Ni 5.225598478695029 5.070086762628038 4.506740487727723 0.17776427279909388 -2.1671592004987965 0.8377469139171573
Ni 4.843425349252471 2.067370840718384 3.514287166521333 1.3994524791291767 -0.9197247384425451 -1.0025453705842025
Ni 5.890104897418443 1.0895104960564148 0.9940595978127293 -0.8817004366799719 -0.6801313481517964 0.10405254493724016
Ni 2.6703280824277624 3.849669365572847 3.8682473936747304 0.17436373175797712 -1.2692263611203625 -0.038679675958385
Ni 8.953710772995022 3.0273764459931174 11.33829710289229 -0.0319392719107579 0.4031327777397122 -0.8261849201111707
Ni 4.284673211143005 8.075365299239136 0.46998167927769713 1.1945558688896654 1.6855769231019293 -0.08216628638711011
Ni 0.4396982585884561 8.344978363371519 8.921399544150724 0.5760438362115629 -0.4567472206310586 0.20456288104917675
Ni 6.215055583364621 8.601796923668429 10.31791778082527 0.5865779029736672 -1.1429638557449866 -0.1344483836202781
Ni 5.3488082507535974 1.5195840937770553 12.143449286963556 -0.5479550483951466 2.9855886450342646 1.262217276792381
Ni 3.7465891176908404 3.66941356189952 6.286571103206664 -0.6765942815328154 0.18139981266915212 -0.7990520684501207
Ni 4.161593426786684 9.058694412231361 11.640468372503237 0.8809082797959796 -1.7772313514851328 1.8935933099173454
Ni 6.308823140864205 0.5212516144947438 6.6592031353042795 -1.1925912889641268 0.6400033697826591 0.33163656947193854
Ni 8.10502106502324 6.643235074566803 0.5054051851072262 1.847767252722166 1.0565179681459158 0.4468736702710885
Ni 6.921863714333614 2.063053392036603 9.011429026727114 0.7796268698459735 -0.35651147833674723 0.5213099350037925
Ni 0.6922792197921093 1.8180172884648107 9.356108131940063 -1.321009921450557 0.09888642735526841 0.3241366615504676
Ni 5.514821116194985 7.255792836570722 4.453483597633469 -0.4943670878663615 1.9637430314595536 -0.683137739078288
Ni 6.42968384944645 8.85431660495531 12.66879737104626 0.4850239560885647 -1.1138368564720431 0.6152801560043663
Ni 2.017882665505711 5.3349924149718975 5.898488175729797 -1.1374640089726797 0.2050778730123823 -0.7140022898676284
Ni 7.372252532948313 2.331143743085519 2.3319366680692264 0.4697793712246684 -0.18438332077750824 0.5376415822842805
P 7.278949217242468 4.216568940001363 3.7634058124272745 0.9648799948229448 -0.628887976595788 -0.13082235683191662
P 1.044051939613404 2.6018895571946263 13.278821301339947 -0.3961149516609823 1.1559253010016608 0.13344308228421536
P 2.5176111019590857 8.181602391318574 7.963136702569691 1.2222183678019403 1.256358761129075 1.3904327921290698
P 2.9571459474361457 1.8691488796273228 9.612469878311936 1.4198187014903547 3.217245811197072 -1.8793846225171311
P 4.62312404845114 0.03238736449847018 4.89535357933304 -0.256433601776539 -0.49216982310472657 1.1817790288399712
P 8.479237090121098 0.5845695527429284 8.046330688975056 -2.0433832089907003 -0.5038655142751 0.0049095214864754155
P 4.735247726475199 5.16994517246149 7.695251546393608 1.889721742777081 1.7794931509361163 -0.3090347729120226
P 3.4749241048301274 6.209661093721363 0.5409187538447409 0.9145861316643991 -2.3570719357349668 -0.12598071246889916
Ni 2.6666605722572174 6.936700882061541 12.379848636204612 -0.5204768975795359 -0.1381649132399169 -2.015368726055645
Ni 1.8934287254399196 3.872640049527097 9.577830941113827 -2.474949559480757 0.5270056998369892 2.344648622369949
Ni 2.7918387295212432 0.0015050718953047461 10.057084457496096 -3.444999014319783 -1.9585239491524593 -1.9570530210338877
Ni 1.2672593940435464 0.18670876460631175 5.032265912175636 0.8585322260936247 2.1200712458720585 -1.8192318642866347
Ni 2.015412899163015 3.2843249939922754 1.533361861731668 0.5614548826537944 -0.5892271676710561 -0.03152121053673281
Ni 2.735006249131605 7.805733665435004 4.25792081353695 0.9463963341964605 2.1908858546917753 0.06676537845100759
Ni 2.659882642068615 1.4593255089496167 2.9535248614449743 -0.9321642497574784 -0.8623451720818117 -0.03837062935839843
Ni 3.9239016283918566 7.449019555961142 9.415452160433835 -0.41470942683371803 0.2909804865134731 0.0319662684939514
Ni 0.5542499211937757 1.1817460556366575 1.3356403532942582 0.11811596500884174 -0.06486918986955925 1.014257002594176
Ni 0.5307490731110747 5.399299188240748 11.39371364581102 -0.671822828286101 1.3890405397672336 -1.554255515146407
Ni 0.32999328030978103 5.273062559686996 3.8100305442561595 -0.4633089330089763 -0.20482821889542144 -0.1960273327743398
Ni 8.060091744225094 2.373399031151724 13.335814409390219 0.8617039389533869 -1.2718923379882998 0.7017139594185785
Ni 3.11270408768251 3.6144287638489665 12.767279768203066 0.22870631106459965 0.4395218578917076 0.2309794233694925
Ni 7.210807806757326 6.5345932099957915 11.784556026509877 1.7050789976905991 -0.30736869806350936 -0.9414513314863592
Ni 1.3593928204291665 7.593259481276128 6.411823539157688 0.8316297452758258 1.5645751519048605 0.08804408532412578
Ni 5.5290361999193 4.346733054130155 2.111504451082061 0.2919225387117682 -0.8899531636070673 1.6978133172671215
Ni 0.2347819308316656 5.768102154023597 7.902352596031738 0.9317009369678149 1.6154624256730308 0.17551404331233642
Ni 2.8723104020481167 1.3867552317521958 0.43148582125719737 0.6585073421241175 -1.6570340784672304 -1.1629626674644165
Ni 2.3047562395293433 5.424071130354709 1.9596036076867793 -2.042456583411373 0.3899988114609154 2.6077570650635025
Ni 4.450082562252531 6.214034251418393 2.6434308413820604 0.21719651065278722 1.9461181192889387 -1.6930382644759812
Ni 3.421044202248675 0.7768594321935812 6.813632239508269 0.8339244548472734 -0.24838219222697225 -0.738962559357392
Ni 9.03072848657647 3.8402081178164282 1.714085621133085 -0.37806426480685856 1.3005267138955408 -0.38017822582606786
Ni 5.964272166386329 5.86906545932615 0.15035863215647785 -1.8924815649104054 0.43184840050684975 1.0659806562207126
Ni 4.9614263283852775 0.6458206865253828 9.024039690812266 -1.2128916910843757 0.9597722412827342 -0.5105742937538432
P 4.3334928781726925 2.624860241148877 1.602354691666529 -1.0923162087914478 0.22092692422949695 -2.417933289996713
P 6.43425198869685 8.01772503812839 1.662296663590637 -0.6844004078407955 0.07867112874965806 0.16151875747450894
P 7.018166032027018 1.231382788223327 10.999814697142181 -0.05950355468227172 0.9231314501312489 -0.20224374599769684
P 7.916037515627604 4.796211958829123 13.111048031016697 0.3250301198990144 -1.6368745728002196 -0.5106789376525077
P 5.145043242645282 7.078368907839208 11.89216913126596 -0.4240466450742439 -0.0022988233365057184 -0.19977034475653982
P 8.938037970038362 0.5698530878813737 3.3292413160201977 -0.5579568968028649 0.038117632807327904 0.42462745727837836
P 8.785896649393923 3.929212554512241 8.600420910991785 -0.4609016091190643 -1.7360273664429975 0.8235315416487237
P 2.4552541442239426 8.629874267353818 2.0591723306409375 0.6653552182838864 1.4999059938612493 -0.23435759581310606
