# total energy = -340863.24011395924 ev
CRYSTAL
PRIMVEC
9.36579222689269 0.00000000000000 0.00000000000000
0.00000000000000 9.36579222689269 0.00000000000000
0.00000000000000 0.00000000000000 13.70778363284655
PRIMCOORD
 96 1
Ni 3.715681314211554 7.574275249314332 4.833460498005041 -0.540849804808933 0.4637295654861627 -0.8589479734748046
Ni 2.193037671679893 3.270637607578803 1.1687403314960445 0.22136324043596714 0.9092456932880921 -0.11466734433860896
Ni 0.24040676981508965 0.9433413068619037 5.090522455822678 -0.7930367154939761 0.5182446658149075 -0.24464329400983031
Ni 7.412574849570773 1.8435625071255246 11.554318219667307 -0.34277921635231934 0.7659234042169518 -1.4359384898703529
Ni 4.74431688927297 0.667836231339372 3.579855788164579 -0.9466896970671631 -0.13656620129422933 1.185134061355133
Ni 5.684408266293518 7.888282159375282 3.6212123161198435 0.9106438591871994 1.008479219570134 0.6786359945531926
Ni 5.876257150646085 1.449300124987971 6.062637349020647 -0.016210291211275308 0.5480401519097852 -0.9211771546183555
Ni 7.993085372414983 3.7324835451492864 1.7369957154428062 -1.415316956965259 -0.015581656488340907 -2.3855818702492013
Ni 0.14097952141209955 2.779888835741965 9.001476787960286 1.5345354110096605 0.23603575484647737 1.274555743753076
Ni -0.011471222102861934 3.5991895926934316 13.415012633610724 0.5695124628509483 -1.5285575961596707 -0.5822515076841714
Ni 8.515565447717282 4.792344670905463 6.089573366956498 -0.008317004506127611 -0.46654158101366106 -0.6256758974163934
Ni 7.655654616436937 3.347755539318651 8.087811929788069 -2.0704762085527504 0.5777785595144823 -1.4072406077150281
Ni 4.2301911004792885 7.779002097735673 9.391092800661825 -0.34689760939606706 0.3411193121513932 0.1147575900595701
Ni 0.40443363230387325 5.482041597468782 0.8937363258481887 -0.08178139224386562 0.3277156371509775 1.8196301281663179
Ni 0.4328054261609925 5.143618067533435 8.04596182459177 -1.0888758156513312 -0.36784053019632135 1.206641596409606
Ni 0.2459681771343903 2.6416029161234507 2.812796482688908 0.7393392259705203 -0.6673966741939473 1.1359522003138436
Ni 2.491029077335313 2.145496911234002 3.2734183112384536 0.10849952496500023 -0.833471683580571 -0.06429300565111508
Ni 0.11872827265966701 8.048409106054438 4.363941167007979 -0.13929568441025042 -1.4852144532873455 0.11933338235571062
Ni 6.814194395495129 5.958020515242742 4.671722635093282 -1.3857348724327683 0.34186827450227575 1.2684925682781316
Ni 3.610447274737553 3.643855054979967 6.620776740974184 0.6627062106968136 -0.4539624587970698 0.3202738361609516
Ni 2.113484634007041 6.209267252776522 2.789862467696029 1.8863253155010222 -1.1935040305863833 0.42676610088793593
Ni 4.155620664177046 4.686848389254061 2.0851044109370767 -1.453316061916852 0.25821794737047143 -0.05563790107927837
Ni 7.495724351390831 7.832593159845875 1.6969410325824945 1.4157931252707294 -0.7941389474192194 0.7753043312112197
Ni 6.344453095226481 0.1873392554804832 8.107262806717547 -0.7165366262537078 0.435409892605863 1.1658610720581342
P 2.4877135869496065 4.508205271692019 8.46003285691511 -0.2372770834527462 0.6658439849948469 -0.7400015421448676
P 8.967708424723947 2.5714250362926663 6.535926411317842 0.8671554489862613 0.021200288226698973 -0.2415209463307647
P 1.7466733883680896 7.444708882094384 5.681875756123194 0.10240061115611397 0.4599287036828337 0.1907696839198263
P 4.957707095340579 5.839402758929265 11.562967528625498 0.525569738721411 0.48088036623383634 -0.8035823522203063
P 7.653959408075884 8.994410297858547 3.894997832221992 -1.0904081931354574 1.4158687157036711 -0.5572724691413307
P 7.278559731127067 6.458659563484399 6.915699913154017 -1.3254918684813106 -0.7194797680424319 0.25782945368280114
P 5.482294473854132 2.786126453247277 7.984304005788886 0.524276216720968 -0.09390594342154149 -0.41128394609193686
P 8.731952707240895 1.826301352377342 0.8409188781613178 0.7470401941592038 -1.3617919884639258 0.4455999457649874
Ni 1.7381036886423231 2.8686671785840847 5.686097855179342 -2.531546482039195 0.05113821343671193 -1.4139331892438551
Ni 6.488283563738606 3.5802706927523955 10.196260577409815 -2.12268580067677 0.20445283783387366 -0.7825656407593231
Ni 1.6518634754457584 5.298537633832781 6.045036216021048 -0.018574934788709946 0.4804088259140565 0.1593852560712739
Ni 6.190095476450136 8.867475718204654 10.618885387612437 0.7426886020587273 0.3028214450124591 -0.09801919425896667
Ni 2.864536864290027 6.655884412473676 11.472578269550775 0.3834234722362429 -1.8839053932056202 -0.95059828809295
Ni 1.9838527062427431 8.808789665219242 3.0932438866762344 2.5318886958699625 0.18701561619403273 0.4514417492577451
Ni 4.7994720386555265 2.9913403228552196 3.6755086223714124 -0.27601872299731817 -0.853356595429956 1.4695466648431015
Ni 8.632843895767605 0.7023669700485828 7.644323881214826 0.7520605301919305 0.06891662046605551 0.2411972444427588
Ni 2.0079977181476893 6.70025953520666 8.91014158388851 -0.3209001568910409 0.9897564463496503 0.8822300839311968
Ni 4.136280303593758 0.7946012901571592 7.48731480670912 -0.5331917740430431 0.7669284484426986 -0.5194443425499635
Ni 8.41029394507508 9.377967579682931 12.69106313236208 -0.7437003311526934 1.5580070117690394 1.9736158104885755
Ni 3.521640834519283 6.826941238475203 7.2036455702565885 0.6405157906427034 0.09650841404139507 -1.4474812004026296
Ni 5.8762290532699355 -0.020789248613424745 1.6419591503528645 -0.5535744514644532 0.06431588846925052 -1.5943400418721188
Ni 4.189618489318611 8.558123606792563 11.801743714044681 -0.2049050948799439 0.5107182755308752 -1.409469754155863
Ni 2.883240351013913 5.839880414323816 0.22406627242542343 0.07098687273152289 0.5201503674780525 0.7687238497802246
Ni 4.838986315314552 1.747328993811591 10.932765859480712 0.30468060970838495 -0.4983571828623611 0.4561499533666918
Ni 9.339417979605056 9.382463159866939 2.2763829185537974 -1.71084418230915 2.449106373165408 -0.6149582538885732
Ni 3.7905046268991476 0.9845882550501824 1.447734164557208 -1.2448541029235851 1.4034901395336605 -0.8986566049183362
Ni 0.19092729041484505 5.796535528716333 12.366243415379385 -0.10046508469629793 1.6309281254087975 -0.724760556825397
Ni 3.3260081701785094 8.36388644546724 0.17675497388475797 -0.6693062325118343 -0.24165438658483543 1.1898813462321314
Ni 4.966201868729945 3.708638238589941 12.270426679811676 1.1582380082952375 0.7312312521514052 1.3817630322692138
Ni 8.012144759236769 7.941283176586333 8.669953973607392 -0.07298539121879044 -0.5833784221997631 0.9602671786412815
Ni 7.185641708198839 8.569306362500285 6.124719438203395 0.7241301223302496 -0.17039497691821623 -1.0934230687023814
Ni 8.746900511352724 8.016977507934579 11.078904995733167 1.7091567673043984 -0.031760323130732404 -1.518179081138824
P 3.5295830261776984 2.643391782405004 13.247941888705684 -1.3357143175402673 -1.5314156344337562 1.5996776520349483
P 3.8517569069062647 7.880892549447817 2.2864586376412066 0.40252651161428094 0.007499393700838698 0.6279253555722024
P 1.6520133281185585 8.015226104821224 12.415550564205907 -0.40419438623500714 1.4921317492324688 -0.5062826083570249
P 3.792846074911652 0.5677936503986957 9.520946697697708 -0.45072312592416564 -1.4862503507510274 1.6676529916336569
P 4.393970706057951 5.615878765863537 5.392080355090744 0.5487441199553453 -1.2507452715970395 0.7757236781368253
P 1.269823451933478 2.5846027057070415 11.193433647237606 -1.6714965337494632 2.418213283130977 -1.0374853769944972
P 1.2210557727290345 8.589536473328323 8.027209635749223 -0.18222025168791844 -0.7982064326203737 -0.399205417660848
P 0.5209993435791911 7.305608138567519 2.265184240999591 -1.6781667466807872 -0.10121738948129021 0.8597774113546355
Ni 3.794447625352205 4.054994594391653 10.46836025094296 -0.5034528522177135 1.9511502823962077 -0.13304636106642892
Ni 8.443739188485694 4.11099266505871 11.075573583500976 1.767532379029814 -0.2263259837578812 -1.1828545212923371
Ni 7.115173488814504 6.583636692599838 11.802689659041732 -0.45367089569857993 -1.3118994745088566 0.5537634275468075
Ni 6.1806360264796165 6.477756413474386 9.54215272405736 0.2651360146465434 -0.8989083159178262 -0.0844324567134675
Ni 1.3107519631920561 4.931108245918528 10.363509272363805 -0.11977638343040016 -0.73007734105262 -0.5933604731131394
Ni 5.525611262085465 3.018875751482272 1.353647290781138 -1.3793809051902826 0.34196854752556594 -0.031914332210093425
Ni 7.482556047768506 2.7710381622546985 4.889977433551669 0.6825001054942891 -0.02406475425868759 -0.8922499300610439
Ni 4.622140131980487 4.810149041592547 8.338896639119383 1.2232763767528094 1.0989198301508944 0.6160077781990101
Ni 5.898529004141028 6.110411317688583 2.329472910789324 0.8104960486210041 -0.8864736896988992 -1.5845310262014969
Ni 1.5786417131987185 1.2051151946599041 -0.009059530649982321 -0.5923168623399734 -0.39792372273494697 1.0840444557009588
Ni 1.8387016610515654 1.0242055554217582 7.062194949504373 -0.5318666274737163 0.005828690866635123 0.20919703738707843
Ni 6.749205164460054 1.9607004682950988 13.657804870660954 0.23424138195021596 -2.6441723704677433 0.5302319200837707
Ni 7.143598667686308 4.042678577845879 12.875898911627594 -0.294689302823628 1.7424780071643473 0.794750098640657
Ni 5.483549489988834 7.020672647029824 13.538273013043394 -0.9102527943963679 0.3801699982959517 0.07009084327981477
Ni 8.335826532485388 5.414785844757603 3.1159578055559374 1.8163360307960783 1.7929233082990927 0.3303772431435407
Ni 7.080651179318138 1.6405683302334366 2.770781539552528 0.6363966262680072 -0.49607070082102955 0.39553542500842853
Ni 2.3599641833873624 0.9267713475670118 11.536881924607789 1.962235850786408 -1.5213394811446768 0.055889097858136005
Ni 2.7074818974032766 2.5328192414624926 9.270751738611144 -0.5349936031384722 -1.4458596056388067 -0.300058023334709
Ni 0.32165969874502004 7.871105296755549 0.30676340648946654 -0.6926963293010006 0.0334708780639359 -1.1564940290209371
Ni 3.0048832581595453 4.345484000615008 4.268726651869087 -0.04702676237149965 0.598154294957357 -0.5483643680184234
Ni -0.15805148716087217 7.266262446165393 6.813742027739113 2.1720877481486656 0.015148425605664236 -0.7228124319600906
Ni 2.0757592236295688 4.250411845515276 12.465543289010494 0.88577563519061 -0.7784125378228981 0.0011346278250754652
Ni 1.098804089100151 0.7388027108607675 9.536024686319033 -0.7606341307935546 -1.2112551839222172 0.3696336175410021
Ni 5.88941608847636 4.029744419024804 6.0326724339358195 0.20066894531140925 0.6297996897767798 0.5749472607132743
P 0.7498075165195386 4.544291668460739 4.11106009876147 0.26873324507949853 -0.7078275285154842 -0.20563760217059424
P 3.4529146524562515 1.5747174463297609 5.17313904407509 -0.017000134102422335 0.42881295611463566 0.9185245474868569
P 5.644959550178842 9.34676076057227 13.103091485439313 0.9164707502816217 0.31553143637995984 0.33999342607706606
P 8.003921593816854 0.5856888692686648 9.977072946063245 1.021223920830312 -0.7234035285768703 -1.0777588798025632
P 8.555800890364159 6.085816747765236 9.974441158497191 0.3998044846974276 -0.6572403024862359 0.31656579118174516
P 6.382665526790553 4.120311628148478 3.1012076196563645 1.082193261424833 0.7325291450272223 0.5436926735743668
P 7.415468879314228 6.1980657654847 0.3685102003168245 0.8129874475842901 -1.3695616051070154 -0.769048837219811
P 5.0800711684740625 8.694976560227424 6.137084156867829 -0.279179637223803 -0.1967428707841257 0.18620443314664706
