# total energy = -340852.7296893216 ev
CRYSTAL
PRIMVEC
9.45742527882720 0.00000000000000 0.00000000000000
0.00000000000000 9.45742527882720 0.00000000000000
0.00000000000000 0.00000000000000 13.84189786675644
PRIMCOORD
 96 1
Ni 4.440336900558871 1.7704394986273317 10.588775625740917 -0.8850089322279144 0.01745856179607961 -1.0768772485285583
Ni 9.422669395301716 6.3188180273416 11.170495243974358 -1.810912802897978 1.416963748540063 0.4841896331127275
Ni 7.5889975502241915 0.8155232525794919 2.990998747486557 -0.19113760878220631 0.4557671161059763 -0.05924207349076894
Ni 4.759818189137083 7.18464532580332 11.554787323307657 -0.0016231374257197854 1.3562504898204062 -0.5988682903052461
Ni 1.2579983589238934 1.60106646653393 5.918753799612402 -0.06754390848824497 0.6345775707813974 0.3250100652943564
Ni 1.6648473436592806 0.43367875494845143 13.655502815903308 -0.48269505084507197 0.07412079037481428 -0.11153882601195629
Ni 2.01431812828798 5.544765585289194 8.156573588721427 0.5226888176291902 -2.138708658467588 0.5745734223136233
Ni 4.569005173585324 0.8327187435031739 12.658664640135193 -0.8482277588438231 0.24863673143993956 0.6386334860183259
Ni 0.6785456855669287 8.650394949230858 2.2808122993884044 -0.6341535958701013 0.04113147993298723 -0.4381406612734648
Ni 5.424136123881448 0.684382808544652 1.6984561964232718 0.4095080851384367 -1.2592605081569024 -1.2729544607042271
Ni 3.8568988681241154 5.5774788198646075 3.275076163953448 0.48482855224830695 -1.2653087712335112 2.2550575042736773
Ni 2.5320365113834624 2.6053031862188853 13.19771046332637 0.23780904469681627 0.5643463452689764 -0.25784668007398176
Ni 6.610901154438179 6.08453868449623 5.8970083413125325 -1.0185396891299299 1.6026963842566142 -0.8860808251358545
Ni 4.827060483971194 2.0261777397819283 3.4682809623974085 -0.7942911567263675 1.9172058071299627 0.2742616310968954
Ni 0.6278642884098943 9.095499219845847 4.763426196940067 -0.7174568240751321 -1.0774590891739573 0.2485930226861977
Ni 4.854922059299083 4.796844009710296 1.3296676746035523 0.9732715613207495 -0.6613946909742415 -1.9641448948836628
Ni 3.532471346044041 7.438860921463079 5.127647728017818 -0.876740007350903 0.028741848019382756 -0.13509244496218026
Ni 1.165750631242893 4.694249858604751 10.529324357979148 1.003878487573329 -1.4832030792842716 -1.2877791844218853
Ni 8.684224160007455 8.535799325249856 8.808139131010893 1.688835539248543 -0.4532919150926064 -0.004942945827572133
Ni 1.7498506834580125 -0.0033677891969657895 8.427017180682993 -1.3585362005307895 -0.5955783067000646 -1.119461401747672
Ni 5.38825465178572 3.381719984629734 8.870967645395064 -1.4662340555301006 -0.11776578075827461 -1.1870487618793428
Ni 4.585101711673602 5.486602418871504 7.786593431297052 -0.68630482395236 -0.17317202544272112 -0.9303485367049785
Ni 6.9971802388551145 1.3931544257979123 9.54145560449242 0.10211470448457897 -1.858117742718555 -0.08893291568698233
Ni 7.616944242380985 8.180323075470712 1.613300592075056 0.5983445565912922 -0.13440801730064597 0.02697370037536645
P 0.08800607237395439 3.3763103372816174 5.285833571565613 -0.7483637980666337 -0.4477193061008354 -0.15787936094970875
P 1.2825687502008303 7.313010961215892 9.156442869341067 -0.05432843823923547 -0.427455927866109 0.7281225313190944
P 5.300215478422748 6.688972201393957 13.560520000786859 -0.15944799098840928 1.5331179618368436 2.1696485425795538
P 5.459213714815303 2.9648272140836824 13.011592113759933 0.2564464572923454 -1.7359620604227004 0.662427246003814
P 1.6416199067939394 6.451940747747359 4.088744815405377 0.5845696142943867 0.21751481322415445 0.5030021378335401
P 2.4976776847825732 9.265146517276827 6.244744634116677 0.5935286232598874 -0.06383560639872231 -0.3233488755418496
P 3.5944647697624093 3.7379149987418447 11.466310271147101 -1.2353047686722531 -0.006620847750627308 -0.20322899272910158
P 9.19776236106121 6.64586525626683 0.018785284139098985 -0.6145990707769415 1.7205297850280306 -1.58136625532027
Ni 8.573165613138684 2.709949598643559 7.381718211249693 0.9717728652880362 -0.6522855295841218 -1.094182315465909
Ni 5.638063087193344 8.963587049895612 5.981984254577506 -2.1304502751135375 -1.294720648736725 0.2774806522548253
Ni 7.863849248180439 4.914910508825492 4.156127080135907 1.8050082644880852 -0.8528853122204925 1.654178868406622
Ni 8.439853744224251 3.2720611367251617 11.80785857048993 -1.6191409029658823 -0.2853340868609731 -0.34346261557258917
Ni 2.931139864688591 5.211277849643567 13.728117874126342 -0.18165178077895813 0.2359907605411549 -1.423094286917833
Ni 6.291448238136269 8.942913117897389 8.115227616210067 -1.1951881031570255 -0.3231730120856176 1.0910124023783598
Ni 0.6696036898192984 4.344344032406098 12.705824092060688 2.174349547599649 2.5393613500979235 1.5159604762209504
Ni 6.275219296091917 3.0551645418270614 10.841638809563648 0.756800101759445 1.7519476372176799 2.7992317454701534
Ni 9.119161698281141 3.0020610980164384 2.3458557428091633 -1.5358093926260776 -1.443501132708959 -1.6254097666937297
Ni 5.044392120439248 9.351313120403914 3.771003693106979 0.4684238856380384 -2.249579511878242 0.44162964826332973
Ni 7.914323527720474 0.98107548479765 12.860853992741236 -3.5094360017479302 0.11223713763056153 2.619098972438883
Ni 0.724782092770091 5.356430415201082 5.7909244002219245 -0.12489365005230749 0.504517288926486 0.4438721644406033
Ni 3.9130665177752806 0.7667730616960334 7.997779632718241 0.8336812284882159 0.7466344740803528 0.0036890188158130014
Ni 2.0755265856953447 1.2233179798582559 10.303812048510881 0.3838736723997841 -0.899570117871541 1.609568685896415
Ni 2.6692164673003083 0.4582141537512831 3.9045368657765627 1.2516832100302766 -0.46727228853209846 1.4806767133179919
Ni 6.349356054067247 5.744345634218059 2.7328611574994124 -1.4958734756630883 1.415782069527136 1.8924021178227215
Ni 0.8926882781787147 4.386921361708934 3.3910298742267386 0.5626962112600632 2.4420630931653817 1.9627606129416262
Ni 0.7752752871609934 5.353243262829901 1.2640435452611598 0.12040553237396685 -0.4108296321633376 0.17862816346128593
Ni 0.14316745195896607 1.2783412810319346 11.786847008403722 4.144569702143114 -0.2387716657204017 -2.9419017456692753
Ni 2.5276955531093614 2.9866360371339584 3.712134057009386 1.3167539743876806 -1.036437652456273 -0.0632023436900976
Ni 6.2566732848162925 5.586435001750389 9.305492839919838 0.30452737195997237 -1.058041603879294 1.4674815547839566
Ni 1.7350308978032938 1.3221386182157273 2.0764789484365256 -0.5466478995479489 2.3656583918523966 -1.1280877099641025
Ni 6.683023480796115 4.174157661725392 6.950058616631352 -0.3971426215945483 -0.4767753429265272 0.9358303857551561
Ni 9.118679369584019 6.797467785970176 3.331523753397452 -0.24221385863273123 -0.17876057527409214 -0.010053784691576233
P 7.531572062990335 4.962935315178179 11.024463137851502 -0.15698924503527156 1.5280302629012907 -0.26846867856420215
P 2.77957516468698 8.831655965094509 12.116505432491214 1.668988165505313 -0.44928510792605847 -0.2858243962338303
P 3.3611500843112827 3.606797252528046 7.849103230444104 0.5029185769807983 0.5967977809294626 -1.0580269485912746
P 4.009560629476044 1.9902773528353346 0.977516655606922 -1.060057091647426 0.7299567563143559 -0.3430628090310092
P 9.403877490964813 1.1238069494441194 8.965355588451727 0.31064788303541335 0.4281946058043465 -0.34067296864259394
P 6.029751818958396 1.8006181431864945 7.60137542863191 0.09272169330545321 -0.6289095738623427 -1.3596242913886454
P 9.38174711544979 2.611053300882618 13.53055225681487 1.008290757708412 -0.7939108905688134 2.0717064814154256
P 5.318969553057916 7.111284076713559 3.9319709654748447 0.18555214427462882 1.1927866928043844 2.5383925584267506
Ni 8.864047647205174 5.119635397190328 8.360146562668431 -0.021851034436820432 0.6939505134230759 -0.03101855986870142
Ni 6.911363560469078 2.2439822475216706 0.7200032556984065 0.08402545108303594 -0.6291864816728132 0.4775353610210034
Ni 6.138881051038677 8.851630047610632 13.616676301527505 0.47224403071507703 -1.1925802332205333 -0.5250295499472247
Ni 7.235516817211574 6.765870527595948 12.388166195106109 -0.6997830609444529 -1.5308044832123184 0.4066737010134351
Ni 1.9546701460771874 7.574489859608787 0.10918219366271065 -0.9841367861700275 -0.6681379232353462 -2.027514874499876
Ni 3.644106795864272 8.549890889146173 9.594151433266846 -0.23683845325343084 0.11570529868482009 3.5523947646976435
Ni 6.935678601259302 7.766182415725888 10.027804653166628 -0.6683166149050556 -0.3254073007327751 1.6166453902375386
Ni 4.271096272421542 1.94853227697067 5.988102263090613 0.011920405586669791 0.39007105945974757 -0.5232364626025441
Ni 7.068356822669674 4.384935302367842 13.653343685676777 1.4903062659879558 0.4635555018021436 -0.164810026631271
Ni 1.834277120305285 3.065662284058547 9.189981737156847 -0.29814512258271236 0.184552756475837 -1.4369715591205576
Ni 3.276326435595792 4.496012764087481 5.548082304388818 -1.489290423128932 0.945083528922308 1.6419563581985015
Ni 8.69772936352688 8.434198203814857 12.252792607447114 0.03863005366737218 -0.21409190358553454 0.7224779314388073
Ni 6.703848731601278 3.390080348713188 2.7973087831178436 -0.5177980651957921 -0.4356574898402948 0.3926694163145431
Ni 5.132421836376786 7.528630803680432 1.8743870073124502 -0.6745314854665158 1.2609944601288734 -1.9810599254714463
Ni 1.0454427222998943 8.519012395104912 10.96098395259749 0.5249246489382443 0.15719364773659378 -1.0961638646723122
Ni 1.5741411763239848 7.358066135982376 6.987902504504585 -0.9337300515827016 1.5226052352309778 -1.734793494035896
Ni 8.075279451177819 0.14452364676616883 6.774446520979291 1.7047185290273867 1.6291103554737685 1.1115076941182342
Ni 2.6571960795739855 6.995250924066625 2.113712832369281 -0.7265616145898778 -0.7844258338965137 1.0171363810245
Ni 2.468851452060439 6.46247631968058 11.34767065205062 0.10391730491095652 0.5893834907432622 0.3360928054710792
Ni 5.334432443642131 4.993246363693415 12.435658548406876 -1.9658999299015563 -0.5584515770510963 -2.7777362946005386
Ni 8.70665717313636 2.987591237102769 9.611537018441748 0.7867652806629676 1.144696522165377 0.6592984705668452
Ni 8.571841573577956 7.542580506195244 5.941537683224898 0.03958547560210601 -1.0282263202900743 0.18212254976778955
Ni 7.36791131585893 2.650282701581899 5.346917190957252 -0.4096073297204624 -0.7558349096326984 -1.290557518497971
Ni 3.8757096873118857 7.75673444771755 7.655082256185208 0.5410038138882941 -0.5501836806153492 -1.9019828195326214
P 8.995723381519566 0.9188550828688717 1.2728540827952608 -0.13205160125332743 -0.7310217072437605 0.22701221119162837
P 5.020843131109158 3.7503609706126873 4.866825174950027 2.1988061379801165 -0.6813459372851879 -0.8854311073669978
P 2.8344187747774168 4.241844455554889 1.7629870473855203 -1.4221262665776089 -0.5693769657143484 1.0640191616189674
P 6.6794580314075835 9.416692302427572 11.413973824539156 -0.6989945036048865 -0.0766389288109777 0.19897998764476052
P 7.173769286554483 0.35661019508865305 5.023833569031317 0.781297572680177 0.7923486882880161 -2.9442872151823165
P 2.869751716197985 9.011271388932684 1.7863525626621946 0.8529619310946988 0.639816964803466 -0.2655103672668266
P 7.1712346965382325 6.805459310461713 7.92726885165422 0.7711023773147301 0.7495351926669156 -1.6095293480180473
P 7.788237131837442 5.102990328426892 1.626893749651015 4.004908149753012 -1.3269417135539598 -0.3147832453600256
