# total energy = -381174.301087206 ev
CRYSTAL
PRIMVEC
9.15609649938975 0.00000000000000 0.00000000000000

0.00000000000000 9.15609649938975 0.00000000000000

0.00000000000000 0.00000000000000 13.40087273928012

PRIMCOORD
 96 1
Ni 7.095526204793662 1.5868888796631189 9.5241744147491 1.5183865691639398 2.277866274638077 1.3803581815018873
Ni 4.894812610059052 1.3292363217557237 10.692288158066166 0.5663983427019987 -0.6259834013544832 0.3846311193910989
Ni 7.993547001773029 7.067490237049795 2.269625124463765 -0.10126829732388365 0.9320508641080658 0.26338175095959804
Ni 5.852503688484137 3.502170319450851 0.34455398620714184 -0.11204276223156834 -0.30092885597543656 -0.21467245867935286
Ni 0.7057986208794362 3.9167125923455672 10.279233750866545 0.3341760480643406 -1.7330911666328086 -0.3738779946396529
Ni 1.5631196529279519 2.5274122769909626 12.220885664429298 -0.5700205128356183 -0.38305169071912093 0.3593368636006844
Ni 3.9113471197466425 3.7504104100686657 7.847256384192731 -0.2583927823854389 -0.5611031557413304 0.5231084216651121
Ni 1.4193414682506305 5.44375722472785 4.954771308547204 3.8391866670510653 2.73047967560642 -1.577595475423928
Ni -0.25622054440147046 5.66719344969637 0.6171676059347458 -1.4011141831023162 -0.37097187673645143 -1.0517406013619304
Ni 3.760335618767017 2.659186819045093 1.3182288624410021 0.3247264726156665 0.4662021953963713 -0.25539461898906335
Ni 7.085738337544088 7.873419014575267 6.662472135822998 0.2037568402081136 0.4309246031409998 -0.6583368779845242
Ni 7.37299255571142 4.45911059795595 10.095118382683145 -0.3416386749899729 -0.004082397599489743 1.0155042447377154
Ni 5.96306355475037 6.949413215487116 0.2380356209736141 1.3287147462939826 -0.2978103649511129 -0.030323076463573587
Ni 6.714165625923694 3.217195969333234 2.953981082750332 -0.2730719816641684 -1.3286856928282602 1.3464178200007006
Ni 3.6906302554639256 5.248778147946116 3.5447992739322034 -0.6543066737792086 -0.44783526285340935 0.7380960975920384
Ni 4.90968211091341 3.985923526433058 9.953631968981098 0.4587593659650809 -1.7552967561955704 1.5767066450610716
Ni 3.9587940122511247 2.944032983810518 12.155087207539108 0.06379164053466434 -0.6094833468169311 0.5108280616358623
Ni 3.4587978899267813 0.6212347440378897 2.646243760912261 0.024528581268983565 -0.8141794110098622 -0.14303046886233434
Ni 3.726357344339357 7.620527626892174 0.8761047641930438 -0.6241152377974929 1.411671389792872 -0.1456247119520718
Ni 4.844060366687315 8.22634075745162 12.013078896331706 -1.4767614374239857 0.02894470805880821 -0.32634163962158635
Ni 7.320216814994354 0.5050612749552735 12.010170920056247 -0.07538165936510888 0.30828632478177226 -1.815967591713066
Ni 2.7433221905664524 0.24485691292958459 11.379123587308003 0.8192012897044859 -0.2662973819444962 -0.45430415840720473
Ni 1.630838143272056 1.7944942136358364 1.9742833261827308 -1.92694540301523 0.6653076528754026 -0.02648287678187697
Ni 6.799830065574781 8.108520106593327 4.207110098470596 0.8425245378114586 0.2798908043582148 -0.5586639501722185
P 1.8247917372362477 8.411275596279394 1.8633508067854805 -0.6660833546991625 0.8369452439514684 -1.2747673455432498
Ni 0.5647352188396252 7.105414789105674 7.7295163069843875 0.28881047544534777 2.173257857197367 -1.5933522240375526
P 8.557873858704955 1.9276055457914052 4.031572161568207 0.10025656822991766 0.40542414487705014 -0.8784870719489967
Ni 0.9056789561632246 8.217834743723973 3.8386934933431185 -1.577215209266374 -1.0317075939704554 -0.3197974107451654
P 3.1640631408493456 6.017990978164956 6.201387592766418 -0.40922732067322426 0.3023923278948405 0.14966057258434223
P 1.9953148800389244 4.029121990122009 1.5324302483936942 -0.7106446862493051 -0.6138655350450266 0.6825731248240697
P 0.4807051424289956 1.5396525773800964 7.58112802767642 -0.7607004652551157 -1.5229901293742223 0.05729960505241744
Ni 8.24754627714293 9.048658947864592 8.610931607196845 3.0188618052650975 -0.24110674161148155 -1.3493421927363471
Ni 6.463673135545921 1.4022653481192413 4.555425409154936 -0.06317046201089765 -1.7211041694742615 -1.285186741104361
Ni 1.644764566178138 7.731188210220845 12.891786738783921 -0.05080037048131896 -0.5040786587271706 0.5449041773839648
Ni 3.178145217397376 7.556206048381178 3.3647849214093135 -0.06007716779755459 -0.1535452523507291 0.6970075550818448
Ni 6.52595290451842 2.815197548760235 11.666545362042845 -0.47673471949657903 -0.2578947597030978 -0.6797947907479841
Ni 0.07893287744165141 5.651518212342516 11.51892161679974 -1.2791647032799969 2.0296296068500332 -0.06055025077923121
Ni 9.040757236511569 5.062653016562266 6.184904787693749 -1.2201861678632597 -0.7179275930639636 3.1882941611597286
Ni 5.679773926404428 1.0988506194790404 2.221770785661242 0.9918470103300918 -0.5267678727945703 -0.5955315126225292
Ni 4.983819024963736 6.823791570338237 7.352161520370442 -0.7364163958967704 -1.1378239634152598 1.7837123312237861
Ni 4.321228939479495 6.526319148381828 9.749309095634175 -1.0783682312517882 0.36088183949030106 -0.45241439758365953
Ni 6.877785071901133 5.395770122524841 6.483154562250242 -1.2479396838274441 1.1322546968575984 0.813548976514715
Ni 2.411944742955065 8.307591958548644 5.5729543255932485 1.0768327684438679 0.09165057172846151 -0.37681907954584776
Ni 5.026990020362931 2.2020595409326336 6.128071980579783 -1.076015157638579 0.8794923732850595 0.31285980308506767
Ni 2.736125498650489 2.303435842323916 10.163315736878655 0.07975844827656586 -0.379564760611785 -1.651507749332362
Ni 6.335203944359047 5.473221543539008 4.099634921143916 0.7851976790655316 -0.32772669289457107 -0.1318633965019213
Ni 1.7333314884467321 1.3064193290654171 4.437632226586399 0.16881529113592217 -0.16521986047517997 0.04475313584597454
Ni 8.026188486099251 3.7855331965694745 7.9503357195488595 -0.6222529877777736 -1.8607572372239307 -0.9310815582162609
Ni 0.4022859220057736 2.813503670891974 5.697394834282636 -0.7845518179514166 -0.4602200096710074 0.9505787477089243
Ni 1.486080256260119 6.167180415924129 1.8487706385832157 1.1623067790479724 0.5172941289761801 1.3003469937845669
Ni 8.366529752267544 7.782984248603294 12.628688134627652 -1.0142971118034918 -2.2614580084833826 0.7513879296049383
Ni 0.3265704969041598 0.5789390714722387 0.050887753601198286 1.41029147872621 -0.09272477862924676 0.3329568309452588
Ni 5.391952030248815 1.008434165700237 -0.2905943622016105 -1.0447150619737169 1.0148257306134523 1.3641733442119086
Ni 7.171723240575657 3.379927273941909 5.44103603282273 0.18028883899316048 0.2598572827461073 -0.33691761536521975
Ni 1.7240380504127586 7.042274347054167 10.289618595613472 0.10370827422394398 -0.15418391437599252 0.889622776850842
Ni 7.675656484431635 1.801498627523511 0.46816312132659504 -1.5866938381807707 0.2938462380970423 1.043091924547997
P 3.944464721095294 -0.039247608012439546 9.250354937101225 -1.1136283400056626 -0.2721337861206152 0.08294841596877327
Ni 6.89219676792623 6.71373528938419 8.676568916787133 1.5393384888252586 -3.1005274978667052 -0.34292396946029974
P 4.360362096284619 0.3110060483189864 4.608895181993159 0.019502845919618025 -0.28277326811233233 -0.14781734872801638
Ni 5.193466168474952 1.5161488774459 8.341319355929867 -0.8904311316847503 1.9579351665285247 -0.440762415167028
P 8.290763053025053 6.671077035393765 5.051472507022084 -0.13722954590984107 1.2966713447051927 -0.90315912077438
P 7.103244794214982 5.266412789969203 12.410642103718835 -0.26102764890512464 0.5906217340257376 0.38446065525150563
P 4.945628946106886 4.226353466663701 2.218594535755838 0.384961249037008 0.08371717581399775 0.7879063362459463
Ni 4.762662668044929 4.506850485551158 5.864356255513672 0.6043223714412819 1.023635101374966 -1.200251633722862
Ni 2.7584755304149504 1.287804984707715 7.611709390270972 0.44908944697548464 0.3580238012162157 -0.8135260936965797
Ni 3.7836561967695097 5.365573315986867 0.6401136995869039 -0.21546718666650633 -0.9549403671117296 2.4552271413511653
Ni 7.331991555202915 1.3539303142459955 6.723941590247707 0.3029104051818396 -0.17275422117901215 1.5658925851647032
Ni 8.68984983488396 3.458907763085804 1.8370316071513366 1.8763260381964653 -0.8853768570902947 -0.7132486995310554
Ni 2.785412766568595 0.9186037021028862 0.1445628621546726 0.6476218055598654 -1.250514643643472 0.09125976404794606
Ni 0.45817381995214707 8.999243494594293 11.10177901247483 -1.8178591523088243 1.0496425811823213 0.4867787339961423
Ni 8.551638556930437 0.44228799237683325 2.3697030913592667 0.09931785846573218 0.3331951722083101 0.59860835177564
Ni 2.8593848708803873 4.564222586753992 10.613183146008714 -0.13045983128617533 0.8617036818430708 2.2684958891667706
Ni 6.122452884105449 8.684575923250886 9.010238135373795 -2.817933178534399 0.1468650121170761 1.0658204764937647
Ni 8.444493914690483 3.6433481726979773 12.689541383752177 1.2541908069434786 -0.35267770641295393 -0.1622885457609979
Ni 9.199313361077396 -0.18663787279262045 6.142664967317269 0.5542861328194969 0.32072943564113154 -0.46831512797431607
Ni 2.249167657863463 5.414952144870826 8.744699431477573 1.1298712842270864 0.7322285830676679 -2.9562523579639923
Ni 6.875019930732404 5.05313983221025 1.7131807510820343 0.4844953372786042 1.9731990346661308 -0.5145173375619914
Ni 2.6744134076662727 3.3961701892840455 5.822518387777281 0.42734614176112207 -0.2969914685942433 -0.4553837646246286
Ni 1.4868127439869345 3.62542969168075 3.69746161912614 1.0544351174749582 -1.0662760759739445 -1.7872982488028315
Ni 5.257430659219127 6.970124305962828 2.598321666995007 1.0925612349227185 -0.17003887913037813 -0.2755497537806996
Ni 2.7980207115664086 7.873748634052334 7.730105959604473 0.9706734615762702 -1.1641631155304208 1.2237322333433052
Ni 4.860751930762126 -0.03577744740665054 6.670525838379336 0.048873585772251316 -0.8826918540589637 -0.29921470149780727
Ni 0.023076110223667647 5.486314761655837 8.905643466032817 -1.5317763602072845 0.425756428676499 0.8076650069301122
Ni 4.8457267762658205 5.161630420648228 12.090937763643913 1.6954543301166414 -0.5337538171941001 -1.3654234145689257
Ni 1.7236809626459362 4.849187780775024 12.973277829611474 -0.2615539537222399 -0.41902682326214935 -0.5383360372481438
Ni 6.201158690351788 6.795224548992428 10.925477457117236 2.557919315605769 -0.18209632451554444 1.2571995118628156
Ni 1.6452589953937387 -0.003913315680512459 9.287716389217115 0.07551381406759898 0.8932002097894552 -1.7721899324064834
Ni 8.777986420613049 4.96622100732699 3.559432547494662 -1.368468886263469 1.3189635804444897 0.350730352878596
P 5.942480649626852 4.7081747372664315 8.385221007836563 0.4937196840903497 0.6376220140346761 -1.5253504020762827
Ni 4.992837780100152 7.0857566497372595 5.198051541644817 -1.2643698043590095 0.3253615350965042 -1.5353638204482267
P 6.989773289234657 8.773911957632636 1.019709898644905 -0.24208864590877663 -0.022535462098354737 -0.42767010075944417
Ni 1.4341102520425504 3.377931244886337 7.902749654376282 -0.3719018447498886 0.6408580044734705 0.6256280748975935
P 8.984218340097987 2.1448614055649187 10.888276236691588 -1.5381007597634155 -1.4074969467002083 0.6981324127149074
P 8.162898164212802 7.544074220405793 10.165902334163974 1.164823374822239 -0.20904971317593674 1.0939249480394644
P 3.100364176906142 6.324683589382658 12.071050721860871 -0.21712374843332286 1.413100923150547 -0.718900241389878
Ni 4.241708240637074 2.5156924733619124 3.8504059720949 -0.15894662587195849 1.0428790372062426 0.06395901935046404
