# total energy = -340894.30194524105 ev
CRYSTAL
PRIMVEC
9.05847327428345 0.00000000000000 0.00000000000000

0.00000000000000 9.05847327428345 0.00000000000000

0.00000000000000 0.00000000000000 13.25799128142941

PRIMCOORD
 96 1
Ni 6.455475807941935 2.0241430666208973 11.615790105566193 -0.004005007394335038 0.5060897756199285 -0.5111715610182099
Ni 4.6769532487719365 0.31258708408494823 6.148168002180513 -0.6329981421094194 -0.14550412721380748 -0.8087448702578522
Ni 2.6583992602663704 1.3470584105292558 4.750484501111304 0.10751916332960193 0.3403042724492655 -0.3536187301699845
Ni 3.3155190408860675 4.277347751235926 4.801076981146856 0.04002153469826011 0.3562268572167929 -0.15678484233394935
Ni 5.190912915072843 4.482350063761143 2.7523718637808687 -0.4209690345901847 0.4193739221889229 -0.32269735800077975
Ni 7.259062045687709 5.743525087561948 2.6875403693377167 0.624781153516266 1.186505230671047 -0.19419722154413652
Ni 5.24559891925802 4.5950102979918945 11.579118687520333 -0.30959578762181517 -0.060794248469237235 -0.3971904441133482
Ni 5.769151508936781 8.023606262887167 12.325981670403236 -0.2377663643843389 0.05645371211235439 0.3856086528130198
Ni 1.9145627133613168 6.635775663383672 0.23060246432706136 -0.2839330927483884 -0.773691478198145 -0.3375102546438961
Ni 2.961024741104269 1.5647335274034984 0.573078887389881 -0.43427937854584564 -0.6818647859031354 -0.6856347944685288
Ni 0.4557200229834047 -0.20037615013704999 4.613595567958224 0.7957024352515973 0.5157918333990408 0.5204375597011682
Ni 8.73243180992876 2.5382839023906962 1.2311978176305196 -0.2994581849671811 -0.8282304897862898 1.4272178221679033
Ni 6.688939844030153 0.8406109362559734 4.768925741349864 -0.3297943740568772 -0.3311706855791135 0.05563790107927837
Ni 0.7966320476823384 7.338957781469267 2.2917629826794026 -0.3233853852067399 0.11628508244769005 0.7601317372358393
Ni 7.556560430555953 3.7257863616663975 4.039617174155292 0.433522445775163 -0.8199420245252524 -1.5204858748951298
Ni 7.719531426298129 4.020150514722801 12.677914233894896 0.07083286365216188 0.11406596330918418 -0.6416661021970627
Ni 7.899767872425754 8.833243560893948 6.733893424346428 0.20238284267872242 0.9146285548665604 0.6191553226890563
Ni 7.052293330840791 0.6073280696366486 0.4021681396734943 -0.050421389875345425 0.08893780078298875 0.17991088682845144
Ni 1.7882332427026324 6.614488250788813 9.175126653946146 0.7824933927604911 -0.25750163802973713 -1.0627071276757631
Ni 0.16300541794126602 4.979497203348834 1.3229728354873527 0.14493385653263427 0.014954821537619404 -0.5205460602545745
Ni 6.507417094673392 1.9605616415131024 6.968625646716893 -0.4934106374903632 0.0038689960371030142 0.5263102164318613
Ni 3.401339018300407 4.553857653132982 0.34989712450865323 -0.3250108366253048 0.03266895098793083 -0.04094841738790367
Ni 5.879628651067378 5.516266105783296 4.788189490977194 -0.050111314834094346 -0.15369231945155465 0.8861980674400092
Ni 5.167261240908938 2.769872834475877 9.444224007023468 0.8010567575849753 0.23046494562691922 -0.0029068892341498325
P 0.15032808435551895 5.75819075606879 12.36704101298567 0.8485105801915644 -0.3984945076367524 0.7311811156397601
P 4.247173976191894 6.419078861641449 12.493800761132974 -1.1865803068833565 -1.2278987060161692 0.22606913055206876
P 2.6021370817018297 8.395112375797963 1.3293391306242324 -1.8857280482366554 1.9764777054174028 0.32504220408387247
P 6.284161958157264 7.790740086046294 5.881669525134452 0.06024351817208979 -0.32045201361002873 -0.5390263784469491
P 4.860115581822173 1.0634919578188398 12.813172641827943 0.3708260951872065 0.5367476097151015 -0.6228543688071982
P 3.787673852240048 6.135168186940137 8.198768152191114 0.5832231275688213 -0.01145426458352866 -0.187155998426639
P 4.627702328653533 1.2308653716551021 3.884047857064716 1.2634326372567208 -1.0498084173362243 -0.020348995969997213
P 0.33814556690894637 5.449088466717987 3.5039941686115745 -0.42572634676951193 0.617801379764323 0.4233321355057226
Ni 1.1996226967446042 0.9707875405865884 2.5036388648543983 0.5975009776440743 0.07832994336015542 -0.03112963152526897
Ni 1.784519268590338 6.495468968199938 4.986582741277216 0.13965898128694013 -0.15590012573615086 -1.986379537912147
Ni 5.961091502754855 5.498919129136847 9.193980054726435 -1.0125950415107206 0.3782689246184969 0.6406019225986064
Ni 8.5931758976646 2.3957488227395847 10.231033046102459 1.230917438237835 0.5337178217498422 1.2176145504813416
Ni 2.214189839489046 5.288798779115418 6.9203403598676845 -0.46911448394715977 -1.1513896179148362 0.7271704518184702
Ni 0.752734685369705 9.097515465167321 9.129612354123648 -0.5951216787786202 -0.24355237493849669 0.18399739819299923
Ni 1.582288848939174 1.206679247557964 11.442309468933567 -0.5006629481774023 -0.4582603148414753 -0.520253211604504
Ni 3.979351150328229 6.845352504998424 1.6432886091152517 1.7125429101678118 -0.09606258475322811 -0.003833000592845012
Ni 5.4716531240685375 7.765593763764026 8.120930501576176 0.062819249319066 0.8768572496550576 0.3679631718171147
Ni 5.36019766680592 3.0469624786733887 4.908333835967891 -0.8052921358225615 -0.6777533348379231 -0.17632085548434795
Ni 0.7081796778849921 7.534919737496753 6.983899138791869 0.2993579119438909 -1.0712221071253099 0.5963956603950374
Ni 4.95186885934274 4.399546558003863 7.066735255053549 -0.10738263775173766 0.36910037074535146 0.1429304529493603
Ni 8.132634049266624 7.162842940758946 8.977675484884362 -0.18273370098922723 0.6549800456971494 0.2975630248269972
Ni 4.555297950410677 0.4497504889833995 10.601315359250886 0.41093864693737614 -0.02065727123903539 -0.4139599502622032
Ni 8.173895395806873 6.974254582115381 4.81255769039057 -0.7019258183190685 -0.31117675895568986 0.03755893209038048
Ni 6.820233358136489 6.012534573446858 7.148868433775928 1.2575535527681243 -0.35342615454320425 -1.5095645999969356
Ni 2.452844380861031 5.249285717949982 2.4708915775047493 -1.0065850878712148 -1.0981662398143215 0.9756495746346229
Ni 2.479159246217655 5.368286883591967 11.41882990576511 -0.5935337654662101 -0.5999522673980442 -0.20702111278168217
Ni 1.0273124148810235 3.304512995650853 3.8216422218100323 0.03088126295988875 -0.24174488941611272 -0.6924381905436074
Ni 3.802448222428225 2.69427081510707 2.6075685423792243 -0.8319297930147478 0.10013264105754369 0.059513067763968475
Ni 1.1014016691845787 3.1162054496840716 8.300974002219428 0.057834908730597163 0.9778224139162258 -1.2552526725490898
Ni 3.539136516339982 2.500310781710845 7.1428354904618105 0.20224811687307104 1.1794848334891557 -0.7900640060188974
Ni 4.239274987348184 6.892837022795127 6.104509783566817 -0.5177096192470438 -0.5070637094974235 -0.3164326080379905
Ni 0.76718385636122 7.427006143350982 11.127591831894446 0.22378239140042103 0.1419734883527297 0.6511154205354206
P -0.16970597074825222 5.454387673683089 7.7850794459907515 1.4245191922898175 0.7167939936801526 0.7872126526130313
P 8.683180889810357 1.533672021961893 8.034223699611607 -0.8010894105951236 -0.18505232182007483 -0.7074976559798912
P 1.651984743622088 3.2999747004550977 10.373688603450384 1.3255672018039364 0.2091070487764334 1.284861239444142
P 3.8128926423098735 6.319426595277172 3.879924439952724 0.33908788354366115 -1.0748841293579294 -0.03440984493843751
P 7.070980961557043 4.1836740773451 10.425023878308394 -0.42534968015638364 -0.5039814710276739 1.4359978823533786
P 6.3689583280723605 8.107958767603478 10.15929355981044 0.6262176288524763 -0.7027750536932412 0.25437774768877486
P 2.4299355015195845 8.311095034599104 5.862604156075557 -0.071566913604709 1.349718088018527 -0.5355181081833744
P 6.9861664746950565 3.8332107982461583 1.590269364043885 -0.31451122264556153 0.8172943024897602 -0.2140937033577474
Ni 5.233206927585778 3.1598763501605895 0.37890416817301864 0.46732731013975 -1.2521066707209403 0.27146452796773246
Ni 1.5954870447479867 1.0316604821344415 6.864497588623631 -1.285374688745451 -0.3012813542188489 0.872233377729801
Ni 6.980414344057723 1.0247579253696404 9.298359938381457 -1.3526802559706446 -1.3282087531918416 -0.47624775255783136
Ni 2.8420688678295063 1.6412232771698783 9.27441567552529 -0.211171644614946 -0.3293359463632199 0.4705026225439381
Ni 6.450249068764389 1.8792437254007397 2.431595013854639 0.8097889952516506 1.3001652167910642 0.9853395482288774
Ni 4.188384483536303 6.946146139016722 10.281837494416614 0.6219645100030773 0.2001675801949585 0.08636026986379965
Ni 8.035436629205842 7.313222658413099 0.3247707308679635 0.026745129304328128 -0.20247231706873517 0.4632994199272795
Ni 7.594732837651586 3.632973242752811 8.45670274844263 -0.11867415150515691 0.3108304313598647 -1.708421946020903
Ni 3.1047011884094027 8.509067971731296 12.449041937995757 0.8434434500813022 -0.19203209557201767 -0.4816064457665835
Ni 0.21735897615102545 5.096858785297344 10.052090149982726 -0.5178155486972889 -1.0305629388430508 0.35939779874560684
Ni 8.74199755788628 2.2564747935285365 5.843314136875237 -0.04127803281318052 -0.09074991429106306 -0.14088051239886704
Ni 3.618126404777077 2.6572397756654595 11.563195702899378 0.039537395972989976 0.5817329161765401 0.004712574984320916
Ni 1.1954195650663 3.1768791048161433 12.767379341023352 0.707837041597181 1.3107028830975944 -0.5027841082854632
Ni 2.992131538913098 8.503207139412627 8.039619832242568 1.213882337132419 -0.38624242974227674 -0.14929033372911707
Ni 5.686655991276617 7.606055929457362 3.702559529907045 -0.775634975077761 0.781531543067854 0.31703527461899594
Ni 3.1199647161635893 8.518262322277586 3.4273631066594588 0.24499116426755224 -0.8390404359176001 0.5528221466794608
Ni 3.404038443386904 4.303744142853551 9.288708134926214 -0.45099206331483616 0.07020680003238877 0.040774610814200744
Ni 7.3597560364981165 6.3670560486489896 11.361952656853678 -0.4907971111269161 -0.6266619154787465 -0.5865030838716737
Ni 0.6991701201969721 -0.021572754508364923 0.262017250233007 -0.11476504625873785 0.22259685573275212 -0.35220410921064504
Ni 4.866927553852528 0.42135851566592386 1.6927668969171163 -0.8578989633849999 -1.5507737272453939 0.13255039526661688
Ni 5.900698660299567 5.607122594432845 0.537348644734918 0.36286724535144604 0.7964603964635445 -0.34859659436504487
Ni 8.155370817612624 8.997518976812149 11.417914999947204 -0.6906325047934364 0.05569755067262021 -0.44550121540359405
Ni -0.086916958548483 4.763443553221178 5.694903731347945 1.012113988109244 0.2982947607866992 0.5713248334693387
Ni 7.750928095257186 8.76420893477249 2.7952755115566275 0.299112114481672 -1.4778348729938227 -0.9974903246587984
P 8.441509876781312 1.5072756303442671 3.597900645269927 0.3356598316987187 1.517805242739173 0.38201939279986463
P 1.8485626758438083 3.0267711413653284 1.6968767263189408 -0.18762728163610268 1.2982451169502158 -0.22010725654167898
P 4.727155308602026 1.0647692025745312 8.145444542412008 1.0044269038776314 -0.35561776287788427 1.4944359718856133
P 8.558074313066696 1.8111058881503006 12.426529819791185 -0.10299762131016456 -0.8997634648292698 0.34196700486366916
P 6.208206658324116 7.588699894337468 1.610607448621748 0.9479497947265094 -0.006902126436471983 -1.105087135303871
P 1.8478651733885725 3.018944620309176 5.9087289970082235 -0.8115147196935056 1.29870174487166 0.2740106914283539
P 6.959724790710208 3.9450557698668938 6.093585264592604 -0.6422507710559391 0.04265485855604912 0.7963364692911704
P 2.5518263201904046 8.465007556896659 10.217695349802598 -0.7261746635641042 0.8860844246802804 0.6917427071384796
