# total energy = -340894.9772121946 ev
CRYSTAL
PRIMVEC
9.05099367652268 0.00000000000000 0.00000000000000

0.00000000000000 9.05099367652268 0.00000000000000

0.00000000000000 0.00000000000000 13.24704413405913

PRIMCOORD
 96 1
Ni 6.499436991203461 1.9447417237020537 11.471158595557853 0.032852527753646645 0.6824052317876377 0.2592654147983793
Ni 4.495384106933517 0.43297237724494514 6.050202693892541 0.3757775256552109 -0.34054904147021997 -0.26403224005940334
Ni 2.5472935156272944 1.4573819263666998 4.696222937950348 1.0874493676174497 -0.36596748154332454 0.3978152221815407
Ni 3.2916562740988025 4.139707214390201 4.739341871102405 0.44812579751063475 0.8140266874820818 -0.2065932812156442
Ni 5.142964591644542 4.556822250979731 2.7954971008586567 -0.45659244022074913 -0.4059774462773589 -0.005266133494945769
Ni 7.126489822600283 5.930835475989673 2.5963544260283693 -0.3002076615386959 0.6616376602229832 -0.27094799334263014
Ni 5.242082021734419 4.630723613109566 11.239044056416141 -0.16212425226899174 -0.3179567579920008 0.40410568317594275
Ni 5.549562373758277 8.07226433997874 12.517886989612366 1.385372346887027 -1.020430478394739 0.3993296019435381
Ni 1.9087097184799007 6.482728857156715 0.18389808643649885 0.15398696787383803 0.5343708819528087 0.5274944665479496
Ni 2.7501353315111596 1.8129321050006693 0.5327152309873835 0.0501370258657072 -1.168078391424427 -0.41801509416818333
Ni 0.5217390911398816 -0.0829722678403717 4.7526287295967835 -0.33555570202068663 0.0335634377777422 -0.09550362692596455
Ni 8.797511400125911 2.65180533785794 1.267969069575552 -0.6866357249292174 -0.5541460076972069 1.1558160291173063
Ni 6.993041974070913 0.3923705253921304 4.852710090497048 -0.8956885234289477 1.0909183000026568 -0.15040156451542486
Ni 0.7547695908263012 7.330644032545241 2.4269777536030293 0.10258470214246204 1.1773353912463207 -0.1577369218345735
Ni 7.584406737999524 3.82822632322839 4.0602847462102485 -0.5456271715929184 -0.14874397430734382 -1.3539241556800747
Ni 7.688520316515079 4.008866051995968 12.619717002461618 0.18004844084758023 -1.421362648938707 0.01927196085573455
Ni 7.842097574643562 8.726207673137687 7.055839577344547 -0.009627752897751161 -0.4075360490137304 0.2378820640265968
Ni 6.783973074641998 0.8010835246926052 0.4314871092075286 0.8789293016927379 0.021114413381112022 -0.13738432632015046
Ni 1.8346997444277673 6.3534987716098925 9.062051123570152 0.577563872400515 0.1332996147278156 0.20387871049795855
Ni 0.011790729264732113 5.235746326267072 1.4522337212498044 0.5957485137293417 -1.5321908220368838 -0.8041837332497312
Ni 6.331233327538931 1.8853038492248175 7.114908171285973 -0.31664035317342243 0.5502410162158459 -0.4389706133739279
Ni 3.352623766481727 4.4919447293941 0.5389866644007042 0.41309734515159174 0.0897718666485099 -0.1924534993801524
Ni 6.132935110404507 5.71239879826261 4.9062548630903 -1.6557217874137098 -0.376313600664339 0.059823914136167944
Ni 5.26847471885268 2.8761523143566845 9.310698207484227 1.4791811026090718 -0.4623475975369714 0.36748134708468966
P 0.33591042778454705 5.431492163227509 12.250826564471474 -0.1903189695356529 1.1379808007080983 0.7239246911876629
P 4.164805619434418 6.211796416985923 12.48669002513115 -0.3500855202057455 -0.1425203619951352 0.5740818273891855
P 2.5597024277497686 8.394733137279635 1.2823203249084447 -1.667717012102373 0.9319446775475047 0.5450517587054227
P 6.213190269988739 7.68848411254098 5.9778608179470245 -0.44972888033169645 0.2735586914925998 -0.444159613774035
P 4.651522796229513 1.2162906118471104 12.82140300647237 0.8374049571967062 -1.2812573241429677 -1.4750657948891177
P 4.053469348086089 6.103175443695026 8.313791912386225 -0.9232260667275842 0.3809765533576471 -0.020057689981823522
P 4.840833376793831 0.9475847160834142 3.794257944529887 -0.3002955932668119 0.20757184307882962 0.20644184323944445
P 0.13233910182258432 5.649240965446689 3.675180358419812 0.3950836821829905 -0.5996473345631157 -1.2805289306173753
Ni 1.2720718849403354 0.9683748482098361 2.619550312233678 0.4519174033425829 0.19803510723298798 -0.7170719299318876
Ni 1.7675323214803678 6.511474812591419 4.9346161513002 0.5806998469263354 -0.4779428808720672 -0.8747486879524871
Ni 6.134899175999383 5.711891942625222 9.159443434294204 -0.281322908819051 0.07404879948629828 0.5335468433896166
Ni 8.69592304880377 2.091313512842356 10.208847302034641 0.6524115136390248 0.7829803596992386 0.04323849897366102
Ni 2.431377441555425 5.006864802012412 7.008984394065462 -0.49823505546220004 0.5596985620843199 -0.17174583451915584
Ni 0.5671895602239215 8.976947346754693 9.237071090458194 -0.35043287624283515 0.4906474729229292 -0.6039870995890502
Ni 1.7123665159468282 1.2260023278992003 11.54584558392564 -0.6831593363448428 -0.5853314321610759 -0.5014813303136396
Ni 4.123922281682983 6.941976268604099 1.6352547664137522 0.6589763113407361 -1.3492375488376829 -0.7446069021273628
Ni 5.310896725503328 7.922651417014112 8.12923400852177 1.8551794860258373 0.4210610800833587 -0.02542075406594977
Ni 5.316761769307386 2.7944127918343877 4.8925969138614045 0.19276665974519705 -0.005741016248835274 0.1286752285819268
Ni 0.8380767454270899 7.465721059909072 6.914228637755178 -0.2114161565255843 -0.5129595061565682 0.49443625054140006
Ni 4.976507769730297 4.429257548241467 7.352135616669834 1.703495969474195 0.9815911369300385 -0.7634404898940982
Ni 8.289714459411602 7.017488707581347 9.07252945877379 -0.5324626091865023 0.4655794742107079 0.7878109483186626
Ni 4.837792242969504 0.38425178420040196 10.64199979405073 -0.9476091235576389 0.7885306000935065 -0.8722624311955237
Ni 7.935078431123637 7.1990787906690255 4.457590778371442 0.5074352339042293 0.8840457969836968 0.7647802917514441
Ni 7.332481384230772 6.13173132826571 7.0376507007571485 -0.23714981384626252 -0.24055626842465022 -0.12087527292153379
Ni 2.257200122164541 5.412421719870795 2.6746047905468626 0.04212701107703713 -0.8138533951290112 -0.13954405297563063
Ni 2.509170730900917 5.451196176130957 11.239030479925853 -0.5027247158024375 -1.197038268991887 0.5899720162568807
Ni 1.0625051808675576 3.1887917326896673 3.807504978652757 -0.40866939128722524 0.9960456217924716 -0.23906322881889153
Ni 3.644418746727139 2.629929086508544 2.772738377640595 0.049126582323321843 -0.266552949598728 -0.3352703095697839
Ni 1.0265998895547517 3.3158133758164428 8.174631981843365 0.3044962616117207 -0.4887294299646099 -0.4789597521723558
Ni 3.637684807544702 2.774491555086345 6.964169304726862 -0.546030320568608 -2.0653746256601266 -0.2897478996579526
Ni 3.927253243383018 6.946963366036253 6.134070104992514 1.3237897981885396 -0.9639806229371268 -0.48779251997263734
Ni 0.6866409523665703 7.261784073808708 11.13031175590489 0.09650044362159509 -0.01930127143177321 0.526179861501584
P 0.2257363040047987 5.485816226363244 7.869697674298029 0.7514822890909574 -0.14959938032910364 -0.06894515971114577
P 8.539512829702032 1.464894250992268 8.01194489873219 -0.1801901086317671 0.9480127867539608 0.2985261600712149
P 1.8819549816206484 3.1593941057211787 10.4933544222939 -0.8220063632534489 1.1782144514171644 0.052479300845638656
P 3.990691656998208 6.1278212990630045 3.879661309231015 0.15865506277346872 -0.011597475029612283 0.09123199613380417
P 7.13116013525907 3.76315873077874 10.27163856961281 -1.1608931865298975 0.8558274255679518 1.36501538049723
P 6.342221233678016 7.809876037695341 10.257689178392418 0.919106388132256 -0.6163803310470803 0.0748368426052324
P 2.5073152772283374 8.476490761788982 5.648579337820028 -1.2997206730544777 0.750955727163526 1.1585223723048756
P 6.846750765729879 4.039748041902521 1.445650028559879 1.1257233234969837 -0.4848092689745973 1.1143598188550485
Ni 5.226812995658113 2.956126893141649 0.532445511380345 -0.232168044360955 0.8921092907181216 -0.07670937703759692
Ni 1.3357365733936442 0.8703525883364587 6.945240056869134 0.35755046112422295 1.1587961947915528 0.2140386817500959
Ni 6.7916030621833885 0.7807196943612007 9.22056479356705 0.14229050537251625 -0.9075083988820113 0.20308552517270184
Ni 2.7643996973062146 1.8078635486267918 9.170226787979628 0.4461738159905865 -2.0650537519855985 -0.7139017597340221
Ni 6.38660730592354 1.9548607344627589 2.510725691588475 0.6730279043377958 0.810111925808708 0.9948006936417769
Ni 4.183514023050141 7.11628030190433 10.43288201925678 -0.2287338218684254 -0.7566327229436453 -0.9659382608841299
Ni 8.3115183028128 7.273722334267894 0.26678255963968023 -0.7541611214747012 -0.6795770183102232 -0.43326199302492474
Ni 7.716225407694433 3.7867637218913686 8.23234926245154 -0.4266306037513362 -0.17380014594502324 -0.8486201091862352
Ni 3.2623310550785125 8.483668199654133 12.380607855523955 -1.3649505886975652 -0.057752633429436026 0.23610877417625786
Ni 0.17023923210825195 4.7035207540293795 10.064958227375085 0.14261523570178664 -0.14611116467018706 0.6729170897915443
Ni 8.30949088026325 2.4140538399489944 6.011309669617205 1.6469394132353894 -0.16312595406062874 -0.7539479770226306
Ni 3.830860162344101 2.626743136787821 11.380733739649175 -0.03583809274453183 0.46994803559204873 0.37998924974371334
Ni 1.1238799679590972 3.4455141130265536 12.630446955285244 0.47606520423338006 -0.11196408647483298 -0.318293058285497
Ni 3.0131934073153928 8.218130151624111 8.067993176134397 -0.6749215218160828 1.123986029090903 0.17511397966044037
Ni 5.5881196061738425 7.8511847721424415 3.480130542861431 0.2998698185833029 -0.06563743549415148 0.3867561361539017
Ni 3.0338658765259923 8.20779391701881 3.5197929015863734 0.2672759438076816 0.21233712567795687 -0.102044770478592
Ni 3.4845238951183592 4.212486253322965 9.320288640223085 -1.225756977082818 0.9992214484172921 -0.13924323390576018
Ni 7.367852666925616 5.941144557614399 11.371632965660009 0.16952671538064998 1.4634012140669959 -0.838152376885692
Ni 0.64451400810483 0.013808195721405781 0.28735637302085976 0.7151274046110071 0.6727769646692543 0.0772038001755122
Ni 4.594963137693156 0.2997924381239087 1.632287850736329 -0.07691377973891915 0.2710626645436235 -0.08383416100783626
Ni 6.06518842387152 5.651521815814934 0.23685454445063958 -0.5564425170408674 0.9909494382164871 0.26637400081870255
Ni 8.021687388162265 8.888645853926931 11.322619120425264 -0.2565048213341066 -0.0016092534686488412 0.36380801199816054
Ni 8.991428936394344 4.921341964196757 5.6182566993133065 0.8262180873419512 -0.4893338963178282 1.8191393045728284
Ni 8.07441847643764 9.001321672316928 2.6026331002365097 -0.5175257853710119 -0.36770374750814094 -0.6602266388080694
P 8.40678000966112 1.7956899623359615 3.7217839240789092 -0.07613319281915275 -0.6928976466785293 -0.0932719093819684
P 1.830997888076132 3.349609785637975 1.6784135239373177 -0.28909303968277306 0.7090148639553661 0.3188682140626766
P 4.675091583368042 1.1141592009134824 8.223672074959334 -0.582082843316791 -0.9066733045752255 0.29216576507082587
P 8.563570370490899 1.6770857431872324 12.513237494238684 0.0333592921867361 -0.15171539823084196 -0.12796097612372156
P 6.5415693660613154 7.826575120748563 1.369360109238853 -0.7691678792961785 -0.38370835046651336 0.27739503451955455
P 1.7996271445192413 3.116048897731003 5.945326116622847 -1.2492123798922807 -0.264347457306977 0.4795372219423806
P 6.827146313755203 4.0452329439785375 6.212426366135247 -0.6093501636731764 -0.31109371232358035 -0.8833495422476205
P 2.3025365487301688 8.40591111428274 10.209006599520677 1.2701306181021867 0.6205504032643699 0.9263666692390949
