# total energy = -340895.95368889504 ev
CRYSTAL
PRIMVEC
9.03596003202074 0.00000000000000 0.00000000000000
0.00000000000000 9.03596003202074 0.00000000000000
0.00000000000000 0.00000000000000 13.22504087570467
PRIMCOORD
 96 1
Ni 6.493981897766904 2.0111065381354845 11.45743479688412 -0.7175673815110674 -0.20710827317884975 -0.4179171351377383
Ni 4.773119434950087 0.44002324682872973 6.048353644869864 -0.6870283323819458 -0.8518512145290232 -0.3205962524973769
Ni 2.651864542836377 1.436663444824764 4.965447135517791 0.5674712640512033 0.6975863104034502 -1.4951193711058832
Ni 3.42955348733924 4.344028796282001 4.638577603006348 -0.08344335332732082 1.4578931397645731 0.07991142891466238
Ni 5.230564916504444 4.41872907867232 2.9333536763856025 0.25563733112748876 0.09362492184601297 -0.5839402082405041
Ni 7.306992410415859 6.0497198820414395 2.620171816278278 -0.0037131871855290892 0.2729570533528589 -0.1705710974847643
Ni 5.034168323090441 4.4165152684406 11.489227822599656 0.31142744151391527 0.25557768153414695 -0.31989974065098453
Ni 5.5934761831843005 7.732513844832805 12.55511329385585 0.5948658540140723 0.4459334178450062 -0.3757201900547142
Ni 1.699835783595543 6.536143687731005 0.2888733201670272 0.7093228821140881 0.5299786664223839 0.5395976775693868
Ni 2.632572767959961 1.354553675128281 0.40510287531238454 0.6913207891097126 0.25743684623007274 -0.19393959700737565
Ni 0.4771782112850925 0.2806198741847704 4.990033079434063 0.006531116250298429 0.011406699175044872 -0.7634389472322013
Ni 8.400768276207671 2.4009540019612867 1.4176319056000768 1.6630694860280326 -0.19881929369718018 -0.42331773732801936
Ni 6.887154594920351 0.9917508399699788 4.898753617398194 0.20406151593272598 -0.3330887285374328 -0.08627310946663207
Ni 0.77866934617691 7.59242935494565 2.764046891439745 0.12310776179647831 -0.5220378143087525 -0.5861999508089581
Ni 7.832758786509132 3.957569817504749 3.8556947886210664 -0.778442105509253 -0.2845126194009423 0.16711373506378316
Ni 7.464742202356127 3.882697851871971 12.625431135583375 0.437519225639382 0.16386154667507263 0.4305127124145618
Ni 7.883089084430273 9.006936625532957 6.848098464452748 0.7744931481638339 -1.0401433834426346 0.7549057129502096
Ni 6.817324695039815 0.7115375839910344 0.5044008483671432 0.8391576782217548 -0.033244878096058875 -0.9584779479513428
Ni 2.058030279087816 6.608142218042612 9.138502915806061 -1.31206993864845 -1.1009633429434846 0.17877831588590504
Ni 0.1185174602501388 4.861590520577716 1.3691621118695931 0.2839788583846593 -1.00666376362795 -0.133022449807029
Ni 6.392616497034522 1.9862576477794456 7.13496218708698 -0.223366386908925 0.3424416305072425 -0.052566204132490114
Ni 3.3171822871691656 4.40528356999967 0.5507517094472664 -0.4619444485612819 0.019264761766882948 -0.5596959909811586
Ni 6.257149382773526 5.638701163632292 4.84537729731741 -0.5947905206914466 0.15907003882370024 -0.8635260797637903
Ni 5.198116783679522 2.9862492833874996 9.341427990413608 0.3331285806364327 -1.0536316477370564 -0.20134823076662098
P 0.29072840278160716 5.443723215958614 12.317750368002873 -0.22983836778651384 -0.5001813805552934 0.03667807214732392
P 3.8906314248656444 6.143811334869599 12.569846426846949 -0.2759549596389183 -0.45183692781363477 -0.6343274024438044
P 2.1869643941752064 8.4939922768634 1.357325907696002 0.8434995001302183 -1.0709063756571042 -1.0202672133439978
P 6.430820536461916 7.849565672349944 5.710876798762437 -0.15969481689189274 -0.3515037407095108 -0.11969693634271644
P 4.71180140951151 1.1729579844063462 12.577278504053437 0.5548792863188056 -1.730693870045226 -0.12002320933388362
P 4.025899748003792 6.180678052197831 8.1506059128313 -0.004195526138586322 0.17187978899385883 -0.6612823337660934
P 4.568364578416324 1.1481994536516016 3.6603870284026625 0.28732797736255034 -0.5156578789243377 0.2747102885985398
P 0.3768781502519758 5.6021597408687205 3.5181384260644997 -0.30158088773713865 -0.28517082181023146 0.24114762215174596
Ni 1.3965799256904403 1.0356204263985498 2.529434511850178 -0.5269357658310021 1.1832720684457299 0.8319807008573414
Ni 2.020142498264953 6.659800802102786 4.663334326569067 0.36532316309110635 -0.5715318072738222 0.6000067747850635
Ni 5.939291413299201 5.544022373395718 8.98514550408473 -0.16440533499368462 0.42974935188597607 1.2370744589781661
Ni 8.675696399106888 2.202262274674397 10.248229962014422 -0.37304135767097046 0.7608233639862252 -0.36225763679190515
Ni 2.389776519281134 5.063101467425 6.984713145650186 0.42296806729808445 0.9982603700556033 -0.14335519919160472
Ni 0.41443160055004813 -0.06493331308637582 9.30556245746772 0.23453345926933802 0.21178433849828043 -0.35756074553686806
Ni 1.600819732496824 0.9822992256745544 11.51885221788412 -1.2799087805348732 -0.06351061895913578 -0.4304335224371942
Ni 4.010068745856963 6.9545538215260585 1.3772158631329887 -0.1226123102172985 1.052249165567233 0.8465886805785033
Ni 5.711088240229468 7.826162535614619 7.896116228148928 0.1562593088477825 0.23931571114932976 0.19994415133024274
Ni 5.029397336142081 2.768826010752221 4.978077600586762 1.3076260439444833 -0.04347658312639609 0.4903841919592135
Ni 0.9203035032262687 7.418740129337 6.891040057776022 0.06183014593291932 0.37310229281589297 0.10263560998505548
Ni 4.965729961069844 4.601887990496652 6.873490416012567 0.04893632068938669 -0.6948131185336873 0.10196480917027602
Ni 7.972581233552532 7.112321685386583 8.990753220941079 0.27769251115531524 0.23312680872979846 0.2902829462258162
Ni 4.515106629413234 0.4239437557783399 10.427852199044082 0.5035680376393392 -0.651510084870678 0.20588545651534218
Ni 8.460595368224883 7.164956153140739 4.893000421583762 -0.9488476239504305 0.37132180387670244 -0.6152675575988759
Ni 7.251312824098072 6.098767073624196 6.8940291533868505 0.5282927940795289 -0.03791271588537341 0.6466625269703896
Ni 2.439483335953342 5.438879941329219 2.548028710604599 -0.4237753936907282 -0.33101307695532667 0.26133669550511124
Ni 2.3013235055737638 5.23098960663053 11.25659973985452 0.25008426251974347 -0.6384234268900489 0.9716851906702361
Ni 1.1115315274462172 3.3715426233080494 3.532381810016582 0.5263786077759516 0.46631815214894523 0.13029348091164014
Ni 3.486416784433987 2.7965483364294315 2.6991253251015377 -0.03190044825302248 -0.30050333840224375 -0.21481386935322358
Ni 1.3000397276671956 3.165450444675125 8.084837677028963 -1.5552646731372117 0.3480299232282974 0.2337832113668748
Ni 3.4398996616874813 2.6114466931772626 7.023210853781788 0.9437187873642973 0.21047821809234718 0.2866720889461063
Ni 4.306881964189754 6.769687113237256 5.864630889133452 -0.3686303730874684 1.1426578944687935 -0.009934742615208696
Ni 0.7460305545932556 7.322091499792203 11.263688450576089 -0.14653539669179924 0.1670715689719381 0.08238714414866456
P 0.36715545715266734 5.670308952165174 8.021582341738629 -0.4473302981925329 -0.48862427184531326 -0.43282567681845463
P 8.496142835374213 1.6326714919532015 8.094809762627843 0.298352353497512 0.055815564307723234 0.007162579186710246
P 1.6272047360748727 3.1012499479552496 10.297268117637051 2.0498341068223667 0.33987104156658887 -0.450731610564598
P 4.2516089960777945 6.2762333305669635 3.6314240653996763 -0.5495362768393375 -0.21762022845376716 0.0515552463694725
P 6.964782528392617 4.0058670243967605 10.27212736576883 -0.5021264200968062 -0.2877573515904851 1.3212590613468858
P 6.27307074452165 7.599649087089095 10.324564849592162 -0.6122873919246293 0.5398028516016575 -0.6834239028601391
P 2.5671072368219594 8.467525949644186 5.677364229834263 -0.09207531797070594 -0.26646167543650234 1.035113534328211
P 6.795593210928443 3.795735771585963 1.5642846349053428 -0.02887451694250511 1.3026535304305566 0.06931437012510644
Ni 5.046439156946259 2.8851730333792616 0.5650583451202544 0.6942420765215657 -0.07007104578547287 0.21954752738346703
Ni 1.5361855096907333 0.7784859161862817 7.154271130287642 -0.7278605359069594 0.42600762545535664 -0.3906876099978239
Ni 6.816195200023632 0.6527568561568139 9.268373156362864 -0.4770836181955654 -0.11235977925135487 -0.23766069204441004
Ni 2.680653111808865 1.446223490641742 9.13198347057265 -0.05279966029953488 0.43463290523052245 1.0514207561286666
Ni 6.393565272848116 1.8509351088805206 2.7279292552062455 -0.3105586657557168 1.1900536101439376 -0.4932653701617504
Ni 4.154788683290535 6.755554871594767 10.460398823834415 0.5234051269699244 0.6620408091986727 -0.24757666560654132
Ni 7.999273459774983 6.749428490626986 0.27752505784042736 -0.09493129936226231 1.0657222603530032 0.7203068919294175
Ni 7.516979087864585 3.8837189153666007 8.186419037208436 1.8773310824222118 -0.40163742414110826 0.10293385795176466
Ni 3.242391645177552 8.286743495333903 12.386864619841154 -0.685558946925271 0.29206780604038085 0.07578712233364368
Ni 0.220884948960878 4.929116250625236 10.052287877394932 -0.6812433502690526 -0.7912035189399793 -0.20836091463902826
Ni 8.745390759585481 2.5376048269992437 6.041912812489579 0.28324840797653794 0.2196218322648282 -0.5429228852878778
Ni 3.4923082304384003 2.5595712460739826 11.565576264117592 -0.5273641116176725 1.2907891748928026 -0.8683924067171561
Ni 0.9011716648441446 3.250542081214333 12.323450251652542 0.07456584833203288 0.3519505984389422 1.3287638543643632
Ni 3.3242393720302803 8.283942347693769 8.189606923942113 0.26241064529558034 0.668591465832997 -1.0140181471104923
Ni 5.674935363751462 8.079512785724667 3.5526033851903196 0.11221039815768416 -0.06545463005938405 0.5075010541451582
Ni 3.2143440249356807 8.47254994347617 3.342364604453982 -0.15187866328158361 -0.5220013046438623 0.6004284357035143
Ni 3.367747520053673 4.3929585203830745 9.199351974913917 -0.3838633879871389 -0.52125697027867 0.1782898062852607
Ni 7.375747031040988 5.9878145191944485 11.380954430348297 -0.8104441123371462 -0.09174210300100329 -0.9721022236029966
Ni 0.21293782202701017 8.917589051772769 0.4480706729200346 0.18738096995325146 -0.09170636466706142 -0.2682930722182863
Ni 4.794471408736022 0.39376455254192705 1.4712061132076975 -1.5894032666921336 -0.4960843276677843 0.5658676670095094
Ni 5.678938294088817 5.528715456936397 0.4161791552390874 1.2081238373820873 -0.9469092692771368 0.7197913857455798
Ni 7.831114241765569 -0.2948560293687485 11.307224610075883 0.34903291057151503 0.03812046102080532 0.8059197421042313
Ni 0.26658522091167947 5.138533662585805 5.8545006742323045 -0.39138155074105496 -1.4594304023447058 -0.4115325717676332
Ni 8.024086206290503 9.01401178231433 2.8547046794187056 -0.9151553739043078 -0.9175544702641036 -0.8227751230986733
P 8.561608366512216 1.8573144967319255 3.621545050190128 -0.2714365029432745 -0.5013592029134785 1.1077536263924406
P 1.7663314141883042 3.043880637093252 1.3811175907168933 -0.8377607978742282 0.8787166714612995 -0.015068978517980502
P 4.651070721481351 1.0676348331372578 8.176130693005025 0.7182451243043825 0.05164600631106589 0.5535569679629563
P 8.474149308419086 1.5520074758774334 12.417771217867989 -0.18257917768923396 -0.20960275746592932 0.4817861658775574
P 6.396764002733948 7.746962345079825 1.476179505662957 0.2539517158949497 -0.0017316379791260498 -0.3258662426470646
P 1.8830489111806528 3.371940205553746 5.67929521451393 -1.1530955448623494 -0.218309798321624 1.0014418531073785
P 6.929795290771313 3.9084864820814746 6.08542367130101 -0.37452822662914204 0.5995858851975608 -1.3173399287981378
P 2.362234912806513 8.469043990945936 10.229899613295782 0.6262983614917407 0.07542562522916686 0.16920995547117954
