# total energy = -340890.7723088839 ev
CRYSTAL
PRIMVEC
9.11356661168788 0.00000000000000 0.00000000000000
0.00000000000000 9.11356661168788 0.00000000000000
0.00000000000000 0.00000000000000 13.33862594963641
PRIMCOORD
 96 1
Ni 6.357159277303565 2.1396193744244347 11.408153074071103 0.1478572008270163 -0.9191660377255977 0.25081831247229064
Ni 4.77902674190359 0.22259430773823907 5.9714758723130865 0.12673687390863336 1.2818669327025085 -0.9342100765429135
Ni 2.8322686641426134 1.5756627588478629 4.6877798902613135 0.03572984930144169 -0.3285376188316407 0.0845908366682027
Ni 3.6456180300828325 4.441742755124557 4.471707250791308 -0.1293030919739128 -0.9444253265130187 -0.14385862119058448
Ni 3.6770871755973826 2.5182516129264667 2.525562516063383 -0.11627068426998684 1.2788291743174491 -0.6170493320896471
Ni 5.104936997549649 4.756616481602322 2.520333151540867 0.6404988213618389 -0.261070329217602 -0.2885255972150773
Ni 4.826681581722757 4.76439946748979 11.563948583962993 1.5292849612439985 -0.686938600881617 -0.6797328271617971
Ni 5.908152077416257 8.041373728078394 12.509643341543292 -1.3488647388792963 -0.26578701796698095 -0.23001037458800383
Ni 2.000974685541476 6.708104500435425 0.10175479394701988 0.008868506134223436 -0.3057638154702347 0.737521198925175
Ni 2.8722772215735066 2.1226316862578773 0.1428150569650494 0.2903096856986936 -2.465224361773193 -0.012071072231921146
Ni 7.9890345150201645 9.200054360116889 6.98410430852561 0.5182148410182364 -0.2288351233329801 -0.04933458456906987
Ni 8.861239294146879 2.490664846789037 0.9982116851874817 -0.1338104929259631 0.21676276554947832 0.1606075585141492
Ni 7.126727069235125 1.3477597985575747 4.987152351287094 -2.372628652522643 -1.9024407330056463 -1.0521627765010138
Ni 0.7035919491503593 7.369321098905505 2.165099083960948 -0.38902153514931065 0.19111652573628374 0.8133728559481669
Ni 7.849150381077844 4.039779786093348 3.4639481932200895 0.4379087477683168 -0.9461335674533771 0.7619613342454103
Ni 7.490103197227063 3.81683460604051 12.566826415256312 1.6800073994339517 0.42898393447486116 0.6345012090175073
Ni 8.257574868837642 7.30695696257302 8.99676987731819 0.5433612583768771 0.31055969419698126 0.7859258154808078
Ni 6.884379105863296 0.8592188580599077 0.1068182915571804 0.34148055214555384 0.18782679924141846 0.7283387610949587
Ni 2.090387887581225 6.581918057112383 9.184324344142922 -0.2223459160642106 -0.1931456403511706 -1.3054071819162938
Ni 0.25015099910584593 5.091658530994567 1.2399809370793886 -0.2853513132521537 -1.0610994168690113 0.5028064768829663
Ni 6.5424016322785885 2.1740504290881972 7.294787617074735 0.5197410478547758 -0.0803387462600681 -1.338784728935475
Ni 3.4146164571441378 4.381292467780795 0.23233762180415451 0.5933144503665524 1.401608606240231 0.4464617795446505
Ni 6.478606665987869 5.780070012237719 4.722794213188305 -1.116250351009542 0.02195182168074284 0.562178133973064
Ni 5.633523861101324 3.027298989659955 9.396915601166775 -1.0050869060591334 0.2340434070067969 -1.255150856863903
P 0.29602231393885703 5.509050768301518 12.450006895698067 -0.3029924233726846 1.0552041344304988 -1.1422981971365296
P 4.193334269955109 6.442553396466999 12.713058148344558 -0.9309164933933064 0.12544360901850654 -0.47304158691570797
P 2.407676709211424 8.509747257018242 1.5206696751919404 0.4012463593502767 0.3248432006991889 -0.40440984467992286
P 6.643543994549217 7.981807456696088 5.648774503471451 -0.8696147091600314 0.8922650995696956 -0.31395432170082704
P 4.586056082440777 0.9898791512332525 12.577017205442921 0.8879021946153095 0.26337609453264316 -0.3928087701058848
P 4.244424924387363 6.2104217412682985 7.915380492367547 -0.07618307222048169 0.8710488705033966 0.8811666756636889
P 4.912030133053127 1.1546250948957286 3.530880960495651 0.37513809229899914 -0.28994330349821035 1.2554233937989991
P 0.20551366119222964 5.661374920670529 3.556504664384649 1.0038412065774907 0.689925965644715 0.418700293160666
Ni 0.7368163675945659 0.2537955143943686 4.686712691610936 -1.0567285414948253 -0.31807194341362643 -0.5475367299108054
Ni 2.027422255852285 6.88574614085524 4.429504146520014 -1.0793586201895153 -0.2498279235345633 0.44894855052224614
Ni 6.136847918001872 5.935201143123522 9.102478136461912 0.9189732049885012 -1.347890290781169 -0.6513679028658589
Ni 8.952675707974707 2.5380007117767507 10.310851401814233 -0.5333619810723201 0.5272113880898921 0.06386388853349646
Ni 2.877016276212246 5.295665719625674 6.529176935766523 -1.9519884620267867 -1.445138668312382 1.2027887983224188
Ni 0.3646137503379771 0.18838562409983278 9.202798455024052 1.2015011898592471 -0.15558439426794496 0.518299944532875
Ni 1.753678055498809 1.3846697433400623 11.282383120742274 -0.628024600154228 -1.2562173504552043 0.812507422624078
Ni 4.0394243569954424 6.912640275930084 1.6021558969917375 1.2833664000661704 1.2582891453825684 -0.42326837214732266
Ni 5.6512132938970785 8.087971394170458 7.747260706344951 1.7106966009876927 -0.7036751969100076 1.0168399328300037
Ni 4.983544290265023 2.554077043282012 5.0979031468377665 1.354234487831642 1.5770763696956644 0.09551262578702906
Ni 0.8118474501624035 7.5953922323065886 6.682918247743849 0.09779756516646383 -0.29685468590606295 0.8063524587662758
Ni 5.47854766084794 4.507533592503514 7.158466887678081 -0.0024348346937377425 0.0622363802324025 -0.7625418893392286
Ni 0.7520077717817087 7.385643496709316 11.30752653967077 0.22658952183191297 0.3627278915601043 -0.4343498267724648
Ni 4.808818991161356 0.3301389505544724 10.333446667517743 -0.5548070383199736 -0.24184696221161578 0.4244179123707336
Ni 8.495001506238474 7.418634607848231 4.665451652059562 -0.2158590227882863 -0.3214393172239625 -0.4221188319239118
Ni 7.427666152361674 6.5148877746740625 6.943568075587825 0.24150037750547437 -1.2586028199682453 -0.1098804644729269
Ni 2.5799231181963664 5.456538397477642 2.430538091060034 -1.6737768451432078 -1.3566970904395215 0.3929699782740974
Ni 2.517495186897591 5.546698911979655 11.27712823823324 0.047639970475466344 -0.5553814227662047 0.2954830023695169
Ni 1.4430239103628448 3.3623410390521995 3.700521800785948 -0.9864224968804108 0.9858296004914184 -0.5744289263159591
Ni 1.3265160747827651 1.2125782649875407 2.432725347047145 1.1609412661590135 -0.3424943381220489 -0.38463060517046666
Ni 1.0905476080400076 3.662487241883421 7.949301187300982 0.978721014471095 -0.04843932644831012 -0.18392283620132197
Ni 3.877722344581695 2.598988699550678 7.181423050619466 -0.4863010230287754 0.13995851480522994 -0.10487478372821939
Ni 4.028870846857635 7.093954683694921 5.863433628759785 0.9519802560421411 1.1883281428123986 0.33228911545427287
Ni 0.7613236595734764 9.137899835816503 0.10914863054011424 0.6663612909508975 0.53672909777234 -0.13646489982967464
P 0.27203996339685305 5.777053421688829 7.914193905994538 0.32467685032465377 -0.32293492793288253 -0.293025799078276
P 8.810139526148014 1.8999143453703633 8.058597457620227 -0.8742159553774687 0.3287726176605822 -0.024730927087776765
P 2.0177163074094833 3.432907385336348 10.2068364433472 -0.6552546395147748 0.493104419103854 0.1668782220142094
P 4.186681366327648 6.391280470702488 3.900187286282641 0.898934026949439 -0.09535887381798415 -2.00086256201967
P 6.8904031733944615 4.265367900463945 10.561110852362772 0.37840750707889026 -0.10683242167522246 -1.1790837413959951
P 6.457545213545319 7.936002670899351 10.030246508514521 -0.013555370086931492 -0.06283004795234341 0.8678912987110213
P 2.425876501737505 8.803842051618458 5.755149875691241 1.714721148766053 -1.1429296600729413 0.40474434520120617
P 7.076784724196105 4.078084106567618 1.3983811043092607 -0.7893268707425567 0.5544306288171613 -0.12111618528774624
Ni 5.416958177677557 2.8828945266776054 0.24285012089220376 -0.7124763401414052 0.36131635592455835 0.41392549747984203
Ni 1.5821425047096775 1.2221383963645356 7.08014307349298 -0.14003359101753948 0.33289589580033635 -0.7008518685285994
Ni 7.134218420990978 0.9894417000358304 9.361955048282798 -0.475559211131239 -0.6621490526417628 -0.33090997571855907
Ni 2.7247103509764603 1.683394229779662 9.11467026587673 0.6800652708005513 -0.722568948490717 -0.04166909760401211
Ni 6.489597627323098 2.1342241429895625 2.4433298931579848 0.5650834805453172 0.12776120140808964 -0.11393200883448121
Ni 4.506868302140768 6.87604930597905 10.329844985992302 -1.6323525165601498 1.1502642460611416 0.6074789147923925
Ni 8.41087417283424 7.288738942913714 13.416790446420759 -0.9293002979461221 -0.2652645698046077 0.17805455034600304
Ni 7.786038932283096 4.029900679884899 8.275910453506256 0.058870034863330874 0.3468081350060543 0.17304192762276005
Ni 3.0964800738189338 8.30864729613667 12.03450845753329 0.5035387270633006 0.7655415953975009 0.22696464578314463
Ni 0.3158452326787061 5.051823131329319 10.093871962466238 -0.25707123536053794 -0.406219644195152 0.21736748901301273
Ni -0.10835301617480285 2.3793699713115704 5.4310486630178545 1.6482830717474777 1.795846909703791 2.086785744346051
Ni 3.879280764472511 2.654800181488445 11.12837569261985 0.18233569421986018 -0.16695869754315765 0.6401774334666782
Ni 1.3913408741007491 3.6216311227575217 12.408883749070409 -1.3148881248235356 0.03869613101861723 -0.2129174236614591
Ni 3.360390735797026 8.398324791608195 7.992144975305168 -1.0643505768164572 0.5545195889865417 -0.06280459403104667
Ni 5.8839828987586875 8.286072991636367 3.4943729240007952 1.1685995540352196 -0.6739555583583876 0.5706100667905012
Ni 3.521473025681092 8.620914542563126 3.508432423214608 -1.2457282779984225 -0.6415462887897467 0.04687763838814507
Ni 3.596240726173815 4.396840212422504 8.954780030505638 -0.1037391274618794 -0.055931263949981096 0.6164988589028156
Ni 7.416374443328216 6.186799376607506 11.336871312807839 0.17057212592602883 0.36068977808415303 0.3437307816323113
Ni 8.199111339015504 0.16467212377291113 2.1693806375557165 0.018681378459587183 -0.6436929028191043 0.09449678292800501
Ni 4.805820627745692 0.3215129597553058 1.4591120895047027 -0.3051256676656035 -0.08407018827804232 -0.7466912954602172
Ni 6.053960029657002 5.7756863866968855 0.23257730860607537 0.7691959043206366 0.022581227734625627 0.7892463952136085
Ni 7.968346718808746 8.860382618885263 11.378955029356504 0.07845412764284553 -0.46681488927970566 -0.46732679591911774
Ni 9.063542245821363 4.847095970935787 5.840184008973464 0.16246029545217183 0.425674410485654 -0.40937644465657885
Ni 7.335336609005777 6.240660555290099 2.5454364707762647 0.22784627705714952 -0.07361608282425386 -0.9270690946227582
P 8.573861198140415 1.8464723907519667 3.4315613115476142 0.23213539135080663 -0.008921727969662053 -0.7205539749432172
P 1.840001758456765 3.4454385394291682 1.5075716572557945 -0.12987464820666664 0.0661745389445441 -0.19984053587284295
P 5.013281858123111 1.043147948086003 8.312111362806254 -1.0545842414583126 0.37983755465719743 -0.7889275784216091
P 8.64931241612911 1.5132348275490877 12.308363843399446 0.5198364357820595 1.431696169654231 -0.009312535650177511
P 6.648611137586023 7.939192419213888 1.3778263661703907 -0.6086654789013259 -0.08070744245339649 -0.9340954053419204
P 2.1478306979427115 3.3007242151819782 5.770743188166016 -0.280969125024058 0.3963916023611367 1.6240231707588482
P 7.026687448524664 3.7532036839488243 5.725939071983382 -0.15731526091612263 0.24138390653226816 0.002396011036002325
P 2.3546175243907714 8.572658207347505 10.005010131206573 -0.012352093807449694 0.8718844790308146 0.14745636584417185
