# total energy = -381172.5156077638 ev
CRYSTAL
PRIMVEC
9.22284136559628 0.00000000000000 0.00000000000000
0.00000000000000 9.22284136559628 0.00000000000000
0.00000000000000 0.00000000000000 13.49856059764039
PRIMCOORD
 96 1
Ni 0.3353074584104341 5.043519920651891 8.928447164643917 0.7738166909220996 1.2022151852071359 -0.7969229379222599
Ni 1.4099510678220915 8.123496954654973 3.6716757880061994 0.1334834486038475 -0.19247998174271366 0.9517506565298383
Ni 7.173968564086437 7.069473773547541 12.686851784229166 -0.9388110656500348 -0.8056780584070705 -0.49327976833945364
Ni 8.442450471089806 1.8280409040718038 6.83533350457923 0.4940634405830136 0.18786536578883772 0.23130106837496936
Ni 8.560973203059387 1.913324516438368 0.5595663753413771 -0.5075036252483196 1.18405239825518 0.38131568186462067
Ni 4.657424120446259 3.863660294521272 13.259960057271183 0.535935141116135 0.36308141824478113 0.359464133207168
Ni 5.0914418034091815 1.858503948480451 11.224160821418756 0.1826020605073694 0.30281193193076233 1.21521982499692
Ni 7.550998311414776 3.262838306025562 5.044533510897277 1.4168053685853277 -0.9038031821162821 -0.8431673136017802
Ni 3.5468649229219302 1.359520572264573 4.920738080626629 -0.8007793355538725 -1.3079957685790762 1.633420038592716
Ni 5.277503401320187 2.847220191211368 4.217044521639229 0.26010719397338433 1.2548682926264776 -0.37307940999775746
Ni 3.13921534288493 7.099853812385593 12.978527825597991 -0.42356713433466414 -0.2587637925716124 -0.01879270722647086
Ni 1.3088133914717353 7.67574646117904 1.2434142246834463 0.6810358622439368 -0.9883909334606912 0.5985852118471885
Ni 8.137792358479802 7.895028733010707 3.732392518328769 -0.3704820815842265 0.5847303082419673 -0.1491044429705561
Ni 0.10797456851509439 5.814060632492417 2.8163531863591547 -0.06166122445522283 -0.3614958189252161 0.1292943502231644
Ni 8.481260186763917 7.984886874601217 11.063284958194743 1.8191369905799832 -0.04843624112451658 -0.6006585494364494
Ni 5.860663648961353 7.21986142178472 2.5130941787557473 0.34765042840169164 0.2722039772369183 0.6469013824540729
Ni 2.2945783250259137 0.6467618826839973 0.5945181765510201 -1.8814289066406693 -0.5083448902026922 -1.3039043721185222
Ni 3.9103370937196265 7.363368830503628 4.107166358705139 0.03957776229262216 0.2250849122619285 1.3121411582060176
Ni 5.087319193402925 4.066682697357346 8.1096516254796 0.11669491629159902 -0.8781924235267133 0.9060788655243363
Ni 6.281197538123052 2.6737293258250334 2.0874582138547617 2.1485858083719833 -0.488367932860133 -1.86217520061738
Ni 0.26887902254675766 6.924398481828491 7.054658201480314 0.17199240331232313 -0.533005626174166 1.3975665749603736
Ni 0.3713955136531214 0.35724214158242495 2.1232290033609496 -1.6115404649108052 0.4057715009141399 1.016274547244837
Ni 4.450260661921574 5.92545410823194 6.547193500517783 -2.0471107943539324 0.9219795959149928 -0.45475950077706845
Ni 5.198915571648349 6.94372033409495 11.211661104771153 -0.4030489597766543 -0.2849471358351996 0.30065889014350156
P 1.136364707138436 3.3852161856072582 13.198285073750291 -0.30623021358369196 0.2713025484685715 0.37966760473823646
Ni 8.570555735042609 4.804906573712586 11.142575568364293 0.4396002765381267 0.2376853746347584 -0.7917709614076751
P 8.048330799059915 4.122176532721206 1.9331019770589868 0.1504730411833086 0.03609648861224106 1.7673014939659304
Ni 4.6516690675516195 1.1332381639793285 2.8969396057141164 -0.4201308549596055 -1.2008923526306543 -0.7902923199796196
P 7.225081549891077 3.5776046525658964 7.609947945367773 0.9106456589594123 0.7542277130465784 -0.8067975167234944
P 5.825875092040548 9.232617388955642 8.040700742553929 -0.5952144956027425 0.11032552243014547 0.7977937705629874
P 7.144437026636697 1.3913947113733482 3.7375490088310017 -0.10128732348727716 -0.2688576864725047 0.9704094092816061
Ni 2.1974525845876864 1.3383725974450063 2.843228545549829 1.3503436374176678 -0.6278063134958349 0.9231342783447263
Ni 3.836987837836498 1.5607906352769587 7.518198199051798 1.0747841134449554 -0.430663121949497 -1.5818066852917985
Ni 1.703384982719313 6.235507582930669 10.594129172630396 -1.7580408945996109 1.105005374223342 0.6566335221401723
Ni 9.613244044343132 4.077390415964201 6.466174529911606 -0.08617283644334192 0.6075385643857344 1.8164401604741103
Ni 5.793512142349376 1.7641173918718842 6.05083771175332 0.5723126513039046 -0.6320787156189437 1.7133983161895718
Ni 6.880405529412733 2.7646112027862233 12.598220280515237 -0.7869851099832575 -0.4061692505731908 1.0063302915479313
Ni 0.20673644097817614 1.4448964130429103 4.5274171066426945 -0.4810919680240101 0.7457968086704058 -1.4971240602407379
Ni 1.727060016021462 8.634054996548373 11.562380853072986 -0.07758380922275025 0.30357606379029656 -0.007741591618631828
Ni 7.173701101692296 9.01197935947091 6.354461021583231 0.3283509567421313 -0.30797187886514704 -0.4399041809317908
Ni 8.15989028594063 7.002331489776741 1.2026464998273931 -0.15383707255953508 0.9737752404300455 1.396257883451279
Ni 4.331581141651978 4.907658247268972 4.333374984260964 0.7178095794288606 2.784844623510546 -1.5283092275942904
Ni 7.10092366196216 6.687122446859895 7.4703869903886355 -1.1040571513774597 0.41442763392724113 -1.0085936336608115
Ni 6.437561587443127 8.824469775495068 10.474329077157758 -2.4799092174788777 -0.7144010679679439 -1.7233983648250772
Ni 6.86804692223514 5.236009838863479 3.4950740582907582 -0.10379672017269222 -0.16927988947716652 0.5133914514876642
Ni 0.4187760156333042 6.58930499333337 12.940192163960393 -0.3922400420866084 1.0065796885545761 -2.900917847057746
Ni 1.9115537309323252 2.6209285600849466 8.016471416497025 -1.0071684711785105 0.5757826121303761 -1.0871583187395921
Ni 6.482808846258998 5.350409960826805 0.9918178842188456 -1.0104039473966728 -0.32660414925435366 -0.4175484389444099
Ni 4.973158865310211 8.154319689869537 6.393066912467323 0.17596681457903887 0.30490480990404906 0.41574609562834847
Ni 2.8738465336902554 2.41068467260704 12.478770653007338 1.4765686046868893 -1.6411590591081864 -0.4725970431791216
Ni 5.3753946375761315 8.250062004131168 0.5215359897467489 0.14299035965301823 -1.1792570337490658 -0.7309381463910186
Ni 1.3658843326769152 5.255543816477018 0.8309715340865993 1.2559777236405725 -1.4186606766265117 0.8550890047400307
Ni 0.6874788819135752 1.5801770474316597 12.086192117738175 0.039740256012415424 -0.3236617787965781 -0.7030743301012149
Ni 3.9858076030735354 0.7123325943181841 9.558370906190504 -0.20362442839530737 -2.428901358972443 0.5716030268313897
Ni 6.212939290569798 4.733069863782537 6.09407346890842 0.9482153896830702 0.16039929915808504 -0.9034666247124699
Ni 7.788219009336307 1.1135750665893085 11.167750235641872 1.1915134825189158 1.3270116475599467 0.0842697058833581
P 3.2903131498927616 7.623120929421321 10.297511532958767 0.6456849935484686 0.730787222635451 0.05305342818155379
Ni 2.4555999091405285 6.059176082461724 2.9808600821546745 -0.27300718986450406 -0.847034252756354 -1.173689052742985
P 6.676396282570687 6.954197481672372 5.280218605762787 0.1516691183739388 -0.0934266897922778 -0.6347333796329714
Ni 2.91209365605255 3.0431317834997387 1.3184623279114345 0.200106645050036 0.4866452937420716 0.39976103305400185
P 8.417843930828749 6.9466900889540435 9.158841115526005 0.7170673019461974 -0.4096541237979977 0.14036346355313245
P 2.4723762572420513 4.940943481077875 7.194368566486524 -1.3871631202388628 0.38411818431042233 -0.630093823978431
P 3.76939363484801 2.8292909879626817 9.853408673168458 -0.41655162224877934 -0.24007187258906396 -0.46073423030326455
Ni 2.758893041256292 8.179000012860012 6.275548547901951 -1.2142492335535346 0.18664074935311725 -1.1695269509454953
Ni 0.2209276266976995 8.828214249013055 5.92570589179608 -0.0945057817890695 -1.4152472800695886 -0.7095028593353782
Ni 1.9296766138457346 5.974399726359912 5.231393806854238 0.7408831734188724 -0.013205700056996611 1.1936004469549313
Ni 8.807001714305247 6.053900617308304 5.075269551404773 -1.0807030500325516 -0.6946490821519973 0.16529622223907015
Ni 9.056617910769079 9.020381367783438 13.502069783300806 -0.8239244062117681 -1.3560304033898 -1.958315432686079
Ni 8.634387018830756 9.058425587639832 8.326438196488688 -1.1145094570590355 -0.25201670365576595 1.1093595374269796
Ni 6.568166241354981 3.301509679082013 10.373225525319757 1.1994229671739796 1.7526014687515945 -0.09222032818900246
Ni 2.2433085509212605 6.985518250310508 8.302397938675917 0.46819839989079365 -0.5790579404475382 0.20253248088270925
Ni 0.6832419086767201 3.90813283467825 4.312168905541981 -1.0532202712312506 1.2058512392978264 0.08629702072603203
Ni 1.7207792611797152 9.30178869778545 8.034667159855735 0.6140403700599941 0.4350378539784249 1.0921164340758158
Ni 4.620007053789922 4.644087892103872 10.850210580759521 1.4790440628105754 -0.24830068825675947 -0.04044268139607873
Ni 2.9825561626471813 4.736694440365219 9.254923752627079 -1.2988740087834663 0.056498706417676896 -0.7004605466274517
Ni 8.687897943341495 2.9718668897226816 9.171502231894213 -0.2839305216452271 -0.9487118697035145 -0.09447647121303084
Ni 1.4857997136642698 3.147303774597429 10.229829712979097 0.017089865602751213 -0.739486807291978 1.3682536849288696
Ni 4.223000632471535 5.965020096882589 1.3866265024846802 -0.805055337221407 -0.07743365679813116 -0.25422913792605245
Ni 5.716363075901198 8.864386232110457 4.296375712309959 1.2766645625659625 0.39612806428710484 -0.4004727144090458
Ni 6.65960148878681 5.662612357519848 9.506577274706979 0.3306001577876242 -0.6570125027461459 1.061330816153527
Ni 4.417851598024514 1.1251128409021205 0.6522190378086102 1.6954036793843639 1.3841299898394936 -0.9522468794399666
Ni 3.422845377610673 8.310775967601383 1.9757843637434491 0.5213081352315796 0.008286665488824438 0.23824407535170583
Ni 7.162338561361852 9.417812039795981 1.9001653666465854 -0.34454916376854855 -0.011521884596670478 -0.47709056017410084
Ni 2.751533213996801 3.323994965872289 3.9747863078666525 0.12328362525271026 0.02178984218158183 -1.4623282927177912
Ni 8.324840800396778 4.4039343306879575 13.402153211122325 1.4368633156774673 0.511157419950823 -0.42965962038564715
Ni 2.5938226298648392 4.528304343963951 11.707085386576708 -1.141883478196614 1.1529435926655174 2.1599146031212415
Ni 6.593270815039612 1.9296120539574935 8.71442744598802 -1.0489195869733676 -2.8184527984832943 -0.9003923566625203
Ni 0.5914727943942731 2.974642964917051 2.3359667470931997 0.2911049279064793 -0.25492282155896745 -1.2438107492607353
P 0.682104732359558 0.9962881953374866 9.800400393501882 -0.31736103338953087 0.46936079563001104 0.9291493741905547
Ni 3.717653495843314 3.6330431508826933 6.070532166803343 0.056065475535000214 -1.4151187249115242 0.9913942390633894
P 1.5944078913682453 1.1120440749538756 6.143181409041113 2.0823513627237813 1.487479338062122 0.19063727210702008
Ni 4.538809160064904 6.389538253432886 8.766073512012708 0.651928146244703 1.4257543502484993 1.0107651873908337
P 4.761540774496885 4.0261114190183696 2.27886721508037 -1.8814690158499858 1.4011293526109676 -0.2436523908514707
P 6.523905826545081 0.5174226025816696 12.971751804185024 0.24162507600879676 0.2891130942874311 -0.033870684605515865
P 6.475679590028939 4.896341821144414 11.902598552126218 0.2970652592549723 1.1893828093291583 1.1475558459910429
Ni 4.256959133686381 9.122376768363283 12.003446631263607 -0.4406667701294281 -0.8911592681000267 -0.13783144115989812
