# total energy = -381168.5881465528 ev
CRYSTAL
PRIMVEC
9.25527515374066 0.00000000000000 0.00000000000000

0.00000000000000 9.25527515374066 0.00000000000000

0.00000000000000 0.00000000000000 13.54603072504515

PRIMCOORD
 96 1
Ni 1.0307692295286073 5.5439282221233075 10.704316923648 0.7159195614949992 0.37849569591732235 -0.007092130960091012
Ni 5.154531037991378 7.694770829439239 10.370218156452143 -0.1802109345673735 1.1103586681154556 0.32023372695163554
Ni 7.821836499606502 7.683942157715465 7.775394455296478 1.1544908825479796 0.3211032740407825 1.4728132514095151
Ni 9.021292370876571 4.520424383452104 3.7804123939268193 0.9652371210520473 0.7220750395734339 0.041907695977379436
Ni 4.04309283175814 3.8827729585964152 7.738643609415484 -0.0291568240696143 -0.6349097573098356 -1.7022289298363136
Ni 1.663700464145728 2.95910577110842 12.803057886005114 -0.20693446660514683 0.23602855575762577 -2.0586123672356287
Ni 5.336193575251414 4.029043324342167 11.94652846320452 2.9752571812012696 0.07369681546351825 -0.26191107995134244
Ni 0.7479539409835502 1.6215982182726942 4.647385469012121 -0.2600336604229715 0.07414624429611101 0.21264642938825956
Ni 6.936828595699879 5.332593273285134 0.08833141885857247 0.017925217019853 -1.1517017498386164 -0.6502394456883704
Ni 5.59358277237805 3.0392101760394175 5.176412359093384 -2.275434782378449 -0.046808732823422614 2.102447362142708
Ni 5.402165175291639 0.7028205925553574 1.0658800406835733 -1.7525317918559236 1.1967063395737647 -2.88029579993202
Ni 3.9945766803256406 5.929040213940614 10.997954405224347 -1.0902621544758966 -1.3912773995175522 1.1556267959246356
Ni 5.002402083184815 2.020731951681043 9.518118308255822 -0.04938729218387623 0.39897890347233866 0.5305648779431572
Ni 3.3802763142383987 6.7203384586991906 8.663797194064879 -0.6206326785655312 0.2975388564572811 -0.04045322291904001
Ni 3.7740049670598377 4.3909430865156915 13.465485681975798 -1.6344731624475788 0.34898817337650867 0.42758988234081197
Ni 4.320769591635642 6.041399252168495 1.7335259606866196 2.421686329281242 1.1060885799851918 -1.6139465032491367
Ni 3.7380112026720096 8.19862799921896 5.378220853397129 0.48482135315945535 0.5230014637736025 1.0051565829548044
Ni 0.9449913410363505 0.5984636650730967 1.6551078668565382 0.16663422432420336 -1.0242596223328424 -0.7900817466307103
Ni 7.795838432194465 0.2187465730402235 13.206092717816514 0.6275975399191385 -0.8680841314481178 0.6081864823823784
Ni 3.713614297831096 9.244437050586143 8.827853421735055 -0.23896758378129165 -1.6318390672588412 -0.10903097198843802
Ni 4.718061525323451 7.6592768499002 13.245904283132596 -1.597193966381146 -1.915963192972113 -0.05256800390470301
Ni 2.015956229792609 2.715395870398655 6.342224380292435 -0.25746487125453077 0.5455675219995766 0.4528710255051039
Ni 1.9284383496045663 1.2121726190892712 10.516840222647042 0.06403126734929618 -0.43461002241238705 1.28819261781022
Ni 7.143397077924596 0.29600590644311114 2.0921438023530925 3.158049246232258 -0.46950554873799144 2.1425375452953745
P 6.4061681495850715 5.873638137924791 11.287338162420994 0.29017393145177767 0.3711371986697221 -0.43079913330672903
Ni 5.383534306761761 4.465799750534398 9.585509667477607 0.7414387888120263 -0.04767956546415014 0.22125602543414155
P 8.869829795868394 5.1024423504175305 1.4605194125628067 -0.3122113708677913 0.9338920310818627 0.29839014871398284
Ni 0.22899679007789872 2.941770641075404 1.3159224005330024 0.26955805497363894 0.6222905258839283 0.6913578129952351
P 0.4717996738398609 1.2166244063534897 13.096112285257874 0.08539893439179486 -0.7007593088147931 -0.23700300385575312
P 8.715803509691426 0.24294911710660796 7.091306539295752 -0.0762972292008428 0.4546803107997008 -1.177843698341307
P 2.8556317968590212 6.386621008832412 12.886826454299737 -0.8665476401989334 0.8133651426386831 -0.06612440243289902
Ni 0.8642705347918461 7.996844494157654 13.287179107422633 1.1292339077534037 0.0267034774331153 -1.4434108869879982
Ni 3.3428572375040226 3.3948996487029826 10.95840013655264 -0.9429137749644987 -0.5434175655361093 -0.1317906342824569
Ni 3.004447363223609 0.09919526062726162 13.381445934124331 -0.5585266532634059 0.30435665071006296 -0.961113585801977
Ni 6.152157127825253 6.4777947226366015 8.523243811672781 -1.3056925743671965 -0.27607785837002774 0.44623320847361214
Ni 3.409865428341737 4.012985422256057 4.990736734603067 -0.37544688178866953 0.19577125089947572 -0.44446454660896356
Ni 4.067026972850175 1.4255344731475357 6.747928433407371 -0.6512159506690268 -0.5840237690932458 -1.2585208017774003
Ni 2.754184727829713 2.343889132798397 0.957517430191014 0.7435715188843129 1.0598431758644071 1.4216238730198936
Ni 6.0456474233832065 6.513871784499226 5.990013965492944 0.5919466234847484 0.3294115367961617 0.58313622428197
Ni 6.5382594340651625 0.16488827689066146 6.487979227221936 -1.9195681367145523 -2.605057149633836 1.588369940331613
Ni 1.8529800927123166 0.45091051821545175 6.3289902626019865 0.4753170132134458 -0.7935697051793107 -1.065317825825733
Ni 1.7400287168858706 4.8979192839628585 7.253167415741245 -0.32200881657418734 0.10173392410639252 0.6760373805880809
Ni 9.1547719466033 2.3519319667539182 11.246266954180465 0.14027064672901005 -1.3954834671790999 0.06581587005354472
Ni 3.6096868151077954 5.957916671870679 6.104993172066979 0.3998019135942663 0.7599304198583106 0.6903401703639981
Ni 4.404030045333996 1.9617851053488047 12.656517266230017 0.05712451292713388 0.4463985304068828 0.7151518300910393
Ni 7.401609994524237 2.885554100861553 4.107671512914239 3.8931849756443917 -0.08338550350619188 -0.7248307479417
Ni 6.582934646381965 4.3347358015768185 2.2029368480547658 0.3832110991151207 0.25052032161589755 0.43702197428798933
Ni 0.9815126560979005 5.148811278055231 13.063629046669044 -0.5643512303649829 0.9399125262443295 0.7180913723353375
Ni 1.0841999319742048 0.22382771900291756 8.378694001545364 0.39612857850773714 -1.0176081784545958 2.261942404318969
Ni 8.116265307193432 6.963317192685726 12.39327688426255 0.21011157878154782 0.00158945597430694 0.14894092080949833
Ni 9.097102328217968 8.485134291425078 3.7109756189349863 -1.143235107128502 2.555655716382573 -0.16358463886460214
Ni 0.9071761385329341 3.4787987163747895 9.48564802705196 -0.037063223400884554 0.10669949564178399 -0.819087389834441
Ni 7.767396972188347 2.619650050755539 13.248451334806427 -1.0955503994580293 0.6880994539589376 0.5537073774978916
Ni 8.38820379658483 2.392173902356457 6.522413477776039 -0.046740341479332405 -0.0038121746572385953 0.4899363057885176
Ni 0.9673705959321508 6.830679846981957 3.0682846968540027 -1.5998566008149737 -3.441765337873834 1.1042327577233757
Ni 6.075893662009954 9.147312194971366 8.721990661013942 0.1737626078388685 0.1686034322354322 0.6651004219606028
P 3.0268081075694537 4.72017172801834 9.350256311514862 -1.5754802288531382 -0.20778344486900346 0.15230263819287965
Ni 6.402391997394217 4.382206106936851 7.328510907223774 0.3225312647365607 -0.12184740702681597 -0.4577363240172052
P 4.998644441543915 0.5530609881430563 4.703682530118276 1.6901861397391664 0.517716047004947 -0.08318829989372124
Ni 5.7869347219347755 9.210664552192934 12.18377355434244 0.46414685552923934 0.5718598800372022 -1.16417314283275
P 1.5651688067343592 5.468710602380475 5.092697471393631 -0.05827559581244157 0.11283800443935404 -0.3672517475723868
P 7.910631607741451 3.3960565580751805 8.593154456743466 0.4097047745302751 -0.10269063159270701 -0.11573795169496842
P 5.596285312671505 3.2986910653109875 0.565849927107083 0.2935225362090364 -0.42650693368927833 0.3345581139941077
Ni 5.7162892080308705 2.169001456821953 2.9252786665928454 -2.2782370277139345 -1.0110194694934846 -0.6223123802607992
Ni 8.237092922025804 4.342556508932877 11.603096676721266 -0.4302034087042591 1.054936739701725 0.7452113684805811
Ni 7.46770191313917 8.007062317732908 10.40022190687448 -0.17976176284509685 -0.4458056340178903 -0.596378691114173
Ni 2.763477023907208 1.9812582039016433 8.625990321308942 -0.8996431372013217 2.148252850512597 -1.1387698722682968
Ni 1.8729622313889223 3.4739859733864455 3.2529570495367497 -1.2689409686694597 -1.1119267839335236 0.3733241790187119
Ni 5.773884784216381 7.587520702998985 3.876779242520931 -0.5827459308220868 3.1367617976083917 -0.6166107018903316
Ni 2.2716609668733243 5.259106389963109 1.7555387066933075 -3.1660209515838247 0.03324539231669114 -1.2731241535128721
Ni 5.999852322794117 2.015021447019873 7.492986398850435 2.1160636673745623 2.2770998287856976 0.8421445287642206
Ni 5.159945373853264 5.468053477857066 3.959639868340253 -1.7811913645741453 -1.4225489559373241 -0.5046106199712407
Ni 2.362251598353925 7.692068289145784 1.621324262133358 0.976213931778525 0.4456863348312066 -1.990036932159076
Ni 7.459261102359613 0.6688805736850559 4.749400811925052 1.1034151469180866 0.2030608425823535 -3.4583445823887535
Ni 0.7733828089844648 6.81292822957495 8.659747085734688 -0.8663064707224049 -0.27440946952866935 1.7244404329363463
Ni 2.652293405601481 7.972327270742031 11.037712289945556 -0.15158478619024862 0.45853336599720385 0.28853665295867076
Ni 8.577798104500658 5.501270659751618 6.868203508323579 0.25942328053248226 -0.5080859801143507 0.018438923431477922
Ni 0.06274058354555025 9.04463417437004 11.204694110036147 0.6341903626453078 0.31147346426050226 0.055856959068619934
Ni 3.1061998563271773 6.738247415780817 3.5836026736384676 1.2482952673946501 -1.0013305243404949 2.0142873200660083
Ni 7.988329641178276 5.474615467816173 9.619781025192108 0.4328722137856739 -0.037440661344961323 -1.0196146673616635
Ni 6.517453575915552 7.314304985660678 1.1806315674931598 0.1777781567561648 0.3698408484558018 0.2696544713421872
Ni 8.729131105659148 7.720454217502037 1.4730084806175598 0.19005543146162107 -0.5220853797172363 -0.2880296314152652
Ni 3.2842898574458657 1.7419630693561858 4.378943622507252 -0.017092693816228625 0.024099464151364946 -0.22950129616206927
Ni 1.539420631746718 7.342496553242403 6.709023885039093 0.32033657107808705 0.09380669883951585 -2.068214409101767
Ni 3.8693157887790064 3.985395447547876 2.4802100779432448 2.606226230241273 -2.2332170113598186 0.7345235497494318
Ni 8.256205064854516 1.1622311553102231 9.299241235838414 -0.47630894481306996 0.5877819505840973 -0.6046812974425972
Ni 7.664135869263433 6.435063118065091 3.296711361993282 0.4965846643429706 0.009077793931552109 -0.2090306870125432
Ni 6.776619785837884 1.9579719320580395 11.206509069459251 -0.16698955078109304 -0.13698297711667376 -0.4323173697234684
P 4.795963174809783 7.6838033285908 7.364272364209665 -0.2397353151852516 0.9951362226043249 -0.000671315035411747
Ni 3.227601298208158 0.594028537303838 2.1244104675074467 1.4663577255921585 -0.40133866195376683 1.4370186103084088
P 6.9096921294656 4.909747525384212 4.774392830947025 2.3624164878763314 -0.7631239870949439 1.432035812381837
Ni 8.372691955722399 7.548352379293846 5.629744057242973 0.00272871178507272 0.4348568483158704 -0.8465344303018002
P 4.159209511626921 0.6929091185818618 10.973734276135504 -1.1758482651778328 -1.175992246954865 -0.5675951912235773
P 8.845266296077885 1.5134410748846372 2.9419131723100587 -1.65795324784739 0.42722967078791585 0.11797686832781618
P 4.657476495320181 8.169510904139479 1.8641373266977952 -0.35104557012616966 -0.13000577446789222 1.1152162533180727
Ni 2.158940972921318 8.8604542023161 3.8495918722742752 -0.9716589654179912 0.41907670266347824 0.5518294437488883
