# total energy = -340862.1352055135 ev
CRYSTAL
PRIMVEC
9.28135793133507 0.00000000000000 0.00000000000000

0.00000000000000 9.28135793133507 0.00000000000000

0.00000000000000 0.00000000000000 13.58420550654797

PRIMCOORD
 96 1
Ni 7.244434143257511 8.87227298159123 6.46479170777169 0.5431280593201484 2.6902105436737282 -1.3064299667538533
Ni 1.759467059222542 4.9009376241965 8.25720016324149 2.8343306460558155 -0.9628501088771095 1.4724939203968834
Ni 8.924731217697817 2.6518603613124734 13.262396211360302 -2.002317549298642 2.8745588974482432 -0.5128677177737103
Ni 5.034904747332113 3.5559760187107234 5.35680916294803 -1.5901522290430161 0.2768898127483619 1.2097492888006518
Ni 8.100992121637686 5.242343101362939 6.344585126188028 -0.020925951519389765 -0.9468385639402015 -0.8520242497717778
Ni 7.603093665173091 1.039020197704204 12.48620829736756 -0.8211797535870954 0.20419804151059026 0.8764106490359422
Ni 0.28833931210284913 8.979769671362373 2.9123045515790964 0.7642295614542968 -1.5209985528654901 0.026522471770560774
Ni 1.731455920409789 7.567750253443812 8.238141822473397 -0.026340951887373988 -0.9988501811208025 -1.1251841631640622
Ni 2.6213803812392187 9.050187335435387 3.432946047986293 0.35467648201053753 -0.001980006544506267 0.6831066287300365
Ni 3.8563764556933515 6.839089389987341 3.637116435822298 -0.8619430515473864 -0.3689283639438614 -0.8064959263226755
Ni 6.37180085260971 5.631232006682476 0.28017728577019996 0.8413942808617574 -0.4164045551479538 -0.29411440415676443
Ni 8.838906499141975 3.9709733844279653 8.253030049037193 -1.419915374969219 -1.0652772023957848 1.1693767985208763
Ni 4.531279692906129 3.7316721279636784 11.488380623281236 -0.5269072265859119 1.100556080202737 1.5828999183559773
Ni 6.096692116510035 2.8437060336980298 10.06934728302974 0.982324158441321 1.416142023969716 -1.6699168479671693
Ni 8.68274764873622 2.6436092339418513 10.27558184491212 -1.4553330923468808 -0.6440610847918005 0.10488969612655484
Ni 8.304495179824707 6.8106234646266 10.476220675982633 -0.4450178480092723 -1.3427943643155003 -1.6102996505251688
Ni 5.514537491012248 7.7631228419157985 4.872002990250589 0.35975775318818687 3.055233659025912 1.8404437224775596
Ni 9.034863813175662 1.770706783908508 6.915909334893039 -0.8016527392977614 -1.2220630731709985 0.10159277054283794
Ni 4.586540899165617 8.782327340029138 1.9509637525427048 -0.17455579316412517 1.792531729287629 1.6714204290958892
Ni 0.726576270422229 3.753158472016536 6.293752984024447 -1.072012207126773 -1.5849809692547219 -1.6492492923154887
Ni 8.927200058958318 8.23917298136077 12.07342453556246 2.510479376956251 0.857163370770556 1.3851977689823756
Ni 7.030378180885566 3.593500549598716 12.26683690119904 -0.7718693373877417 0.10310689319451921 0.17780566755999058
Ni 1.1369570886094962 1.5143556725737681 11.46172827529757 -1.2668928278911793 -0.6605004612947464 -0.6676224170515083
Ni 1.881201352353116 4.024768136104147 12.373282941230752 1.3844367224466352 -0.7771580965905067 -0.24660376017031077
P 1.5257346176315665 0.5595071835438444 7.272643903134079 0.140660425968261 -1.8761522316227623 -0.5836656144228787
P 5.1768816825271715 1.075013304502036 0.18779343142941068 0.7370404026340145 1.0135921153166674 0.4738509701908807
P 7.369370504940237 4.621652276941842 9.918548416939545 0.8995289802209605 0.5470654467013418 1.1218957222207775
P 1.4012716052130705 3.428218124158852 10.107463964565929 -0.009323077173138784 2.731652355758283 2.702043274642598
P 1.3944405256351426 1.9456325404373218 0.0093045615174901 5.438756075642924 -0.2756032327264544 0.7135366630851195
P 7.395618185709776 3.057929060516173 5.799600483697966 0.5894719366920106 0.7142344604830926 -1.1930664288283321
P 4.710994630225991 0.6715888642273462 3.907048958497231 -1.525982893453959 -0.40239487113242306 -0.5621657926778898
P 8.059940674663263 0.44359044568425604 10.5618421327956 1.1345206100736396 -0.05061833637749993 -1.5757206269987185
Ni 8.005421977053551 8.603698321609572 8.587283311634677 1.4425220566251413 -0.5863457323582031 0.924929422571936
Ni 8.830479025967032 5.653488703459474 3.8237905354621735 1.7451912923304527 -0.2199326786370277 2.018486188638704
Ni 1.702498083068573 6.531449493669409 2.341292196506992 0.6094411807250859 1.3674155052982901 -0.07207727758222425
Ni 1.8670472812167844 2.1918669714188805 8.626595432097002 0.463402264053731 -0.8849405408838242 -1.4952805792740957
Ni 6.147943776060739 1.4117781026073835 2.322410201543219 0.43184557229337245 -2.0453858412430255 -1.577988597097289
Ni 8.751485386989119 6.818169208779936 1.8436480492549447 -1.5582877762342517 1.1041641092689694 -1.490184395698111
Ni 4.252282067753259 6.735026802721407 1.2100756278960667 -1.017710508360415 -2.2742276494442253 -0.9274539887660028
Ni 4.328584112875739 8.726741286235374 10.796156515540837 -1.3494324384573084 -0.25574454612931435 -0.5569580232247053
Ni 6.260044019460485 3.197799127417496 3.5218957998218734 0.8867107454103696 1.0092942592722616 0.5860022329758553
Ni 5.204335939852593 3.4233268484284602 0.6856287746587748 0.732530687689119 -0.006137480356305559 -0.03921549385719698
Ni 3.860191093881569 2.2747680621662334 2.429249771159311 0.4879503857067402 -0.31099112530744505 -0.21381705265759304
Ni 1.5026611613398153 6.172427998787063 10.773090484335583 -0.13524722537248965 0.7543606390800169 -1.0844239505275648
Ni 6.718329639459597 2.4964068941240027 7.667264975229876 0.37878468791265085 -0.7039292219023425 0.5515165404941599
Ni 0.8945512178533388 8.775524104525577 9.91636172896596 -0.6428711782487573 0.8186613580406159 0.7930133184552084
Ni 3.6165461618161 3.9245387497426756 9.369596921988062 -0.1743526760143836 -0.9839694073542279 0.3235563635669654
Ni 2.301080712442627 4.818333536909056 4.127465435590309 0.3254885475926717 0.2049583167153825 -1.0590096242195182
Ni 6.68775684580512 8.311762483234377 11.709381825936012 0.6597939221460251 0.5174491664968056 -1.9590870207447808
Ni 2.8828640836155266 6.573141354354262 12.6231779398557 0.23923883516480735 0.930265747183185 0.5907526031766471
Ni 2.7042165024797167 2.5203249540048724 4.457901275592138 -0.16852552780964525 -1.440355645101442 -0.15316987128918136
Ni 7.105714964763338 5.183694199388854 2.55438753831329 -0.3149629654709995 -1.2876794256192274 -1.8716368602509124
Ni 9.226941519514272 0.4771462678392024 0.6270188543888033 0.6156079716574302 -2.1282067304949996 -0.4031273784230735
Ni 8.553996648865274 1.8048157750075362 2.3843270697121257 -2.0569324084300447 2.04184774618278 -0.7478953430706474
Ni 1.5698767568606764 5.802129653786261 6.104171963020704 0.1131521932456632 1.7037466520324205 0.609379474249215
Ni 0.156241454493044 8.479411654995399 5.973260262978914 1.8360535638296636 0.20845527412504744 -0.602059286438718
P 2.7527951308912315 3.607487556288848 6.241277113337428 2.6691508947899516 0.5183647363325394 0.8306709809069822
P 0.11148396122043303 6.014765568365512 8.00112470824298 -1.9253297217886778 2.719062177798098 -0.2761012554087955
P 1.843648977390757 8.252194726806197 0.8394255194224354 -3.0018323605866364 -2.88876938462067 2.4033955013918544
P 4.238295061063127 1.5745545613542575 9.711471107739673 0.12443496524833408 2.968365339177443 2.2306006567828938
P 4.996906867179889 7.577959747378215 12.416058864544276 -2.5914727260811823 -2.6537988378139135 0.998347787563087
P 7.812063443294079 3.7521653666974624 1.1280544098986967 -0.9644269664459262 -0.013996314279092023 -0.20994548551732875
P 3.8635231014474334 4.878411768033958 13.254055054815895 0.9070052339933475 -1.8130745864359872 0.15794672385253442
P 5.490034705569681 9.05258192583091 7.436442239410205 -2.149660786603717 -0.39516287216035817 -0.3364309055367884
Ni 3.446864372626321 0.6788988618843788 6.080969495851055 0.8122698526919753 1.5271213779337764 -0.3459105628924494
Ni 0.3964773437202346 1.7465752527908276 4.446857387562551 0.8015282979047551 -0.3130096983993706 1.595834109919142
Ni 3.2055026546589094 0.20495280632570567 0.23842416812174014 0.756692115426671 1.7438340069716096 -1.1464898666203738
Ni 7.835322526748273 0.48832937624062267 4.238081589826317 -1.7959176150407261 -1.0184108768615492 0.13842305199730998
Ni 5.877976912360755 4.606152408877794 8.406667154441152 -0.8547231367601795 1.339512865350751 -0.8890435073086043
Ni 6.0793731022540385 5.797303347562726 11.505279192014296 0.16944649696201783 -0.17997362174558681 -0.7351030764019856
Ni 6.1859045307804745 7.2173047334663645 2.788565485094131 0.8162915722568588 0.9339038581564045 -1.1030891310372357
Ni 5.435896543642977 1.4314731445426594 11.568377577072157 0.8809998110685214 -1.0828959439188124 2.0390917807041977
Ni 6.06229540330922 7.26142830997923 9.518222094006042 -0.6817863672567162 0.0822724729476712 -0.09305979337116232
Ni 3.1627063123575154 7.768041961720557 6.210359053160806 -0.6727671944772413 -0.4889400033135193 0.02177827221735604
Ni 6.814809357139706 6.865606230142422 7.354869311010137 -1.3938909258809995 -1.1517755404993455 0.5876654796108911
Ni 9.124540295352208 4.747600306659887 11.545379299781198 -1.3959146411792476 -0.945459424204488 -0.2109327891312625
Ni 3.785875259397237 6.135785196920677 9.971689761003926 0.6816004764981551 1.1155396980957626 0.15453486995750804
Ni 0.6900671201128035 5.104997563870851 0.6459686032668677 -1.1615133366123997 -0.597902326847551 -0.32354633626463636
Ni 4.3903515511788775 2.569655372424284 7.647622837035897 -0.9281690125551563 -0.3575728297217261 -0.8202808959219098
Ni 1.5083691965849588 1.7762755987818186 2.2703278604405805 1.4172853935455398 0.5368291136853143 -0.7016278274626755
Ni 6.224747014521817 7.991852631478917 0.5071361922036054 0.6189295798314954 0.6913081907042223 -0.4234781741652836
Ni 3.2562809649453817 1.747837517495445 12.132923609940535 0.02322014687020517 0.6908443636939263 -0.11048441660551296
Ni 2.763886353847242 4.4812253285531884 1.5044097692100349 1.0493538462973089 -0.6610427069514615 0.9242853612300339
Ni 6.107356396992426 5.608167831748847 4.581952195710009 2.227471367125293 -1.2252743810194444 -0.11997795791824498
Ni 6.194220627657951 0.595867832123315 9.274779495547635 -0.4583839849035331 -0.35480529427891794 0.569698096499193
Ni 4.267614871371109 5.8537154422293645 5.690070248362253 -1.6090020147596678 -1.5109203426938818 1.9131372934875437
Ni 3.408161109256811 0.21244471860193312 8.573087474386796 -0.5933671579813588 -2.2421508235143386 -2.0972182525332848
Ni 5.901096775443116 1.3618258331937856 5.453053134131836 0.21940688804054473 -0.190435183398543 1.0096207893737452
P 2.1162331840811976 8.295863516771075 11.606888716328537 -0.36027094537917953 0.9568167581988359 -0.9963091598665036
P 0.5977398820565597 3.543186307218353 3.416997890324943 0.5262371971020807 0.8047252075754979 -0.3028913790184461
P 4.580405921446853 4.6951420705533 3.034535397369207 -0.35211232082778715 -0.2706667146567855 0.2410805163592364
P 1.522495423646924 7.165236314400909 4.513637687387481 0.755822311227208 1.0635895302807166 -1.1727958515047543
P 7.715648695120825 7.167556653931455 5.35966225243479 -0.2644050500177898 -0.7916123243426237 -1.4304520128344849
P 7.565216442676456 8.804649006312992 1.8731943247011074 0.9629380406052255 1.0277730348027396 1.9801456411872933
P 8.649631762956265 6.258122778329192 12.969724361286017 -1.0392046736784488 0.5647050141599758 0.31639661259373253
P 3.947222388993295 5.9213208547913565 7.813241247639784 -0.4977367756695428 0.07162784874963148 0.9304549803758556
