# total energy = -340893.8273831964 ev
CRYSTAL
PRIMVEC
9.04019745649483 0.00000000000000 0.00000000000000

0.00000000000000 9.04019745649483 0.00000000000000

0.00000000000000 0.00000000000000 13.23124277474857

PRIMCOORD
 96 1
Ni 6.382758947756083 1.8955756802602948 11.312024133199216 0.04454924736528457 0.621108332650369 0.41028455829314503
Ni 4.569132655579514 0.5475548032988738 5.766876525591859 0.008608310494301304 -1.3785712648047936 1.20850153243648
Ni 2.662012643429212 1.5855873165106082 4.634639732902435 -0.12591566355891862 -0.23221612399007102 1.5863503387984228
Ni 3.292249994808896 4.465676638234766 4.793626065883486 0.22088655790986475 0.19918130502228923 -0.18230149854781508
Ni 4.943550505139758 4.638805455795869 2.97910660221848 0.3286862285943629 -0.7107225906750921 -2.1122856883893686
Ni 7.199423246853646 6.221156381690485 2.618661281529963 0.784478798621636 -0.8174035743741148 0.5373150521827972
Ni 5.335334573619895 4.417700311421713 11.866690859675748 -0.30104455561769444 -0.64771513660462 -1.586485064604074
Ni 5.8310628300963545 7.775564057881097 12.276144897703425 -0.5287885027690248 -0.08649216745597363 0.727040096888193
Ni 1.8147834374247465 6.6376563494558845 0.3280127090294801 0.39588329526615046 -0.4328483025262739 0.4215683587370804
Ni 2.6921074600790424 1.3635510318195598 0.4372544526151089 0.2757215034718735 0.5604997178293766 -0.5116325598150286
Ni 0.617297213034065 -0.14776473613291777 4.497325464792108 0.568586608602569 0.2855197205092179 1.468426435195729
Ni 8.833113452938827 2.118018773827655 1.1913307540822193 -0.5870502146243955 0.8111182555860355 0.43730582407699525
Ni 6.8932679267385435 1.0523874424271946 4.708191681759357 -1.221303826407471 -0.5712790678330678 1.0734846779072416
Ni 0.6953385238460196 7.516797451757707 2.5091727405593716 -0.017319722225370173 -0.9752783073381333 -0.46391237092093013
Ni 7.619647775886613 3.9029966809146144 3.902793276476458 0.3812138661794338 0.26219287285781945 0.42377616502167664
Ni 7.649796833719953 3.878036696303565 12.587449514172913 0.1353824653987733 -0.6298572824875927 -0.2482019578953661
Ni 7.796989325366859 8.760719553349807 6.665873517136605 -0.8955167737377739 1.5210078088368708 0.8228609979442603
Ni 6.983877823789086 0.798764708539838 0.3443257449695883 -1.5835838317968791 -0.7473734091289064 0.3252396648066592
Ni 1.7255386101591614 6.445497916680634 9.313762660399993 1.7941828917378067 0.2835759665192858 -0.8361631143698051
Ni -0.1727663056513235 4.982794001407981 1.1439185355776524 1.1370276927662095 -0.6733248667529242 1.2929450448935411
Ni 6.386194222711607 1.9312211780224708 6.969821221082921 0.4852419856366417 0.359346119572065 -0.04006447212105358
Ni 3.2739074345858548 4.006525019837373 0.41289383308182576 0.05296472512248943 0.9649501859392479 -0.7546064365422359
Ni 5.873235350274025 5.616095979655882 4.785435647173739 0.17110717249389243 1.1378141932232468 0.9535707404577126
Ni 5.400306471265535 2.698770085453307 9.127691896453818 0.08907689746401433 1.6149978273317862 0.804035380597325
P 0.2777727168246826 5.695984202766293 12.303229328668548 -0.8828350645050472 -1.384430294688732 -0.12588172499718966
P 4.062104152538834 6.019722706535323 12.651872671845394 -1.093971999227316 0.24712003768509702 0.5742849445389271
P 2.4164085645038256 8.45966290448448 1.492457916486107 -0.05922870375433026 0.045752780755082496 -0.9381407790558874
P 5.990947758684192 7.740777378857802 5.796223717929002 0.9914947691969958 0.5042612070516219 -0.2246362547602841
P 4.797388595979508 0.9565251907736023 12.49190728550202 -0.1466230713095991 0.0887537097966407 1.2176865413698579
P 3.8245187285754185 6.154557248539597 8.3707851092273 -0.3234247230851075 -0.08913551861609165 -0.1461152784352451
P 4.737849856881946 1.29339006095163 3.7787500179311513 0.4833992760009482 -0.14064782756277067 -0.757415880966573
P 0.21678845018662454 5.707763579784837 3.6911062095987854 -1.2952546668633242 -0.7420746226238123 -0.9380171089938296
Ni 1.5680402936456872 1.1149998485902255 2.58612561162226 -1.2891948338224892 0.23789260554955802 -0.13357163744227962
Ni 1.901370446698427 6.464229205385485 4.672864398940429 -0.2305935007849835 0.9189379808751916 1.1313208721894195
Ni 5.756562564547764 5.5698463305178425 9.211418587317162 0.6745075742071158 -1.0070288602768527 0.2806683059541876
Ni 8.409770055854136 2.147372294302873 10.002938481779747 1.4796117623885872 0.3106962197748456 0.5493958946067313
Ni 2.4332142911941337 5.20904301801817 6.973592791376196 -0.7477199938350476 0.16299662757161607 0.32828385094962176
Ni 0.7114228427956678 9.031871229707583 9.177652546563548 0.35760214029776477 -0.10921583430573449 0.02278820153910914
Ni 1.4685800434860474 0.8838736455629183 11.487801728554974 0.04017322978477597 1.1045459180884203 -0.5904777522487056
Ni 4.230052937074899 7.020065733386345 1.6662765010974907 -0.31874428689030265 0.5061555958608573 -0.22688622713672535
Ni 5.517367985473605 7.722859707905575 7.973094175863115 -0.362569254495053 0.7189547487768972 0.38250790240050897
Ni 5.042314660111042 2.991319908705089 5.030862538232998 1.0260771351575555 0.09747771993319987 0.03836343026954683
Ni 0.5066650871111746 7.417319121203565 6.855066765213404 1.3660024270008475 -0.8516493829308625 0.12363972304054836
Ni 5.012274084644719 4.7568794720960925 7.036122931744239 -0.4175103866176229 -0.8385624678399172 -0.0606366398454504
Ni 8.349987231430786 7.102656975474917 9.146241477193916 -0.44957898501739346 0.14326752457380487 -0.15855221864701724
Ni 4.847597851513652 0.0588155233174529 10.375225556847843 -0.5531327359413442 0.748688271285588 -0.5173144406911542
Ni 7.9800714001017266 7.282773865511334 4.8311103397665915 0.05225072977460034 -0.7307419712198124 -1.0022358097635835
Ni 7.116660241017299 6.240041353748609 6.9134962721082225 1.0928106319293631 -1.173664884373269 0.7222488461471367
Ni 2.4710927176774 5.25469601413762 2.301058359635442 -1.1670738614193126 -0.01015842859024057 1.0218980640792013
Ni 2.2447985000809534 5.193747004268843 11.468748608827973 0.21132565369430706 -0.39670604827776196 0.3191325234676568
Ni 1.1475083979061738 3.3984813527098168 3.9054257819160596 -0.8603016592892216 0.6800513868434804 -0.9997909477675168
Ni 3.3612086194423934 2.798610023897505 2.6883765706734 0.8365526364987399 0.29801502476275127 -0.24342793354549044
Ni 1.3424692918293508 3.40316417488603 8.233974380103877 -1.1119717782388463 0.48734231980909615 0.2705343028439792
Ni 3.556079111393057 2.610076710220056 7.105454916524217 1.8346875367200726 1.0560855085941876 -0.12818774742254696
Ni 3.9996273493345735 6.91137544183305 6.1190527778545425 -0.2718031422540738 0.29741055840953295 -0.5668097192078044
Ni 0.8201872639664239 7.487480092071494 11.280679057269522 -0.05743304530648818 0.2266741111259193 0.2837544010786791
P 0.27288829824976407 5.518425688552015 7.971334049458272 0.0032678721179943723 -0.16717389887775724 -0.21112639319930737
P 8.679665144793969 1.467034169756062 7.953842171796585 -1.0433860587496484 -0.17134139999188555 -0.08859404429032483
P 1.7777547894831098 3.020158137936979 10.36728735964141 0.02969521307158757 0.5933694719742039 0.8561765813772544
P 3.8674777459139578 6.355385230478918 3.8125558355526725 0.7276229659748567 -0.06338437779391665 -0.6378102187860822
P 7.028283272687846 3.8298162841647247 10.194831132755809 -1.326076023119555 0.9552766674052259 1.3620241590793898
P 6.3984436899872215 7.493546064427169 10.007595991403658 -0.18327414687372953 0.8209380698899346 0.8255213183852428
P 2.2484507397705094 8.440588088284077 5.934661682557675 0.3342562664829727 0.729229391230028 -0.6249408190225818
P 6.893150404174276 4.089730995339039 1.775699048628147 -0.0011775652478689398 -0.5195366451534537 -0.4024213534949844
Ni 5.2167904670626 2.888008534516363 0.8747448543784788 0.4295840299527053 -0.20770091245752617 -0.9445291990807346
Ni 1.6416274992718887 1.3005950981609766 7.162891809760835 -0.634848565054597 -1.5565301701131966 -1.406490874033197
Ni 6.958004779255647 0.455898955426347 9.083829763409867 -0.18562619204567385 -0.13234599256529464 -0.6912991918431578
Ni 2.9429729338047297 1.6029083344442447 9.210624857998491 -0.0704417988613303 -0.8183348279391326 1.2987238563588472
Ni 6.697231249342454 2.0483007726250424 2.537778636721901 -0.5427657908847233 0.27789999918043107 0.16404152389636265
Ni 4.0202932402512195 6.815350466628932 10.589201601669563 0.21243071383302772 -0.7150988653659168 -0.466237676619997
Ni 7.965896370811569 7.002672393874698 0.31195731871103616 -0.11054535175043544 0.22569246393894035 -0.6597193601543477
Ni 7.703513685787629 3.8938841620852274 8.109627370930923 0.3885613076834405 -0.16758064739787268 -0.6343304877675978
Ni 3.2366075807266768 8.291515235608886 12.528227181979148 0.7071477288396402 -0.1366703309722614 -0.1734749013951206
Ni 0.08600753262986707 4.756138175921479 10.098918255997608 0.2793058783890222 -0.8486753879042028 0.46700515091364087
Ni 8.659243339203112 2.3568065440255035 5.980998117589328 0.26685762532334045 0.8509940087350505 -0.25586564508821097
Ni 3.7543487175102377 2.6433536763023713 11.528540473448576 -0.4046463861707612 -0.2925622291782961 -0.05672007839986361
Ni 1.1701721724153737 3.1639424752201157 12.532368496340002 -0.5569886193523246 0.275340465983371 -0.3510679387236728
Ni 3.2296827896321227 8.581398200671511 7.912256360420529 -0.9124821979475188 -1.0018213479339844 0.6089130761357578
Ni 5.8725663756774225 8.008150252764501 3.5998110655965885 -1.5457693320522667 0.5203174891835362 0.39356416021467056
Ni 3.0558488366854117 8.468838704694628 3.6081199108903284 1.0656772660476808 -0.5733701460341416 0.27163422077637733
Ni 3.488377074177501 4.19708333769913 9.55707233726298 0.30048071269442445 0.45590287035289223 -0.7202963504064563
Ni 7.26053498027295 5.917830643315063 11.178362104778445 0.5286856586425733 -0.04068925018924605 0.9904233905096879
Ni 0.3046474152135734 -0.21765630912275666 0.22517865725562672 1.168388209355362 0.6639393117729662 0.45064162195395296
Ni 4.645504241959139 0.626599576005731 1.7666353468639175 0.35366578135783605 -0.8983105344328272 -0.6878320592301638
Ni 5.860551953530344 5.566139849644778 0.5919711004343349 0.3874693601708424 0.4624828375632551 0.17337822791625623
Ni 7.840563076118491 8.808840523318883 11.301135215609936 0.3756150319354176 -0.16163882799214097 -0.0030984364196656312
Ni 0.1598677522130601 4.8926451544172584 5.830081968694581 -0.5713608289135966 -0.0957216564740416 0.04714837555102847
Ni 7.962632859603823 9.072199549645973 2.7595608918701853 0.08713417191534671 -1.0330060010669049 -1.5411883975498037
P 8.69129987865649 1.72040377812038 3.844972174856657 0.375417828322947 0.8402069454218756 -0.9500588706497121
P 1.5554382586772688 3.2268080069061846 1.555597366148893 1.0065917727394342 0.5513121377928377 -0.16552453619979235
P 4.809475339704599 0.9890518204840536 8.152456209429042 0.5350267703692528 -1.093856042474742 -0.6673650496250635
P 8.550028716209237 1.6282028063535952 12.318855309617552 -0.31017042917836257 -0.027743231551539318 -0.4151801958225495
P 6.390117668318704 7.897353595251635 1.4720153184415703 -0.5578576522208393 0.5039287634128676 -0.796095556924958
P 1.9123542863588487 3.2376381632133335 5.908993850501843 -0.8662694468368822 -0.06790566270303788 1.1869106936395817
P 6.836947497862471 4.051888729644779 6.054510289578343 0.3035182139691676 -0.43628509612196475 -0.2675829335251392
P 2.598478137146541 8.460178195727808 10.29765072021406 -0.46331921742162147 0.37515943245523775 -0.5427184825865556
