# total energy = -340897.94888415973 ev
CRYSTAL
PRIMVEC
8.99644892990412 0.00000000000000 0.00000000000000

0.00000000000000 8.99644892990412 0.00000000000000

0.00000000000000 0.00000000000000 13.16721238391352

PRIMCOORD
 96 1
Ni 6.35730478005134 1.8444879829861713 11.411706914086665 0.2637985267820424 0.41780786325338365 -0.6778798331134583
Ni 4.579192598622411 0.40473405199478335 6.136381678113048 -0.18145303450459074 -0.29389071818173257 -1.0026471862693893
Ni 2.8377409473298005 1.5967617602049007 4.707528744512133 -0.05429835633224842 -0.46753428394423346 0.5109028807378556
Ni 3.4003968677679985 4.217958177379806 4.6134618725844385 -0.7889134373542219 -0.5210481967019737 0.7266050662333036
Ni 5.0018637708591065 4.483335433321189 2.5735188354545535 0.736231533579474 0.22609741268684286 -0.17001573920192656
Ni 7.4123273640062495 6.2356188093461 2.575638398865625 -0.13545677028013445 -0.8493721568609114 -0.17171420995027198
Ni 4.9807491047904096 4.570609986168411 11.529356178074808 0.019680766258379008 -0.8153842299512409 -0.4006722320143616
Ni 5.485144020771479 7.73082865196112 12.283139860633268 1.1699928348383206 0.632201357239737 0.45753989173568305
Ni 1.9055648760157342 6.501427894844918 0.27025692994038636 -0.7436247407197516 0.0770392495731899 0.631693307255067
Ni 2.574378895989776 1.5969236962889384 0.3124448784118597 1.0401503254211697 -0.860472123428815 0.4027046890633581
Ni 0.8446253274790688 -0.040728724425311155 4.476654670209721 -0.4678176195126072 -0.8750662191929058 0.608753410629442
Ni 8.576944691058248 2.30851583179628 1.4101817031113646 0.6204089925904993 0.2991447674918203 -0.2036933339600298
Ni 6.825686910232241 0.7313447391802991 4.953874012354525 -0.5236414113504466 0.35069281477244124 -0.5771702365065221
Ni 0.6509695631579956 7.350791652071913 2.430154121321219 1.365145735427507 0.023032970560063554 -0.2519133453086823
Ni 7.553706561820299 4.041043005568589 3.7548416688648656 0.7420877352499349 -0.7755940945374965 -0.05601611035430353
Ni 7.549217333712808 3.670632206230513 12.62086566069815 0.40276665264954503 0.17363636667364934 -0.4347105525459933
Ni 7.835448358698605 8.713771685621014 7.030619723516719 0.5147333102275393 0.4281002463183272 0.43333321258249247
Ni 6.809610255666939 0.754080565379196 0.4825524371791134 0.7737290163042997 0.05838512480711235 -1.7499282927948057
Ni 1.8770011500813015 6.511126066988956 9.143536557983474 0.1867050269321494 -0.5734313382893802 -0.4304826305075747
Ni 0.23249163585296564 4.889777011357659 1.5139665393711443 -0.48681267255787125 -1.0216309264607437 -0.5896462574863458
Ni 6.308624993899777 2.01276656364871 7.071781177144375 6.684868219343326e-05 0.16138223189664466 -0.5093615043926647
Ni 3.2897405436755514 4.260160520169861 0.5034889735553689 0.8168443594365351 0.30714089832341945 -0.3793917253690305
Ni 6.180353622443669 5.729640518321108 4.710386016750487 -1.1782404195590934 0.43093771576712236 0.14837913476875736
Ni 5.277056152782998 3.0527380882372235 9.178008252050548 -0.398297818244914 -1.7212502081338228 0.02917173646794976
P 0.037092359693752845 5.382467547042446 12.39371791561843 1.190426420102324 0.6823558666069409 0.0751767424431544
P 3.8787650564645593 6.113411044592296 12.585116470857 0.35032694679259024 0.07155482941985096 0.5764732104394974
P 2.3987052341561808 8.484164311353743 1.5034586868069186 0.013992200514033968 -0.1636373464794085 -1.0435683499637833
P 6.301184930483155 7.816384883027719 5.80857086461583 -0.7930827382405632 -0.8608405625118272 0.4643229760957874
P 4.668104505208237 1.1486216405287157 12.52535036046323 -0.27786066130206344 -0.8512673170010951 0.1199789863595095
P 3.9582306914815173 6.292881207951664 8.102497154885222 -0.5552289563487406 -1.13399327681526 0.5048322490637435
P 4.837471656213473 1.010751057868817 3.700052394120523 -0.27228136744207304 -0.2935361630557912 0.5479126251929853
P 0.34210976971774876 5.619991796529339 3.674890225595794 -0.7669647009972728 -0.432664468650242 0.14244888532725145
Ni 1.3961499414294956 1.150897742154357 2.5873175891043902 0.6216366943500132 0.0722225449108369 -1.0029780872462468
Ni 1.9019213141248854 6.528066380669124 4.894240149762721 0.6308762106704102 0.06185791384706121 -0.15103739832721086
Ni 5.726230864107202 5.31139559904811 9.053894139729655 0.5617441317594389 1.9467148723326733 0.4859225566434341
Ni 8.558421002334153 2.428249573043953 10.172593590507844 0.16499848849299326 -0.3780357255617683 0.8736544264470438
Ni 2.4060283437343317 5.108318753215685 6.97676607948015 -0.5233269654338213 0.23135994663736284 -0.1867338232875558
Ni 0.7316353244866556 8.763639003055522 9.033576559052387 -1.0165028612055589 0.7179090811212023 0.2895362978677788
Ni 1.4269088009475508 1.0737531910086062 11.396906855650526 0.26457731392959594 0.003825030173045025 -1.260065777667017
Ni 4.155405866695678 6.93932105898116 1.6264797305605576 0.060802475999353345 -0.5857348382470816 -0.4125203896021993
Ni 5.588135370219472 7.90379438261164 8.069434304749274 -0.41907078912620727 -0.7503265782199594 -0.2154011093152613
Ni 5.2384074073926605 2.8324780245985743 4.921680219202915 0.2331080396767211 -0.36527739745483545 -0.4289661938630483
Ni 0.8047296742416405 7.352105133642441 6.961742009461094 -0.199050950092012 -0.36229826022185346 -0.06863354200799793
Ni 4.901670317085319 4.595836029481844 6.868689936993371 0.2928008275516635 0.04961509192396616 -0.11148354729398866
Ni 8.125619828395987 7.0338917320591925 9.071446211949523 -0.5742692608096434 0.23881820268762097 0.41232807108573505
Ni 4.5305937805128655 0.3184617035787726 10.215189078124146 -0.050560743666687114 -0.398989702105616 1.2980512557718547
Ni 8.157656183688117 7.324593992254254 4.85455411378963 0.5454901317944217 -0.3992956633818091 -0.3452976118987989
Ni 7.138970257701452 6.024930967563904 7.012870629061273 -0.05049235232259691 -0.11195097384871042 0.04688997968331924
Ni 2.3036307599278083 5.386821828413238 2.716316773293755 0.5464825776146782 -0.5509483266955156 -0.834679073625111
Ni 2.287716041446545 5.153993725363438 11.298877047888467 -0.253716202845376 0.9481840222245026 1.101617945808348
Ni 0.9799742054525354 3.2586937977858734 3.8187290525973943 0.15256900448038888 0.43705616996003444 -0.11809976705892565
Ni 3.6409439241569297 2.5348395021372307 2.5585478444852656 0.152509354887047 0.12144888603681664 -0.27130074869635856
Ni 1.097899660428454 3.3450687057217747 8.219935002319204 -0.0544402812267514 0.020954233654163913 -0.34588922273621076
Ni 3.597769964862649 2.638577556861622 6.979030485721944 0.6117549164599271 -0.26914822112973 0.855461814698417
Ni 4.233288126668711 6.894023937696162 5.996085652772228 -0.08804974175108062 0.3024689467690468 -0.7515938749681572
Ni 0.711747774077 7.226406746632712 11.204797580932015 0.3960031086734664 -0.25040076531889777 0.36239699058324687
P 0.177735647970342 5.449113242073084 7.931086010641464 0.4135907398482425 0.25127365484215436 0.2894643069792628
P 8.45739987524195 1.5727052552761849 8.149596264927595 -0.22461440038341315 -0.12205155261782206 -0.8445096865622875
P 1.7093523208566874 3.275220274806835 10.381780824577959 -0.12056596921123107 -0.9862384058940629 -1.1554434762692358
P 4.112123950012038 6.033225693646281 3.827892835664107 0.10431402612874292 1.6846346137933181 -0.31808222782627155
P 6.829186528937279 3.9343721084332923 10.435279108874555 0.2203700232847624 -0.14614947410729023 -0.22628073234224255
P 6.260017179341118 7.617158517415748 10.175476952448626 -0.10440967116634277 0.7614103468379466 -0.3814673769511366
P 2.3718868193497107 8.481474373068894 5.812731722330688 1.4177325083852874 0.12378653303105779 0.06347230952203263
P 6.987245143407214 3.919285063270444 1.5932720375938878 -0.14848814954279588 1.1362422207504368 0.37081555366424523
Ni 5.395431430214576 2.8822733704401755 0.5261591256757395 -0.9966390324020965 0.16682705706129977 -0.3033480069398905
Ni 1.2297066363860512 1.0248484936292126 6.984969041781572 0.4379347159102458 0.4888412729521258 -0.7172490789397001
Ni 6.674096742674702 0.7477164772765132 9.114779408393106 0.8381973711910146 -0.08094424105455093 1.0132401312938875
Ni 2.5440428695800414 1.4879587046297742 9.1079843903779 0.4347164660832642 0.5750138522851516 0.4431568835411336
Ni 6.469832365559334 1.990527341440862 2.610637284850734 -0.06002060352800631 -0.18385110242312208 0.7804581074980171
Ni 4.007936072831987 6.791887250913922 10.45267284359003 0.6710188443275669 -0.08938234451957511 -0.8491525846509376
Ni 8.132691037398967 7.021845486696608 0.29061319534884006 0.4645376632097548 0.5491709230801186 -0.08972738656381966
Ni 7.65764253842518 3.6769567099570977 8.20745242917463 -0.432798423124945 0.9407702462589346 -0.31485600757949006
Ni 3.244425429492327 8.293340629213507 12.323786717371648 -1.2674463864018042 1.04155826151229 0.6803576052299896
Ni -0.010815531123897569 4.929415366150449 10.179967080201028 0.21358822447623863 -0.5723095659801111 -0.36867948115784893
Ni 8.508445727510288 2.463299738789008 5.8308631658734456 0.2406066620466114 0.03687013355347198 0.024943557319215107
Ni 3.514237934846521 2.5611990980389274 11.30921396791954 0.6874114267529774 0.44403003017470627 0.02470444472521552
Ni 1.1373850755863202 3.3964564230564136 12.47502512376886 -1.09754274729771 -0.18757457402129632 0.9358026178410142
Ni 3.0542404952391293 8.392904331549369 7.910308711414513 0.33490315603835225 -0.3767460602160673 0.21396052021399278
Ni 5.895103210411213 7.849698734093925 3.4709164337867833 -1.4660975299522363 0.6679672019854367 0.41992902336144455
Ni 3.270398178082156 8.330792846871788 3.490680732843588 0.020533086956345287 -0.0850808889307438 1.0656003900631583
Ni 3.304719631449041 4.392849148140552 9.377925544954413 0.5611689759822595 -0.08763990790717165 -1.4323186337295786
Ni 7.105026655197321 6.030679698547243 11.344238043962168 0.11359956519572693 -0.6759998424819261 -0.02208809014829099
Ni 0.6511171049234521 8.916047847482362 0.16372727705616721 -0.08822149144225452 -0.567440667923584 0.9589147783784453
Ni 4.74219926010461 0.3545518588413142 1.4749255487994708 -1.422948505368588 0.024720128454499363 0.42636783700825276
Ni 6.024436162862677 5.6508226276403 0.37459954604518486 -0.4579083308186953 -0.6275080655291257 0.7860571988523495
Ni 7.88441603122179 8.64941108866513 11.331505369532245 -0.4343189735345294 0.6788103153475277 -0.07596684244461756
Ni 0.022933748079387525 4.931538528141167 5.7443281211433295 0.23183380094998782 -0.4110700303089179 0.19179915362560515
Ni 7.928336695792468 8.792130757397047 2.350861218127234 0.2890025368514958 0.6827744422015983 0.5976290185815062
P 8.463418499698687 1.4027353421803632 3.7240567196443823 -0.12534667842932604 2.0105530498345563 -0.27487149676675243
P 1.8038150365453618 3.1939193641707826 1.5663060810219607 -1.0704885713933951 0.12140620572433929 1.0177981829782148
P 4.602601359214976 1.0547436940323995 8.2154844589429 0.40198812261230765 0.9526585130560883 -0.3481854749695552
P 8.55675665924821 1.559768361451393 12.347408693808196 -1.2244184607770527 0.22797868886995576 0.41490097401923387
P 6.33545240515536 7.7461855905973644 1.2741059120495508 -0.6335954093737862 -0.6007968747865265 0.03142376572692007
P 1.8581715820873592 3.1833575329118773 5.983892765289099 -1.589820042514578 -0.06917038834807442 -0.8979539224243568
P 6.802808940137355 4.009888302289553 5.930867694215856 0.6333917780034124 -0.39546060590643506 0.5542308541015294
P 2.4489054202078764 8.421216156908631 10.235782849789189 -0.3537352011431908 0.1391910405115861 0.3625561418689304
