# total energy = -340891.3788540317 ev
CRYSTAL
PRIMVEC
9.09309643909182 0.00000000000000 0.00000000000000

0.00000000000000 9.09309643909182 0.00000000000000

0.00000000000000 0.00000000000000 13.30866578288949

PRIMCOORD
 96 1
Ni 6.324575933149108 2.0423731145718143 11.383327370023293 0.5691525084083682 0.2846272906019356 0.7824589399781299
Ni 4.636033387678961 0.46783071930797027 6.202583860472013 -0.563747535342713 -0.8283099368739736 -0.1026518079349716
Ni 2.5791658773642383 1.40375585772099 4.825829043352649 -0.5100557022462119 -0.14630451162791577 1.717391496509365
Ni 3.0699293859216534 4.457208552873415 4.696615233474164 -1.0015274708426494 0.16774314111766597 0.04351052168812507
Ni 4.8768003955087815 4.45986373703711 2.6895215145129754 -0.24900645607453245 0.015464157073870138 -0.20021154605901648
Ni 7.413865236304847 6.293914011916304 2.4628888158066036 -0.9091063394967505 -0.9267101686214426 0.7505389513410815
Ni 5.123996222529466 4.667059032769804 11.364509206917928 -0.025082911110556803 -0.5028257601566759 0.08432524171164187
Ni 5.7740071292334045 7.756975044690776 12.583276929058878 -0.23567322930073603 0.700413238329284 -1.5140552887784375
Ni 1.8711592014957628 6.590030697843417 0.14280344252451843 0.8964408282139401 0.5357063129347805 1.141805316660511
Ni 2.7581634810023536 1.6676011443434717 0.36017209456660226 1.4092524959387343 -1.4400908214758295 0.9075906741831724
Ni 0.47430227605215347 -0.2012493199633798 4.450949774586185 0.5540758165809038 0.7793237367832578 0.34175771706634045
Ni -0.5232358652936142 2.5369557236386537 1.3531455014939633 0.8411356278837321 0.013981401880756568 1.5185644895027008
Ni 6.864860444978718 0.9160385364746627 4.9300886686406304 0.6760700335982291 -0.821998392833649 -0.01049035800836258
Ni 0.6329267970917828 7.265020340498278 2.366600198867577 0.8802325938851936 1.4340919235799172 0.5053490407991619
Ni 7.636173258339119 4.025004585460499 3.748412596232992 -0.39799057141714034 -0.7584931731911517 0.17157177083513675
Ni 7.533912295651071 3.6795851305760134 12.931205169254197 0.29586378274770336 0.6215703598884521 -1.2456148923490096
Ni 8.011699955572896 8.77431067562968 6.82230202565906 0.7540994149988303 0.8702477147583401 0.5390428335071814
Ni 6.761144586858507 0.8017210372022207 0.24993284905243776 -0.8671338517197067 0.1033452344575704 -0.06236442116983453
Ni 1.7960865971962312 6.488251669267272 9.29579702916612 1.309544601123435 0.6836177640385 -0.1521321740532864
Ni 9.368617273474737 5.084313949617261 1.3423519960066155 -0.7700497676804996 -1.8479626565624236 -0.06030856708207033
Ni 6.379534608099006 1.8808524423125386 7.118765158560957 -0.030252628236954356 0.30417718770940516 0.44094676326369225
Ni 3.3030581927326264 4.535472834027251 0.23977676962630562 0.7859286436942852 -0.6781346294367419 1.2589509473362834
Ni 5.99913401116749 5.58213370102066 4.69157129287279 -0.1761334220638902 0.5636498334225841 0.4022948552194491
Ni 5.479818179753905 3.058053801956636 9.389942403271643 -0.24338216790921954 -0.44670474879339195 -0.494579975208116
P 0.10585819164406823 5.614168679817565 12.550577244911404 0.5234616912394726 -0.6686279754978871 -1.022596889918439
P 4.11837249981946 6.260351392915629 12.500629775415657 -0.42780919744046964 -0.05491362131874414 1.4792708341094007
P 2.680408413249774 8.54020890749845 1.5426210801725766 -1.4043825694409429 0.3361956495975307 -0.9773943252398715
P 6.467837667734757 7.695123802631012 5.973262333145078 -2.259695517266321 -0.5987039968132398 -0.5290317291280824
P 4.708332597560935 1.2273225072820595 12.610187038695994 0.10795110866069794 -0.9827491617938816 0.010082581046982637
P 4.1121073563647155 6.351346009100878 8.25331625861124 0.6332495959985933 -1.9317970746805764 -0.3920775483668151
P 4.984817288250319 1.205426331028029 4.10480469060491 -1.0997942623360477 -0.7592516486237312 -1.337503034009574
P 0.1087907152495187 5.5460250150137025 3.6562767964431417 1.1747231504344542 0.5179898694916241 0.39998266214650474
Ni 1.225958542814408 1.056208618266969 2.404117405514796 0.6620937739237952 -0.06932079788300964 0.037588499776735264
Ni 1.88897257744329 6.701557525815045 4.8521135479539375 -0.6648607951459711 -0.21212449544651857 -0.20331589601595307
Ni 6.178213452673664 5.664389851516488 9.136465974532248 -0.20432479689644165 0.5325027183958183 1.03110492738945
Ni 8.684452696500808 2.2279541200404602 10.152888658587472 0.09487910596808823 2.0228074417218775 0.024084294642713357
Ni 2.434212826838701 5.286735369713176 7.142814580054586 0.07753752936584711 -0.25621222979435226 -0.2045500255333703
Ni 0.6172857618864019 0.2392630096768236 9.273997239734472 -0.5885702508133477 -1.9475599939417874 -0.2355917253305233
Ni 1.4763642328822983 1.1269892810416242 11.509614112154196 0.16866770981446436 0.6031934000431612 -0.2333713206404368
Ni 4.2117858796606775 6.90371524611388 1.5425938008832234 -0.041530515143618794 0.22740584708562128 0.06153112663526177
Ni 5.785964551066481 7.977519006013552 8.121214481299916 -0.32144548787154964 -0.055029835181634255 -0.188179811705463
Ni 4.73874900518956 3.0780858934382085 5.177058077559685 1.5052559453192527 -0.7132129611971136 0.5941474877908091
Ni 0.9055596521245198 7.5344215090523265 7.2029163103571765 0.19876401497921253 -0.24943917273657681 -0.6152320763752501
Ni 5.1499933852829 4.468465806279764 7.273824276482145 -0.742525851228618 0.12573285812415122 0.0027230553581178906
Ni 8.30628900129624 7.2477070848555565 8.963333418105034 0.49835975396552235 0.08362230210734631 0.19137697848652202
Ni 4.925148389338798 0.10061874946899675 10.602655032485867 -1.0827018256301353 -0.26936779333970384 -0.2939261994053583
Ni 8.090928104950539 7.164341576592705 4.759352143128257 0.4751246946969818 -0.5436587350126378 -0.2547726691343483
Ni 7.586297624305335 5.817981343670485 7.038154858522761 -1.5296608565261784 1.909208390746783 -1.226512881412236
Ni 2.2716191691982064 5.486765305442476 2.4657094943257065 0.8903712249810924 -0.8112504102885255 0.7706213239132534
Ni 2.342618066287686 5.218082491508057 11.490995087861112 -0.40891441741849577 -0.037936627144773374 -0.5081826535932151
Ni 0.8621946751496572 3.292792086839437 3.7538420841238898 0.7939160327751359 -0.14476184973114423 -0.7087320426076245
Ni 3.4556676304699128 2.308200696220616 3.042507334954345 0.4048124794349803 1.178108007746287 -2.075416840387477
Ni 1.0969729696568429 3.400754421002269 8.152729334979822 -0.8452907877026862 -0.11596035211841965 0.49334995945575677
Ni 3.30498592918024 2.7086424777301574 7.426608301671291 0.792836426557712 0.27979798753409235 -1.0726372423052817
Ni 4.170485035580194 6.548657108991326 6.006041127231676 0.4833835922716642 1.3691561421384808 0.047734329961485536
Ni 0.9845186458472128 7.45290189936903 11.349257356240651 -1.6153084165936697 -0.23588174576711632 0.4805124413714564
P 0.3397317230543787 5.5478072619181 8.05765191848807 0.0016383069343713721 -0.9133489168231882 -0.16729062696127964
P 8.496261972350723 1.503670801524679 7.964904153307067 -0.555088059895502 1.0071525303389106 0.47180591473639394
P 1.7473476002188222 3.299520978213184 10.540955645136835 0.10765028959082751 -0.9894440573155538 -0.967484008104695
P 3.95950701172388 6.273663686119907 3.771316287573794 0.33989161039187915 0.10440530029096859 -0.38522992931736233
P 7.150001763489463 4.041217576432648 10.655902386683685 -0.14925639516738812 -0.7125141353578761 -1.327645938709836
P 6.8485019644633525 7.791065063285609 10.333620315718793 -2.018827116917891 -0.07955841645061783 0.662409248281685
P 2.3788358694520553 8.565287667510333 5.955907249258682 0.32735593981871364 -0.4515031986232998 -1.062937755629331
P 6.830679495419375 4.160682677606006 1.6897482900595497 0.23416142064189993 -0.654703394996995 0.28734186131962125
Ni 5.277824135191187 2.8746460465397807 0.5957251208914142 -0.8884323560871666 0.5384633068546275 -0.20300607808501814
Ni 1.4262067128585318 1.0221458789614886 7.071160070710988 -0.6653567609457831 0.6848665488439366 -0.2607062610099639
Ni 6.886965762451121 0.7008276762204035 9.45693851930339 0.025388101055801436 0.6160818259700551 -2.121993916816068
Ni 2.5333457643476027 1.4261703404727277 9.34700843906856 1.6451267855066827 0.9031336668530834 0.2207559458692714
Ni 6.461436127833245 1.9533335141235326 2.5122897902056462 -0.4006061546631165 0.4065333187808289 0.9761293424845189
Ni 4.024313510130222 6.668476840926274 10.404475541884349 0.17911333062782056 1.388293377188564 -0.4216292938820029
Ni 8.294295207077358 7.197585937217594 13.7068608454796 0.822446793224977 0.6262924479544698 -1.4178006426190615
Ni 7.511907002239629 3.8331038779584015 8.152689325355437 1.283071237423255 -1.4096427893986176 1.0092734333366555
Ni 3.354024998340533 8.48209492808005 12.485018747428564 0.18185721192154483 -0.15213448804613153 0.3453855436269148
Ni 0.26123193070246176 4.917428350451891 10.279174491408732 -1.4649983833507867 -0.5635583021500423 0.20028765071259055
Ni 8.61085317382634 2.599443482449989 5.929263567347579 -1.0349844649495143 -1.6754362351235017 -0.11725670233234
Ni 3.579770210833286 2.8765555967944927 11.669623511783316 0.19117309000583205 -0.21098935340081082 -0.5823245270139519
Ni 1.241043989826632 3.209617533602056 12.847041287122947 -1.4864704371816333 1.1839284710828064 -0.5047265767238147
Ni 3.2259305486351666 8.282092271640105 8.054577542577984 -0.18544621482438384 0.8724285244597427 0.30252268282511774
Ni 5.693369549905856 7.989612824293395 3.5713409104232006 0.11373171989821702 -0.3232601724827852 0.7425618466728761
Ni 3.115967733253113 8.476266253254954 3.6465608228852386 0.5611144685952401 -0.31317142078821547 0.08044724681347434
Ni 3.491930899116537 4.354674797291836 9.281064394296195 -0.5564363463932803 0.30109854878408143 0.45496493191965515
Ni 7.193466764525287 6.003234997666895 11.566162260363733 1.0165349999950752 0.19524237497919925 -0.007178777136626346
Ni 1.0398410446551525 8.953326465460698 0.08001652083994532 -1.032276836210364 -0.2575497176588532 1.0630277442399756
Ni 4.781659327341873 0.28297079638788936 1.7863951749987457 -0.5022428910700124 0.5210399691718575 -0.5274785257083496
Ni 5.956487388812256 5.618105990580853 0.40985495495562607 -0.01605525369064977 -0.05018407705355873 -0.1267795542211107
Ni 8.277527537221697 9.22367331604565 11.216636363121973 0.08468751014706705 -1.280524045521369 1.2922644738867486
Ni 0.2953237679165853 4.767364979720886 5.888100029023506 0.5259428057901135 1.4043020939119943 -0.986618672051617
Ni 7.971972217178436 9.064334986934618 2.175953429366074 1.1375730237467183 -0.6237550262445967 0.5245749789083094
P 8.393919171794614 1.5651219473405986 3.5246269460254314 1.03455637627316 1.044703749119807 0.9120296837911325
P 2.0128023649131324 3.27182340642341 1.616017826796187 -0.6364825011135942 0.65498133124873 0.9054450885950792
P 4.581847625927398 1.1593152389249617 8.449059708673534 1.106622598111791 -0.2758932531630474 -0.13018652302013065
P 8.55770402507019 1.5398613253996951 12.759377472167701 1.4674021076962729 0.7842425142411139 -0.5451731147746354
P 6.51625840633638 7.872593766065358 1.2274198034140853 -2.354667440058532 -0.26192959189410375 1.6216844953233425
P 1.6523793008844825 3.0738485104920383 5.8723153228942 1.4237411764732126 -0.09413374316163144 0.880731130788167
P 6.760189811731152 3.917287764901844 5.97918466686362 0.46271809350251286 -0.18160627225300335 -0.3918564334949445
P 2.5326365028244244 8.447950350906511 10.402492337548383 0.4329017814720286 1.02926530307755 -1.007115249343072
