# total energy = -340896.53558719583 ev
CRYSTAL
PRIMVEC
8.99157050222445 0.00000000000000 0.00000000000000

0.00000000000000 8.99157050222445 0.00000000000000

0.00000000000000 0.00000000000000 13.16007231188815

PRIMCOORD
 96 1
Ni 6.331036812108271 1.9665194374524417 11.262877335570778 0.5245639231647159 0.9013081836085703 0.5445658202079395
Ni 4.716438457485602 0.17873174348259727 5.983963984161399 -0.9903881663963783 0.43312238212326704 -0.41777855267734504
Ni 2.827480308274803 1.6441356641373677 4.8999159519459345 -0.2138543336534317 -0.2611826864257502 0.028104985766332243
Ni 3.5940117043564124 4.395727116307434 4.961768067142483 -0.48773569859277294 -0.4005027963160328 0.23387808507352623
Ni 4.865491723794633 4.730438332954214 2.660571581011651 -0.20161356861286567 0.2610513030542085 0.07560714511235365
Ni 7.18848197881488 5.9622025849262466 2.4460497897992797 -0.5480005569211013 0.7486975272569687 0.46419879181309737
Ni 5.084571342158603 4.51613323859399 11.458093325486647 0.2743102249466437 0.039509628058848084 -0.721121674521229
Ni 5.4469406300587195 7.766271315833158 12.238498715048069 -0.2672517754379655 0.4890778144429641 0.40370587663436275
Ni 1.8593668902723297 6.409074653593224 0.460612087744425 -0.1971532188486669 -0.4957189739085656 -1.0539453223227333
Ni 2.753533631425827 1.6614714123091607 0.4088071535681882 -0.03888433577002335 -0.32438040213015745 1.0613169321964562
Ni 0.5708253655664863 0.12519862943155818 4.665075009427227 0.20986835242249013 -0.24635976248030472 0.412763873071573
Ni 8.559993221495422 2.1943478540379644 1.3364576045852439 0.31414766865855576 0.6615872666010219 -0.5273707964858918
Ni 6.8555421015819205 0.5915527341793583 4.6927240891099355 0.17716263465935295 0.6051271267307643 -0.09562421166422885
Ni 0.8363131774154534 7.189740798702873 2.465395154006547 -0.6587569962410783 0.9408759185988634 0.5475074193347667
Ni 7.606338249063615 3.664532592795921 3.711561204654286 -0.1817001175183903 0.3551480223303174 -0.2639371092424358
Ni 7.5618749323055665 4.005852613854665 12.554064180355534 -0.23716344069301734 -1.1281645859486247 -0.5804483930371617
Ni 7.796141313461112 8.720726538050904 6.8887191988870455 -0.010519668584401239 -0.22416677132303325 0.0693123132425774
Ni 6.712549153876514 0.7660368596970412 0.21656467605917182 -0.1901122528414855 -0.20449911769077686 0.5466242453988651
Ni 1.9197003291897208 6.455740905155261 9.160042090761673 -0.4314658203564505 -0.16851550050731623 0.4863380469142979
Ni -0.1048318228008901 4.675769583532792 1.3498289692669208 0.9125855562946025 -0.1909614882156582 0.3850000726947434
Ni 6.407698943287061 1.9579954284966015 6.827734770256149 -0.5020202335362451 -0.06579992921394474 0.3829028238460825
Ni 3.4148097017299435 4.3471546517721515 0.5803870017728581 0.06115574557371403 0.30924406070935134 -0.4827770690359169
Ni 6.075927970235809 5.595049781451755 4.655599692298888 -0.42916776835089315 -0.02217216522166504 0.7462529223712181
Ni 5.377264949258293 2.7216315388358265 9.278680470262659 -0.17873332158058253 0.3883592189749634 -0.5530797712162216
P 0.24800100529061492 5.42093700780103 12.328158161570387 0.1484665522762411 0.7577506385981725 0.18479598283489465
P 3.8476279455045406 6.107173678169928 12.478591633970897 0.342586640725539 -0.12045823998877318 -0.014666857983555387
P 2.2790034915055113 8.431557626637597 1.4053375313850465 1.0602098151752064 0.4190594762722976 0.14581394514474244
P 6.214461098909466 7.661555484293376 5.641749301825116 0.6012141648296032 -0.736793319620215 0.8646342252263045
P 4.615418161474143 1.071309674106035 12.476248430665104 0.2826395707479455 -0.6052991335322543 0.3082955807531529
P 4.03151455642847 6.040555131383198 8.075033758803082 -0.2688067786299112 -0.2154779852997837 1.3738440345324532
P 4.564076293185276 1.0418353055857357 3.7349599689008923 1.6000445484560637 -0.5437435814169602 -0.09037196212635404
P 0.024683659689422117 5.480721960910081 3.477061941819462 1.0200149881238756 -0.29789058336974505 0.9657701107373818
Ni 1.5988001650283534 1.2312247577343216 2.6037862158642753 -0.4425274774872508 -0.30353929701509014 -0.3141713228076396
Ni 1.6290657917639628 6.553982805842506 4.781804478483779 0.8773192768931406 0.13655540266095192 -0.01331728593419642
Ni 5.9501898465665395 5.587056275162998 9.166675172414333 0.47536663550445873 0.7876962771176692 0.9369354458938767
Ni 8.625883451061242 2.2407983079049156 9.877147722255351 0.11481364010848613 1.7674611594722462 1.4948740878642965
Ni 2.2291272492290926 5.371573285050437 7.0264394895758855 -0.34743934083215 -1.6248490090942531 -0.8894998781197326
Ni 0.49451480479927207 9.191543159301641 9.31742334978684 0.5440806530414048 -1.007385472285323 -0.49364537920898854
Ni 1.5735068768503173 1.0448564733169194 11.640531394382322 -1.392980241141272 0.39508316796235826 -1.7931991876682987
Ni 4.102314183557462 6.85907578883893 1.5405842409939794 0.07728324726319594 0.3131536801764026 -0.018596789165580874
Ni 5.535435668184646 7.797517023767276 8.00307421906301 0.7220112762150339 -0.012597891269668626 -0.3727742200525128
Ni 5.414346186530323 2.8324526468323765 4.612486909449244 -0.19309576094984163 0.25417205943587196 0.1881939527728501
Ni 0.8775098565641585 7.525728818378903 6.9984873939629955 -0.3192698203764695 0.7969936432591952 -0.001053895185811088
Ni 5.297788456472776 4.354815469947653 7.34128023429069 -0.9434573061727946 -0.5427997294464523 -1.4620375009502498
Ni 8.273063211168616 7.157407110722703 9.115271262288129 -0.9985277647843771 0.612728593227106 -0.10977916300837223
Ni 4.719612481917472 0.3642880890722437 10.37212469378493 -0.8617170515795094 -0.4311757999198575 -0.02161629271819503
Ni 8.140086873143385 7.181963090109201 4.689236258863131 -0.00543736896548741 -0.07527932945928971 -0.24495671148519105
Ni 7.22160692501036 6.114393909384631 6.958757239983802 -0.33901923508925486 0.2636545450050104 -0.14584736948583912
Ni 2.3375386162971976 5.281756486042119 2.6522543781802668 -0.4524748185079498 -0.6520875546407028 0.3278768453191902
Ni 2.2494571904201837 5.0202546374527754 11.218619925780123 0.09553113772979031 1.60079325369663 0.9513315667145485
Ni 1.0464210066062825 3.234672575758108 3.8440969557187197 0.21891966399148105 1.0050845920662883 -0.2970176938464885
Ni 3.653625817623522 2.7392730004089896 2.6906295024657414 0.5535471977709435 -0.28986848439621693 0.10976167950687549
Ni 1.2063360902345692 3.253141261829095 8.135622558326324 -0.4984638836435545 0.6970690044473995 -0.4782046191738861
Ni 3.5339390209872485 2.538410304138408 7.106373653306394 0.9988869478960088 1.1297617552324155 -0.0015802000029263108
Ni 3.9510579824444436 6.622084961782942 6.008981231121139 0.9182340128296315 1.6229024268908439 -0.3673142253792061
Ni 0.5714170109138432 7.404477488453266 11.351589070548851 1.8334487792169651 -0.9717672088610813 0.1518958896727642
P 0.24046966573216383 5.68251978052603 7.819214582850965 -0.512333442536795 -1.283685473968486 0.7684487417419668
P 8.468665838621511 1.588810530060064 7.788368100652754 -0.19468341715193568 -0.007412747524303364 0.7719315580842447
P 1.8483791909642742 3.23782861704872 10.232377703076422 -1.0817497461295111 -1.2435798641968516 0.09997400399249234
P 3.922689577111453 6.272213957056472 3.871508657936835 -0.2533966147224281 0.4588550110026807 -0.9907753745324677
P 6.99881378797681 4.048050054814325 10.312720084113467 -0.8658477859184314 -0.8142835406878943 0.11325246626895336
P 6.245958570821184 7.742021049848031 10.116319005188757 0.2124091165664729 -0.4624730673712422 -0.7167883372531978
P 2.4569196995321017 8.505117665949545 5.907319836123866 0.0600591700754256 -0.08493819270529243 -0.8155215268600536
P 6.549487020528245 3.9842188949224377 1.6963074543952483 2.0090420125066686 -0.9871352066767193 -0.6259803160306896
Ni 5.292249648965605 2.919841721770994 0.3400773859978819 -0.16484036564857418 -0.397781797840444 -0.03629163534218266
Ni 1.5971007581795624 1.126589850330196 7.08923931631668 -0.9389861577753182 -0.7713294057238717 -0.2598634533936944
Ni 6.778349467736048 0.7684618862955538 9.123681078296986 0.6460446908807326 -0.9121435836611774 -0.5990464677543231
Ni 2.7906058771272293 1.4504752159402332 9.296169974292201 -0.3025697340129692 0.15608627360502797 0.25539821853348915
Ni 6.414136907857084 1.7591378524761807 2.4697767463738267 -0.6272815513406165 0.5067376936165725 0.22122362953430932
Ni 4.096622519349607 6.852655807410164 10.288268406946258 -0.20111991680589883 -0.06870064780050748 0.14650248657133477
Ni 8.205167861352637 7.081922875296251 0.5024085046540527 0.11155708084440141 -0.5135297768377414 -0.9464325867510346
Ni 7.628691293646123 3.838600408593503 8.046726496150365 0.7199749625112956 -0.025080854228027773 0.08976698155250347
Ni 2.999120400002684 8.251564365795817 12.400972799677232 0.6120091985625783 0.08424168085890008 -0.026783952962063554
Ni 8.914018331852269 4.977895348221804 9.973176797410918 0.8768927308786835 -0.8426014137959811 0.3863766413272958
Ni 8.706187168344583 2.34531632489087 5.785746607969728 0.05337661584892743 0.26130609937749194 -0.45853722265194585
Ni 3.509868586414692 2.724580774001982 11.602301933541028 0.1705636412855966 0.3602552616498957 -1.0537717728593465
Ni 1.1196393662343478 3.3397210954111456 12.646553274154648 -0.5941480020114412 -0.3557956832166453 0.0996731849226219
Ni 3.2123554974581134 8.271642543009309 8.067019571901879 -0.7710854080338656 -0.18558942527046748 -0.15697381841630384
Ni 5.798645915193408 7.739170721958788 3.4452146978102953 -1.6247160830608145 0.369697380899402 -0.5403535818988049
Ni 2.923087678767891 8.512212015175448 3.6768321622586777 0.8055495032490062 -1.4888407371860228 -0.1784661839621249
Ni 3.5550782035349067 4.1262497445705915 9.202786219215547 -0.26621407820207055 1.0257590896965043 -0.19185828899831475
Ni 7.227730184608385 6.2608935696351615 11.36047184317277 0.2441010483531151 -1.288046064930027 0.033704591341296795
Ni 0.4794548231535585 0.10692236297202176 0.48780979058158225 -0.25948395856708856 0.03250774281971821 -0.7097957079854486
Ni 4.429481472446911 0.3455352693693955 1.62293983469475 0.2663842852313477 -0.2654309201791429 -0.3168072177685899
Ni 5.969341892005294 5.60324110229434 0.29343631083360594 -0.6388718272813771 0.6515069995468844 0.3272860058127267
Ni 7.750167412837472 8.662515109801845 11.337494783588642 -0.4625535429001905 1.3926997337863756 0.1875385785770383
Ni -0.0630461957760167 4.907833029884349 5.672175877674976 0.3320664579205055 -0.7197016542452508 -0.02612215100834856
Ni 7.869926142038775 8.634524350435251 2.451813386572163 0.31330023305659593 0.6409778178807863 0.06299742676814313
P 8.501997590941446 1.609706940200752 3.4454385879189457 -0.5473104728326122 -0.6493364742581269 0.6028784399059036
P 1.860212097911411 3.289494181880215 1.7195875299095582 -1.4012208838835094 0.019190456885521786 -1.2072424632183982
P 4.657282914320548 0.9627454503372449 8.097879541456035 0.973592177884962 0.30078564552935294 0.14946259764092326
P 8.309964617028076 1.649242876254369 12.127927572714992 1.6110167311968515 0.43810595138078745 0.9188006839663789
P 6.253331658736574 7.841809500683382 1.1394540904284245 -0.23791523125737735 -1.0025960213164797 1.1927648384275136
P 1.8648607399263573 3.337059590505103 5.87464356930275 -0.400229230939672 0.5361032912628831 0.9618900589566853
P 6.867006354133287 3.9537104957798586 5.903582040213589 0.24464792199552057 -0.1671625860238476 -0.22425547438209764
P 2.3305251912069496 8.332686316006354 10.239102498749496 -0.0467043460350744 0.7727681950529272 0.12542689684795819
