# total energy = -340859.51835325896 ev
CRYSTAL
PRIMVEC
9.41028342460240 0.00000000000000 0.00000000000000

0.00000000000000 9.41028342460240 0.00000000000000

0.00000000000000 0.00000000000000 13.77290099793409

PRIMCOORD
 96 1
Ni 3.475989211616806 8.62465625367713 1.6472804172419193 0.4888484720409775 0.5667721811016496 -0.19801890928307186
Ni 6.2580076818334005 6.330513913527168 4.830280462890462 -0.2989545058578852 1.1976149674309633 -2.794577277417277
Ni 4.774373029650247 1.1856956772764173 3.5776626159432587 0.25526760649289587 0.5238177890273107 -0.31808428470880057
Ni 0.2903194686377614 7.443402230048922 5.794534298039094 3.556086354616618 0.6244088577785117 -1.3318782316236288
Ni 7.746723886919167 6.603939100820373 2.4034399558869644 -0.5381270065611313 0.23495126353304696 1.2956778704436718
Ni 7.351783713271437 1.0761693916587967 5.5921416920979015 -0.1644063634349491 2.5526621809718875 -1.9469233887990534
Ni 9.278755625358134 3.7028899590016398 13.414048095239547 0.30152766590170005 0.14671408836150862 0.6743846754760063
Ni 7.323590504945087 3.4400607505387004 6.4354705656457 -0.8325034061300308 -1.2190875354824424 0.4868175576538777
Ni 9.053369933560932 5.952455787855898 0.5070796948969353 -0.6640295574939274 -0.468567096084122 0.45786307940305665
Ni 7.385688963471651 6.49081808703831 9.644735652602545 -0.6469278648166342 -0.660321769625037 0.49675024338655743
Ni 2.2478437470372628 2.4384490323010235 13.683045744309268 0.5418643621163765 -0.6147502516428252 0.10024037028000156
Ni 4.544555094487989 0.5841743806561002 9.775329680143074 -1.2525931234390557 -0.0003458133751929528 2.0506283205888876
Ni 9.311559872429449 7.934967191111527 10.887491522805416 0.634658560530978 0.14765408367727476 -0.4983924069756707
Ni 6.990551173877709 8.369496425983876 11.720779624228978 0.5911557521523367 0.2370860504878627 0.20599010041400653
Ni 4.56729974886876 3.542472862092662 7.839934623606138 -1.0274912418962627 -1.6014997928453516 -2.6363487606582656
Ni 5.289661314541535 7.162872278975215 2.502990400334103 0.31009920962079496 -1.1235530553185424 -0.46564529445163677
Ni 4.357375152291916 6.12463573870611 8.669379565390019 -0.5108720274999202 -1.0248707735542801 -1.6996156605831823
Ni 1.702348453224887 0.9765050827855066 9.81514741124831 1.8064791926066563 -1.0609919447568696 -1.2136792199826776
Ni 1.044315583185934 6.014761272611828 12.323853617569538 -1.9002583806423465 2.15858842811065 -3.036320624171493
Ni 2.1747446675048563 6.411009475617824 4.920699168565942 0.9496402950550548 -1.3137193013264148 -0.5354263198005166
Ni 0.9046086374400519 2.141394624010669 4.4638383907432395 0.06096856926357241 0.6813891318182974 0.5412105305824615
Ni 7.8572194317015445 6.089685947075915 12.08306235122258 -0.04248799396088166 -0.5972608366088101 0.01842401103314246
Ni 4.3625978594418235 4.092532143234237 0.5560611597365501 0.7436211411753259 0.7487358366940718 -0.0936118092198904
Ni 6.799964709180253 3.577639090235377 12.768126259618489 -0.8456080618327889 0.825351625576598 0.2137517466372964
P 2.722837199467457 0.8767033837781829 4.165544648161636 -0.1991774483675473 -0.638839431381545 0.6206249652560473
P 6.810607739426282 9.112146562134491 9.584285875684385 -0.42825836916274634 -0.4909899438640125 0.2657577073909423
P 8.160239959510895 6.573449783404693 6.662888878603947 -1.752114758923163 -2.9019514305285825 1.924826042679382
P 0.5991564924639715 3.363780995300584 2.20425625650094 -0.4378796943025943 0.5531193662049054 -0.7370679134378403
P 6.868735058462286 2.713605711694376 4.248181990697911 -0.15536687894050016 0.9326640722120325 -0.3968487445032133
P 8.341557295302657 2.240343751364332 12.20628812705432 -0.1216031522264938 -1.5034818841379656 -0.3452377051951409
P 5.898911276715401 9.192303354031639 1.5283786665189774 -1.2219072643194246 -0.170828464911209 0.16199158334586938
P 5.438089710713605 9.019530555342788 6.282426425587087 -0.6844379459469502 2.4287206104202044 -1.5754686588889126
Ni 6.984820311437539 3.241964879885162 10.131469374294406 1.6214189003667816 0.009817757421370189 1.3786486550099482
Ni 5.24598819042852 1.9228407977825352 6.112895469444442 0.06811135095594077 -0.7001687264186458 -0.514886805086268
Ni 4.986283195972373 1.921702153521024 13.231515891892734 -1.5342559320960287 2.542811513430053 -0.16237262083437196
Ni 0.6838264561612912 6.711103405366593 2.973335172886721 -0.2506077391233813 -0.43241584297454566 -0.28098326609144514
Ni 1.3680105030823961 3.410051357563823 11.271604224657318 1.4090707189452314 1.1957799711047534 2.8317430878342975
Ni 6.425953005264768 8.80965301018171 3.7301421390126914 0.11142132659748553 0.027404103044565704 0.20054578946998364
Ni 7.9270719635461715 4.168567231110376 2.5343379355733346 -0.2746840633462947 -0.4309600843646256 -0.26730062639803
Ni 9.282312712389963 8.487614300120173 13.244268707621663 -0.6527727536331854 0.04929910334544413 -0.05325191734560507
Ni 2.0373451231880866 1.7593465382825315 2.275654897867602 0.4486081364636919 -1.3371232820726522 -0.436225703638939
Ni 4.5538806850926 4.228802453572648 5.625280004221147 0.7608837849105153 -0.16183037517765678 -0.6490860488102176
Ni 5.930322801880072 1.5452249554194555 8.427472239461116 1.15341230477182 0.826441516206667 -0.9782541021370054
Ni 9.37771416299495 6.875021127608481 8.672658108040519 -0.3573542859530168 -3.0628184133517053 0.029722466765097197
Ni 0.8533385917376305 1.0743249761608111 11.90409664519075 -0.028081588727564537 0.172825954957212 1.7707367448997247
Ni 6.322741019642801 1.3147294798701812 11.183182381066903 0.12153733198556488 -0.6591971691022904 1.1513795906125073
Ni 5.046405495036809 3.7562462644790786 3.1326738513463654 1.976706790709073 -1.1571763997999425 -0.5597386712936361
Ni 0.05414582823397443 1.3736754935404945 0.715838357391124 2.2871806100604677 1.0105718404331046 -0.8261113865607579
Ni 2.049107977129321 4.724583221487792 13.53938083346924 2.315036713040787 -0.9217584810431222 1.9732448003024015
Ni 3.168301183363576 7.17640426614921 12.938841029381779 -1.0577734378195718 0.5035461832624684 1.2252736096884964
Ni 0.5305658795901613 2.9828339127013463 9.38245788673237 -1.543720419943038 -0.041178274010522625 -0.7108416327514596
Ni 8.233357859609606 4.934413715233106 4.8881537042813346 0.9657580265525237 0.48118324218623587 0.25514342221020575
Ni 3.3081944527158873 8.26461882024383 8.967328891608222 -0.8395795962505218 -0.8268845172813566 -0.6692998047539311
Ni 3.599235690071483 3.6285863632256508 9.705211778313533 -1.7824478626890656 -0.7696044526129648 2.2642931639393327
Ni 7.081031046393682 7.59802259253566 0.3806581869064408 -0.9686908839286027 -0.6294214805017547 -1.2042530415727712
Ni 1.7894970855047034 5.074231702320192 9.328785395740992 -1.1123042218776005 0.7237447139663729 -0.35057017315164785
P 8.077184800402627 2.404233242756761 8.450404158476632 0.4416946971733103 1.9884428481990783 -0.6863161368062697
P 6.2170917706842115 5.040373503535744 1.3026146813390251 0.8762833794294587 0.5089005055958461 0.5861945514923195
P 8.91943337344446 4.864965825564059 10.528005531964881 0.7168631563551913 1.0775169389950863 -0.33724851634207725
P 8.689850695361027 8.526224691896882 3.7359266400668325 0.38311905362194665 -1.3222959872518325 -0.6220236453757868
P 2.22524965718694 6.943415065564394 7.279225725020328 0.24197243204588648 1.4882000182782307 0.06636942856416957
P 1.1682301917444726 7.356103033238658 0.6850930802736833 2.2007437213224614 -0.08416480487437762 1.058965915465776
P 5.174554731014192 7.038515387108485 12.436653740696082 1.9700471193007107 0.3564718833480635 -0.49807898950030993
P 4.2318890264468285 5.486590310084102 4.011591474750446 -0.997280008420205 2.5119927282769834 -0.5698143103620832
Ni 6.593267839724884 7.881441500537336 7.530016358245649 -0.92698064867401 -1.1672854632094865 3.5030257273462118
Ni 0.8999552524208997 8.568655658633702 7.940228480422363 1.5372026734291784 3.1505609082750126 -0.6389119364906932
Ni 2.210089691027477 9.296089366925937 13.464401579362868 0.22318820945984785 0.2376738046705326 0.30684342168765866
Ni 4.273360144302044 7.277000193054645 6.00103166949162 -0.3401201814629175 -0.7661828285259256 0.6655035709362925
Ni 2.7572788358073907 3.9753552974132376 2.4054923386426306 -0.8430482715254125 0.37176763316486944 -0.08555602879494942
Ni 0.20939385660701532 3.8044833759212917 7.253029378779042 0.10523242417795425 -0.11292927860157971 0.011764082514463611
Ni 8.66507341981921 0.9585408522464535 10.328711732265969 -1.2679171553906357 -0.04196014648186967 -1.2772163213043746
Ni 2.3670343934530016 8.944963471638516 5.92146584337648 -0.5282447144504128 -0.15996221162066646 -0.7411174009168656
Ni 2.7577022985492747 5.007023460041557 6.967862040167541 -0.7484522440153819 -1.7221662921901888 0.10883788214102547
Ni 3.329649898304699 5.925655301436191 10.95949618640713 -1.2886780420870712 1.0556972720168336 -0.1268219774232719
Ni 1.2172201258389252 9.002065069810845 2.6483218723205257 -0.2703183301784312 -0.03824593085507607 0.06422255742449585
Ni 2.921281250597656 2.4622194075454695 6.049361001708733 -1.0711969103143295 0.684895345199343 -1.7308949303124384
Ni 6.1959092233068365 5.521182510954484 6.793497021569205 0.3823526077695673 -0.34084497544408393 2.7387424298358445
Ni 5.3336073368659855 5.016405512345085 10.553980736552074 1.668730540968552 -0.009307650554171067 1.4746629030237441
Ni 8.570330689034934 1.7458333716748415 2.7917534081383604 -0.3945054410820173 1.9607510387107647 2.1702342398796945
Ni 8.07253612052505 0.574349104016066 7.645543581429931 1.063822215116813 -2.5454756905257776 1.0459255373420504
Ni 6.57098428921861 2.3243117079384383 1.1883794900316493 -0.40557635418419824 0.4624836088942035 1.1810953725093853
Ni 5.267716534228768 7.460067841512864 10.285037667124637 0.06545771538317759 1.1118373095435108 0.019298957438928052
Ni 5.125160154744161 9.236964557875716 13.158106273016278 -0.2696958661030839 -2.930115808777941 0.3149092294149286
Ni 3.441208805083365 0.8407513969921945 7.583814006002964 1.074055462809047 -0.6507343830469179 0.9958527890553751
Ni 3.076889692815456 6.264679572588869 2.323695334391918 -0.7746610412002659 0.8253595959963979 -0.21113616339132024
Ni 7.548157502107979 0.6810984150752402 13.658737100868473 -2.6383979298778106 0.22762619062654346 -3.96090269070634
Ni 7.754092138627956 8.419549722074615 5.720078255676027 -0.9843615005863239 -0.4646855016415288 -1.5716639404308417
Ni 8.029700511612653 9.315832140980906 1.8199233540232576 0.44978904414567056 -2.8546369617133354 1.4118349119539297
P 0.9704260398686766 4.504184979761673 5.473708573475979 0.9396397321989173 0.2841215546101106 -1.5792520371907446
P 0.24937250355416712 0.4728366155315293 5.894732169967158 -0.43092614580289657 -0.36400444427968276 0.9828376077426298
P 2.126375812098501 2.460892557620898 8.015125865065304 0.15202367349988014 1.006989522398485 1.146680128254309
P 3.13508288383353 1.3242526864210042 11.93357059305422 0.18465482927134005 -0.42609195763904684 -0.21033140810183776
P 4.105725360214726 2.223508754803637 1.699107551706998 0.3431587111789251 0.18646540011751758 -0.654335470134615
P 3.9957756118552203 4.229367070561827 12.186441839884669 -0.6643697144421655 -0.7400804750119189 0.12534822109122284
P 2.1355414278895104 8.015782702829384 10.704118981173043 -0.965680379237053 -0.554310044078897 0.9628454808914191
P 6.128475134232529 4.395656184158269 8.67371864695186 1.4382951630279874 2.2156468636865387 -0.5497221675978984
