# total energy = -340868.30643634807 ev
CRYSTAL
PRIMVEC
9.23205272370835 0.00000000000000 0.00000000000000
0.00000000000000 9.23205272370835 0.00000000000000
0.00000000000000 0.00000000000000 13.51204235133807
PRIMCOORD
 96 1
Ni 6.815165827831398 6.606133693655268 9.284029944119565 -0.25322486503125424 -0.06677823396681402 1.0975136938319874
Ni 1.9307083849654747 0.8522790894616852 0.0839479771785606 0.6621498239727113 -0.4424503443924122 0.5105269854556757
Ni 4.3537344370632916 6.00595795640634 9.13154597831441 1.9104628319791743 -0.25329119949281537 -0.06995200370910534
Ni 3.8950860656354074 8.051143793177486 12.431808127572806 0.3053488394200032 1.3340703541789412 0.3857752602978711
Ni 4.2900332743649745 2.255916668619231 5.087986350508073 -0.17025330913402936 0.7533013445775671 0.5165418241911878
Ni 4.2267752501897755 3.6380657222265453 7.693000161998186 1.4174214049027718 0.33808823863455323 -0.4764783805113988
Ni 4.589225633890636 8.73450955608939 9.262640201531777 0.3311732566822749 -0.4698469912378102 0.303768896527393
Ni 7.028029263821993 7.661929689090768 5.302152429115585 -0.5995018101241868 -1.023845160503243 0.526679426845822
Ni 1.9651716371905206 2.28424060588857 6.306651447679066 1.923970379547306 -1.731236629922573 -0.39344820346209664
Ni 7.045911749640346 5.214669499009896 3.760888026345696 -0.9566799755106558 -0.3726361518127518 0.8245952070265476
Ni 5.601067827064297 5.382138932538515 1.7738475030392662 1.0261617244515617 -0.5802028526852588 0.16723072025762165
Ni 3.506075066705119 0.952397006707797 2.0472233507722355 -1.5289424903029154 0.21595749603936357 1.7666862289794345
Ni 5.7464541908575 4.109011187670974 5.799949319445239 0.10023214274988544 0.17135605527990488 -0.4951281344021021
Ni 6.151427408672628 6.737865851704875 -0.22666166175420357 -0.06784472755811542 0.8081411752355824 0.6872134518095585
Ni 3.9788023182945875 3.0200351953169586 0.708792682086354 0.28500935653170273 0.5534348405627952 -0.17269174337219292
Ni 6.065597015976069 1.8483954042961708 9.16360982007782 -2.455261079912894 1.0225500958409035 0.06882174675940406
Ni 2.558506423488803 6.509751064876944 5.909937224088564 -1.1446309590347643 1.6480102777020649 -0.019300757211140954
Ni 7.700667381653396 0.15581673678110985 4.109362928873699 1.0935333690280007 1.0960707907378735 -1.0202160483910883
Ni 1.639197093173871 3.118107289714672 1.5819085141871845 0.39134889773090664 0.12169314083713881 -0.6747672556264056
Ni 4.363982015410412 1.203028769741698 7.47149737121729 -0.9612017746404092 0.014353697618510764 -0.39548117473172534
Ni 6.394424264235296 2.354911968273442 13.550010951937015 -1.530525518519319 1.4454276603077107 -1.6878626338123126
Ni 4.09988991973678 3.682370342485853 10.16051547540661 -0.1961306911214235 1.8047475546275304 0.5754406554099252
Ni 2.7060992478450343 7.334164126876514 10.332685870101315 -0.9825987522589466 -0.24782811949571515 0.3048492740757653
Ni 4.396211110914734 4.823461271569143 3.805368978808995 -0.29730668584181696 -0.4502443865155343 0.5916800000869229
P 7.86335461195336 5.827400827747188 1.7475795438761472 -1.5539940339549043 1.3696811614040152 -0.34249150990857147
P 7.484138820794508 9.714981234647272 13.513123362708406 0.22005763425066618 -0.9922938680595232 -0.4941765691221102
P 0.6645785359421829 1.0104943134991753 7.671664888520533 0.42141203566487423 1.9102453166517297 -0.016569731433223076
P 2.3743546709752765 4.849274090540809 2.902441002565352 -1.7892476592197184 -1.7207447292523137 1.6580211249708479
P 6.108369115509592 8.992360784229101 7.54136831464478 0.6450298764629729 0.07075907299143297 -0.3860907346557609
P 5.356944661088702 2.8688141743026927 2.34674437136921 0.3545363568882475 -0.2676572384065003 0.9540301965926343
P 1.7465012401365583 4.287208266280092 10.290068869050883 1.4238784733820253 -0.29099617024275687 -0.13034284609233682
P 1.4535405160922539 8.174068573080108 12.031474016171575 -0.260960286002299 -1.1256284497903326 -0.8744213865200553
Ni 8.561140840971753 1.4811812814717846 5.986928849659416 -0.5634212623515458 1.1425031140584838 1.1678547054493953
Ni 8.431125844699231 8.6910173564558 7.720808027529142 -1.24467978212925 -0.5522796439124296 -0.9580058934109308
Ni 0.824149025296211 0.9552681750555037 4.526642472757937 1.926767996897101 0.40184799749001765 -1.814103541921134
Ni 7.329483476226072 4.018786337953487 9.555999750246889 -0.5251825305853213 0.3922104744002536 -1.8196165013195629
Ni 4.93440284724243 7.8497557985251545 1.9648540545822857 1.3475233943600535 -0.8592562487438427 0.03855497745506264
Ni 0.897827267201495 2.174720766310289 10.368654870099707 0.570107673232786 -2.3103141107541374 -0.057742863237423135
Ni 6.786223343040206 5.334427684882733 11.467548856524273 0.16370599493381485 0.7914729705512821 0.16738678621951172
Ni 7.8693554461205935 4.22524272946399 0.4561187890250811 -1.4050579982414124 0.903147036589522 -0.5531718167093957
Ni 0.9706118464184897 6.907652530427303 8.26012792068028 -0.9581084804270661 3.1620856210851604 -0.7772897370723646
Ni 2.60834104323453 3.493759508583444 12.268313092673406 -0.7038037520680718 0.007636433499335235 -0.11241917173438058
Ni 0.7798351729843381 5.566142972211002 1.3111951904139534 0.13003354238203413 -0.5490220562070803 1.3612309737541328
Ni 6.048222293048789 3.111478675973021 11.469129383923397 -0.18705726806524559 0.8463487966535552 -0.6425217653291386
Ni 1.036020938841327 7.995603764946606 3.75125345628889 1.5317645331327427 1.6209144499265373 2.8693873805496324
Ni 7.149449219156524 3.019232006743806 7.207444973369688 0.3930188292341618 1.4169475505901468 0.07249893850067515
Ni 2.4395975864519444 5.1974886491864805 8.082835583222527 -0.4715146087482202 -1.79367329909124 0.13647389869073917
Ni 0.956569894467165 8.022819855908146 1.5679238009617626 -0.3692379247644802 0.5108846259054104 -1.8402987122592631
Ni 9.192511683837726 2.89756278599002 3.3553645781976957 -0.44588662376747085 0.16218801562739163 0.012231509069185386
Ni 8.548529857167999 6.877574503170619 3.3353393329790118 -1.3219077506744783 1.1142068382169519 -0.026250963276728982
Ni 7.362044925622734 8.157709375934976 1.630173684996866 0.4000844778316916 0.38697930790830126 -0.354313442244164
Ni 5.062636057369912 6.254133993457957 6.244725608688993 -0.06998722782241495 0.7426423222018242 0.4475141320685647
Ni 2.4416563341739335 2.746083267503935 3.85390464875883 -0.724668768442539 0.8681090711487823 -0.5385273273233435
Ni 0.6672622936228207 5.283420594461253 4.271480541530404 0.7336570879840785 -0.9112745507926628 0.5615124753646071
Ni 6.794375245455078 2.7332784105963164 4.143913885598113 0.683655559254971 0.668491449920023 -0.5289818497267534
Ni 7.274100392888796 1.831251482683015 1.8962128205564512 1.9131064402496083 -1.1249483930041724 2.584314774880162
P 7.746864572688524 1.7729972309980322 10.856804265498965 0.2775863245947542 0.0389252163102878 0.1585707305897785
P 3.0029374339666277 7.66865062335807 0.8211033711550263 -0.02412234696950039 1.7121073652922902 1.5505785805154522
P 9.393890446437494 5.069550864741077 8.581443970972643 -1.407102539475267 -1.4121074488890262 -0.7179551038677893
P 0.5842449073428094 4.261220038309692 13.084237282339483 1.4631281629112673 0.043142596825745054 -0.02044952610360349
P 5.188921304406184 6.9291909090613855 4.067394941118586 0.8317544437791482 0.2946923881474215 0.15746952710579978
P 5.4129924522106565 7.448475401736016 11.010760743688232 1.3406631769051105 -0.44518085594969775 -0.5197166223747437
P 3.9637171444034203 1.7371953311510648 9.626424616828277 0.7310345627595668 -1.6608246558579138 -0.9956537856706917
P 3.1863506222749565 0.49469399746256637 4.584771168528036 -1.3618794059714092 0.27241917857151793 -1.0446597832557492
Ni 5.6518441161716515 0.8763119686988242 3.382415415418325 -1.97662400118728 -1.1678071400409111 -0.1794966821091683
Ni 7.839757485597287 6.380982395700694 7.228537443864883 0.7357486804057844 -1.0470239126125516 -0.8341085458336215
Ni 5.731701370858672 0.7694620387223339 11.3818015523008 -1.1529942433977949 -0.9729709993611954 1.8086142366717886
Ni 2.1331580656627787 0.02387778075404748 8.776287363561664 1.3614649441418103 0.222668589510952 -0.6642627565506559
Ni 9.261964415284021 6.582324230090201 12.788580798946207 -1.6875289046219775 0.11791027675593886 0.3113384813445348
Ni 0.21821064083622682 0.6073148834974218 12.077671207206704 -2.2660356005517364 0.5144761999114107 -0.372532536355352
Ni 0.21329549605063494 8.628082454120376 9.881220958774238 -0.2594613328592693 -0.10989769086410749 1.3531458827531535
Ni 0.6471613455731039 3.9271028239307357 6.642033453259424 -1.6222318831863805 1.8223647534886613 0.5973050595831843
Ni 2.38523926094938 2.7089427200350467 8.681933016731866 -1.6731194140648669 -0.049097271747283185 -0.7720007207592834
Ni 6.181173082036972 1.3958217234560395 5.887007575132939 0.5231292476007183 -2.037378654667833 0.8938303871742864
Ni 8.947391456185114 3.85590523454966 11.068010548054145 -0.7165847058828239 0.9798720973564027 2.178428602765029
Ni 9.081265450429795 6.165820178621422 10.45410490223059 0.16126293270996098 0.4549785587664099 -0.42691033977528414
Ni 1.614048981986883 8.895682729768698 6.2607099844999885 0.4894215709356281 -1.4137557831257266 0.0760041234404562
Ni 7.040695639941136 9.012754388345126 9.732331954237884 0.4104835616778285 -0.6083214652983459 -1.360281208246354
Ni 8.172194466409419 1.8024844068905574 8.751547309098049 3.526669334907081 -0.8413423445778994 -0.13543183057946998
Ni 4.150204606215886 5.711030805165696 11.590318537943805 1.011404620747045 -1.008496703071631 0.46894607669009564
Ni 7.553369982979245 7.874968534080097 11.700658183789855 0.1147791873261249 0.5576794747717622 0.18735988690732894
Ni 3.3156732146051056 5.648502113143131 1.3334619779954129 1.4848012770093266 -0.8781903666441843 -0.910455140215161
Ni 3.1392671541935915 7.370270684458125 3.1629667563331347 -0.6038354045025343 -0.4534212415816191 1.4402795404478679
Ni 9.050458091020479 2.286742492133678 0.27909141147594463 0.3751213801284507 -1.0459743883021146 -0.0432212725824804
Ni 4.57399274715843 8.608298165473638 5.7589266938727794 0.332909265536775 -0.559788550694965 -0.09576767922062862
Ni 5.213857078384178 0.44391678514995564 0.7621031696227936 1.52291788137539 0.2210346534519548 -2.0697611847635966
Ni 2.8932237212844822 0.5731784459331757 10.93589064379681 -0.9361425176789362 -0.014530846626323363 1.5920998396876902
Ni 2.2575322778181017 6.219670741232911 12.883124402853587 -0.08040816604542281 -0.3610461329823072 -1.129160631313307
P 3.0842071926960895 7.362783489827931 8.079646832266585 0.22754494376664683 0.5870160189523503 -1.2189978039821134
P 9.377272751820541 7.070007406834927 5.547720411317598 -0.3400628458624208 0.46578824778740424 0.8919416547920058
P 0.02797958170866521 0.6577782060228234 2.545479997319626 -0.29219790386034195 0.22771823611971748 -0.7294697893756081
P 3.3967675643358324 4.653526880005677 5.958067606930797 0.4394632367396302 -2.6161450320168815 -0.3533078837977851
P 6.07404434407302 4.898591715342898 7.977145199048198 -0.06180263512909356 0.4948903073596831 -0.30392059161390883
P 3.8615737148245537 1.392544344795474 12.753017086055415 0.8889278076663465 0.16848670415190983 -0.09350176600458736
P 8.177475200476584 4.081462742817093 5.291572496876125 -0.16708211049489935 -1.0320531502353323 -0.08910183716467882
P 5.461636137175502 4.6752498996910585 13.253799622184584 -0.18733520431698059 -1.1408722633232804 -1.2714593642159393
