# total energy = -340888.77582978614 ev
CRYSTAL
PRIMVEC
9.08926766501301 0.00000000000000 0.00000000000000
0.00000000000000 9.08926766501301 0.00000000000000
0.00000000000000 0.00000000000000 13.30306198500521
PRIMCOORD
 96 1
Ni 6.782384404781634 2.1949763833077887 11.876867228069585 -1.5931377940339013 0.7285483060026033 -0.8817238337187395
Ni 4.822692809140075 0.6180184052388898 6.311651222627805 -0.4778719184248157 -1.0845751313934482 -0.9138052876343167
Ni 2.957393260161338 1.825215877743009 5.278522318793854 -0.05415360322426803 -0.10573995994199209 -0.9463775651433829
Ni 3.5053215941983975 4.56384863919652 5.078510252888281 -0.4988780883628376 0.48689237675587105 0.24133505557220372
Ni 3.813138739338802 2.922299596977404 3.046547161759953 0.41192800743383895 0.2896931351606172 -0.37879265833245085
Ni 5.263649549804507 5.015885197374863 2.6453005234224554 -1.735970802173449 -0.9463767938124346 1.0325293185408024
Ni 5.375538437086099 3.2106384411068873 0.7000935850328822 -0.34052461599018774 -0.43827641552038066 -0.1716098231619238
Ni 5.907569641646675 8.332595394336842 12.300968830425731 -1.268121815202274 -0.8990096173823808 0.6795165973859328
Ni 2.689450733096022 5.868503968410583 11.578200248877708 -0.2221973063014883 -0.3854798405446394 0.2384651902235764
Ni 0.8679105552731328 7.932694876568508 11.38364356153805 0.5638094989289 -0.36981822274798243 0.17388576368029407
Ni 0.6517877620965095 0.17243886294396218 5.022837578356317 0.3808755090034086 0.30751267984054137 -0.6148636372922378
Ni 9.150438626563513 2.505211273697333 1.6449366123482667 -0.3625620554062014 0.8847189117913214 -0.36094663128996546
Ni 1.8026926720010281 1.4955026863425425 3.0510172636905044 -0.2999353817139157 -0.4955981320599852 -0.4654763729739403
Ni 1.840885775523144 6.939274257207918 0.32306984552604595 -0.06468818420700473 -0.1329777126120226 0.14052441461102894
Ni 7.539811273583389 4.17131042838985 4.079157977326232 1.643727591166311 -0.648307004552348 -1.3394401031312868
Ni 7.740911324851076 4.225755142834752 12.930603319981914 0.14460398399704127 0.1974625225589696 -0.3230511417957727
Ni 7.999173781651981 -0.307721707827939 7.349183876736975 -1.3436343437182925 1.6328970762097106 -1.012513794650824
Ni 7.032793734156765 0.8845684564689877 0.586237780187705 -0.44254264699590234 1.1594891070935192 0.11150874410496923
Ni 1.8310420984373632 6.805398430987727 9.340013486192447 1.2384122039529832 0.10389030832776303 0.3442316325281297
Ni 0.18206348867446398 5.266221812607163 1.3253906759691807 -0.9989993051041571 0.02981296959637446 1.6408353572201806
Ni 6.410533367610457 1.9776701674565864 7.343675780417507 1.590899648732002 1.508127610440093 -0.5914907668942524
Ni 3.6516133603070258 4.904787076396561 0.7255626224863142 -0.39812041212678534 -0.5001438424491387 -0.3183375383701872
Ni 6.282083834299048 5.954015800380137 5.056135202212318 -1.4816128519790162 0.35618983333127047 -0.22370731518811152
Ni 5.443980624026016 3.194995811130314 9.397562185609457 0.9751345826714173 -1.1401788368006815 -0.2011872797087245
P 0.07878940946480503 6.087409895404073 12.614948499171085 0.4623506828607651 0.17422514929758381 -0.35108233690137597
P 4.405131843931601 6.52149514957095 12.788140862420137 -0.7004124669983357 1.3375243741658125 -1.1562140358866733
P 2.121126081994796 8.926033692518413 1.5209926291120386 1.6865434007802569 -0.07357083140861524 0.5464774354083556
P 6.459815377914339 8.057826827113242 5.9095665537941775 -0.5974040470548937 -1.053435215455534 1.271918563240545
P 4.842343806240222 1.3789600939197504 12.909690732503647 0.45400848154365675 -0.3228562521761472 -0.3370546551637163
P 4.025554929084602 6.295390522437166 8.340900258374957 -0.31745796397871134 1.116124366954639 -0.22081790945545837
P 4.955314316396429 1.2570457441952998 4.12925711281018 -0.33436116749195316 -0.10005293685954382 -1.1132269908021861
P 0.031742450126198446 5.949416630846061 3.846208222571671 1.286868499682158 -2.0590355708159764 -1.6810507530968017
Ni 0.7351463465114735 7.518133369751822 2.4758992937952686 -0.6255722819589936 0.11667563301788937 -0.18004252731030926
Ni 1.9071374489102704 7.025176927695191 4.581574529365208 -0.31283537760503544 -0.47501542281262704 2.009075951068398
Ni 5.898134981614319 5.8123777394127085 9.45884930089478 0.4534014440872772 0.34646103607928075 0.10159637008726374
Ni 8.734268319336687 2.5848423493654096 10.389851191122235 0.03302144923134313 1.4342518461965494 -0.01552612066005713
Ni 2.34760336911059 5.844653729561933 6.962343727947919 0.5296369668122491 -0.4828122931492265 0.8189187254670607
Ni 0.5568103665838966 0.7872269423875735 9.124809617995854 1.4902455879533496 -1.7874293750640573 1.441478960072608
Ni 1.5979114672525099 1.7122453675868023 11.588377502093726 0.38286734262245675 -0.11398677333181659 0.3018824781379575
Ni 4.026572927084239 7.194973540474023 1.6076351660026191 0.4897475868164791 0.23351941618252686 0.18695776637290382
Ni 5.556260349825326 8.13048643433737 8.183365067931046 0.5361817099093024 0.42899807554224834 0.2622939172120579
Ni 7.3375114389589875 0.790573610811382 5.180185529882437 -1.3727708560729326 0.196013705927585 -1.122220709660364
Ni 0.9552638729098887 7.871942210232995 7.101494056303734 -0.10511415343253509 -0.5640118447476932 0.3167411404173448
Ni 5.419357797409782 4.839426151259119 7.283133985096206 -0.6276703021386029 -0.4597749517137888 -0.466587603760248
Ni 8.533022839783339 7.781967547747173 9.295022519242396 0.15413403497466358 -1.319949598506843 1.007117306225601
Ni 4.758867970269943 0.8288448820370418 10.716308606777433 0.17830497579391227 -0.5489919743000933 -1.0765260358367268
Ni 8.41695288928895 7.226949584784067 5.223061424202886 -1.0438388300163508 2.690928395676359 0.7973823940571816
Ni 7.236838708209117 6.2977446428113275 7.31444923963327 1.1764257349478577 1.72012072251507 -0.2944663881795445
Ni 2.2476032441819083 5.739527257563647 2.614663328267292 0.14690152178196636 -1.5819097865285658 -0.2132619514850714
Ni 3.7924424764354567 4.643061608543317 9.736590967633393 -0.8401043584057403 0.9286909464968973 -0.6233081685151652
Ni 1.3258696803850814 3.6406517032752146 4.060294110822234 -0.6505613478041634 0.5677162901824739 0.004683778628914515
Ni 0.47550141206998864 0.15336867005968047 0.2393913188826245 0.8439777253182175 1.2877537305005886 -0.1480911712146933
Ni 1.519434728601879 3.970837536604084 8.527675623504885 -1.2854677626798894 0.7978840162839484 -0.1016652756519862
Ni 5.314722145875609 3.1490404728609613 5.117714991922536 1.3358405587054865 -0.24672100247446543 0.25401342237082064
Ni 4.249287257308516 7.089847068475738 6.124863132522881 0.26414691126039674 0.4430365559131854 -0.527391108200866
Ni 8.044383799957314 7.575886577695545 0.5870521785874151 0.24160502140413873 -0.41141738634600755 -0.6018677392532022
P 0.24390868500601612 5.927075210461158 8.31272443695463 -0.543700901104483 0.1077922144853305 -0.7531414219609351
P 8.543948139743735 2.2346964838293606 8.11300595440074 -0.9704358916441673 -0.2820865264579529 0.36120374160609403
P 2.076924972421248 3.7646656738739175 10.63303091684637 -0.8901192568712863 -0.20540183201070433 1.5079352919236289
P 3.9162837509449355 6.3226219689274705 3.8854256865809225 1.0368307741296336 1.0712046236238133 0.017285783663641197
P 7.028212743158396 4.067247400730472 10.609165226242364 0.38299384089799204 0.9365837189814127 -0.013622732989757183
P 6.616159874269389 7.98069530010499 10.233566683935022 -1.1877714989779804 0.4459136203506643 -0.11957403761160698
P 2.5748077976546964 8.710018152702464 5.946069962422253 0.5139403820125987 0.8956412151307802 -0.27667049764870416
P 7.005553198398607 4.219065441694276 1.7059710459872504 1.3793325684508504 0.4743276527169831 0.040804435610871666
Ni 2.8171276786398494 1.7833688885436223 0.6568904770696927 -1.1376198178242538 2.1357151230569023 -0.3376125845497153
Ni 1.3537464648930133 1.5995020891269434 7.090199732068468 3.2804345280404146 -1.9427831413784349 1.853029786672686
Ni 7.228994670051195 0.9575089220698036 9.454007447909005 -1.3622519588194797 -0.6965308725557423 0.3559512349579031
Ni 2.786687720597116 2.092894816040562 9.234946094435214 0.4859312983941825 -1.0318119807588038 0.7032663915073629
Ni 6.608452175129275 2.360473772391722 2.761928554963074 0.015044038817316025 -1.0275290371127337 0.5440454289280953
Ni 4.174782528710043 7.556244669863253 10.258390383370827 -0.1972385794736216 -0.28273752977839045 0.5401422372189472
Ni 7.298827514972761 6.247299206222146 11.343361744263106 0.49815483704356783 0.2607042041274349 1.3797611713478366
Ni 7.736439405066954 4.319692726104877 8.3319073367603 0.5325785659390764 -1.5675170081420036 1.0405236496001886
Ni 3.2053848442873294 8.84781145336769 12.837202003515168 0.6094087848252537 -1.0857506397587882 -1.3937767689006382
Ni 0.2931052561920717 5.1314643274051415 10.637633722087585 0.1027461674209908 -0.2543227260811233 -0.41488323340742095
Ni 8.892939668262338 2.4226261859767364 6.014633945551412 -2.723321467295084 2.8707469799013206 -2.6420031307305663
Ni 3.93120832876105 2.865119012908477 11.42757017522241 -0.5928192558976887 0.10036892543806585 1.1748463062758798
Ni 1.2130355092466834 3.900904709736125 13.006031518194344 0.6060450105593433 -0.3589164882338141 -1.2109597641689855
Ni 3.065110173497987 8.598056551278042 8.135234667864253 0.5865920440410543 0.5608627575957502 0.20713886930646905
Ni 5.560886787162964 8.097146999849242 3.8411791306681042 0.20216866978538728 0.2240058202651368 0.15965727878573793
Ni 3.227798978815063 8.63053250532005 3.460565130358975 -0.3263483244898057 0.4166087007389599 0.994534584464584
Ni 3.870582912175493 3.1321617024562567 7.232289529648237 -0.4362300745143132 -0.7304722624981936 0.20443021212605436
Ni 5.305078432682613 4.641452808133176 11.918187039733445 0.3791996639628824 0.7370817973949112 -0.0010374401255788582
Ni 8.388648909191884 9.276779449732818 2.4738505728209983 -0.5184030457696427 0.7623187175848289 1.048986178545245
Ni 4.492543332882622 0.5647543866882111 1.6559119032818592 1.685132379365343 -0.14987243148483223 0.8511457038215665
Ni 6.176057524783225 6.14670827888296 0.6454607227434049 -0.2491283263643774 -0.30723860024354827 -0.9277923459420279
Ni 7.977495877820414 0.14387856549341646 11.790158339523671 0.7477909562822992 -0.11009412314562976 -1.5191612425464354
Ni 0.2957202385536406 5.309523084663174 6.000971867040206 -0.5105475542809659 -1.756471493229962 0.23605915188524507
Ni 7.175068043873967 6.282020209424069 2.810777007190325 1.665353139855887 1.2846357536968973 -0.053399241556746746
P 8.784586506175915 1.8864502752747787 3.8354328955308645 -0.09126027826857831 0.3316262850592934 -0.382981756713134
P 2.1457489086110297 3.652022377360452 1.7489269258648137 -0.8632082914130552 -0.372258713868675 0.4989441657140826
P 4.708168034180851 1.315180701388887 8.413654393984768 -0.27142827541315834 -0.3577430367510033 0.34872437819216073
P 8.82291594871584 2.1909498376485077 12.701125665547545 -0.30234450537604063 -1.0258333945778657 0.3977632858976827
P 6.427966583354251 8.380041372534235 1.8149631836038023 -0.5218614366318883 -1.4871870036326837 0.5793770143498538
P 1.849084295127368 3.61374747042765 6.399105431137739 0.7300716846256653 0.14376220482203628 -1.7700050089400226
P 7.189456354886701 4.248823704647967 6.099294113123056 -0.6381087238631075 -0.25531979988706993 1.5519044984157273
P 2.466999991639509 0.10605448624616903 10.310950892589613 0.19531976518435396 -1.2297272745844756 0.26951537466116166
