# total energy = -340886.6240672936 ev
CRYSTAL
PRIMVEC
9.11683994766175 0.00000000000000 0.00000000000000

0.00000000000000 9.11683994766175 0.00000000000000

0.00000000000000 0.00000000000000 13.34341680771156

PRIMCOORD
 96 1
Ni 6.886833663414894 2.2183004170634097 11.304556256740078 -1.3340556988909218 -0.8906172795536274 1.3957848004696025
Ni 4.955002596073316 0.5614068083971634 6.183712869086023 -0.3181981845788455 0.4558313936850085 -1.297661476532604
Ni 3.086159777004545 1.7838465187869097 4.675412813893336 -0.27154757459984197 -0.21961026230060243 0.7400048845789772
Ni 3.6428066831838435 4.376028548481353 4.623146881265869 0.6412626961110569 0.3446072706999936 -0.0617769240974807
Ni 3.966080716402176 3.037247929851034 2.142712695768021 1.1414106523252534 -1.4477475666901387 2.2610849414146803
Ni 5.367229638178286 4.919437802830847 2.2225461294994564 0.23323659483478543 0.6596093169390447 0.5487706023179064
Ni 5.353271755980331 3.1863447328982892 0.3096270352678962 1.1544679997298442 0.38815610182522187 -0.41004750258167444
Ni 6.032713381509237 8.45554098944718 12.48394077805859 -1.1330329697845196 -0.22547957659718584 -0.11843503891115732
Ni 1.9009340962319319 6.790021938359324 0.05085555746350722 0.17420123803818385 0.17456813445929936 0.03569102564370627
Ni 0.9429547718709532 0.1229086798508968 13.284492330886035 0.171106401162944 -0.3552187276672527 0.8863729024549767
Ni 8.326628870388346 0.44056765124968644 6.841009690004326 -1.1265216510285632 -1.9306282511834556 -0.9222873569633986
Ni 8.937584793062232 2.8942411759926974 1.7135347128592258 0.5185830229909327 -0.6097425140155885 -1.0903683410364577
Ni 6.983463051668401 1.0403408578530235 4.615821500242971 0.2646829862695248 -0.26264101613883156 0.8250569771543145
Ni 1.0959626993224683 7.879183474964827 2.1305170987620095 -0.6253807347734779 -0.3493316727588564 0.7942533615098966
Ni 8.376534453113102 4.410654307193195 3.728724696000135 -1.2494175539245516 -1.426473487802711 -0.3886258423727888
Ni 7.578282167359674 4.03294362171883 12.491880634104442 1.590833828491073 0.5674072435824873 0.49684511709320883
Ni 8.258571659018175 7.685879114257296 8.67831827084024 0.3495877546337205 0.4512262908128293 -0.05178253188893017
Ni 7.263468561757085 0.9697673986143784 0.5060411501346177 -0.00698105930352346 0.8898526334734611 0.14275047572807026
Ni 1.902438374848955 6.377484923690846 9.2016741236988 -0.28742259395888564 0.7762414983135083 -1.0211431881910478
Ni 0.08621248675162412 5.2528771127642155 1.151207103611642 0.9653656762101116 0.23111466339577616 -0.5391955570349617
Ni 6.7178256815823145 2.1770193650762524 7.232986406872133 1.1996129716975985 -0.020706893530048207 -0.7711849097262073
Ni 3.4985873895917847 4.880499778750205 0.05291869837885476 0.43586420653446223 1.6620855248482085 1.2335456198893013
Ni 6.254772255902167 5.794864140057615 4.519922370881728 -0.6677512293198887 -0.4190569051691363 0.1037545540808471
Ni 5.326331493475462 2.890585323111326 9.703439475825029 -0.2017467517566203 -0.004357762748063462 -1.2868749274400613
P 0.14174407150404764 5.7846441623019595 12.210801160251602 1.241751038518229 0.0036571371366130563 1.1985482778785101
P 4.5322911878497 6.713422247812483 12.390536927833583 -0.44801009786837687 -1.7693131250793204 -0.8063406316917339
P 2.811606137297557 8.826550797445714 1.1435699266572157 -0.3444396347738778 -0.3728248707847902 0.4537773393694572
P 6.67370929232307 8.206596553589998 5.839760019145679 0.40982047417253287 -0.2630300240471341 -0.42286933693669104
P 4.867298594280814 1.4445724311875126 12.595238250354088 1.2530893463491837 -1.214948316503088 -1.6500764162024744
P 4.638912632856282 6.096148354947099 7.572189383118726 -0.4056655714638949 0.8205027821247288 0.710450310850312
P 4.931353512845691 1.351662713696099 3.6392301468113692 0.18715831241948414 -0.6585132556613884 -0.5218282694011078
P 0.668247969250232 5.928945507454947 3.2137353673042557 0.1502275008314058 0.4239954801213343 -0.042590066756384715
Ni 0.8075988702271973 0.15496804807369682 4.569479690314544 -0.3870620974300947 0.6687161643363193 -0.23866213672573092
Ni 1.8354478337708562 6.971519991133247 4.692465863306317 0.8276537913472134 0.19955900007668212 -3.002819149979938
Ni 6.43310676516029 5.9557763678785784 9.118891392193987 -0.6043169721246432 -0.6035340712120315 -0.49092798027782547
Ni 9.117387113576966 2.257484595826838 10.590643858781084 0.726240483805033 1.0791277351256319 -1.3456714287529792
Ni 2.7336662712555504 5.873387483866225 6.344034325668302 -0.05208077985563934 -1.330140937217548 2.8222839993039264
Ni 0.6650570752141224 0.20547169550922167 9.55602199472478 0.2906421293374479 0.2585840724606385 -0.33671244133294914
Ni 2.0808275851476976 1.339592017399501 11.570490835813526 -0.8408288952765908 0.48787170995000495 -2.0456066990045803
Ni 4.330043207000959 7.083420086559565 1.1931682718704957 -0.00046254145871533244 0.9754084051580945 0.6237966781158096
Ni 5.833546892615368 8.152415172856854 7.974266647136835 -0.6786195394929603 -0.1313291212650061 -0.4544720514436367
Ni 5.471280134275774 2.939597455505972 4.973318327840587 -0.708389057445909 -0.06695101209925244 0.6018751954523699
Ni 0.8677663681720832 7.804890344964087 6.53388431566074 -1.7214636096962095 -1.2633066532018178 1.370638383110962
Ni 5.590327832342978 4.208643364187138 7.247530501888722 -0.9022384087323236 0.4701848341932031 0.4919317389519915
Ni 0.9303370651681648 7.681138357403648 11.181209968564229 0.7412539264947298 -0.7452067404948908 0.5471004137043352
Ni 4.856458671398143 0.47215476715514226 10.349047596047058 0.14666935116650226 -0.42901684459532563 -0.10047382644704632
Ni 8.335982748334198 7.290901133627526 4.505764829885514 0.38293470552528247 0.44267634436028924 1.2813935926105158
Ni 7.190150933647385 6.143574157163793 6.769181753567485 0.15911143358459695 0.7040387508970133 -0.252046785562753
Ni 2.947246484352532 5.270308511041477 2.3912733126568586 -1.4916990325704245 1.3405755022873105 -0.17517954279105313
Ni 2.174904258172317 5.4486612539798065 11.254958823210808 1.5218153923398305 -0.11777889338439716 1.379392218044192
Ni 1.7257722473297117 3.52672195815017 3.558382008776451 -1.6202171667491967 1.033674487888839 0.818409904151442
Ni 1.7924254653239935 1.4827355238593853 2.61595054352742 -0.4079114300752782 -1.468319991524852 -1.5085006775087957
Ni 1.4213336057645303 4.043683259360366 8.13512143886515 1.3438467168394146 -0.48622877502994327 -0.02003377872242356
Ni 3.5412633181147273 2.4589485284267054 7.05574500674238 0.16823962113811025 0.7678864414805936 -0.02818366152306759
Ni 4.39448103285017 7.404032002467773 5.614549453129083 0.26214196501522596 -0.04171512035059913 0.6329454344946132
Ni 8.37253216030781 7.48976676679799 0.013576798281641917 0.2594209665396371 -0.32733639943468784 1.4740738632894934
P 0.2706643957189752 6.124884634952293 7.808568078261707 -0.0897214730265487 -1.5727761996584138 -0.6215425919743102
P 8.979777529059705 1.9089842660430316 8.192977817843882 -0.8481107736499846 1.2662785913459482 0.7121834914913348
P 2.1043581494539816 3.4536049005227403 10.258179139054745 -0.9596948510775795 -0.31233272693700403 -0.04812770874516228
P 4.209755618679725 6.388443365494857 3.7323139959487532 0.47339305671785575 0.20168324550853656 -0.8902598962142086
P 7.185601630435903 4.2559324138022845 10.204418044650357 -0.28237577556359755 -1.2700313735201612 -0.2218512358159792
P 6.582531774451259 7.976897767190611 10.022347454317954 -0.4684182292110836 1.2337680203127526 1.1327043828005072
P 2.5973786285532507 8.87062160250444 5.739871360555288 1.4030923898746093 0.4273271155977286 -0.55030915044962
P 7.237832007386968 4.299592961056369 1.3080951582110667 -0.7309342897362767 -0.1363520284008942 0.9977368934519656
Ni 3.0035885561901274 1.6814461707480957 0.2424805962240331 0.06116782975857208 0.07214901136042412 1.2259891476982823
Ni 1.511708841707262 0.8098124390042473 7.314593977687647 0.7506096566780169 1.1658142779805987 -0.4251964424079709
Ni 7.239801244849253 0.9253501536317306 9.404293159939739 -0.1276367600150834 -0.5444228668721721 -1.0976733593383032
Ni 2.7559660621479063 1.6220955416764538 9.213549719617191 0.9414479890522497 -0.057693498056726446 0.17048265153601605
Ni 6.540776646778738 2.589766067067103 2.5983905978047024 0.5558079687806621 -0.20474722914584095 0.041601991811502544
Ni 4.225363648936352 6.725237672586192 10.045324626429975 0.41967294148658046 1.3826883722969607 0.6587251145618784
Ni 7.448586000051968 6.5213577773589835 11.286849529891699 0.009162897446190671 -0.767107397222724 -0.4070395689932861
Ni 8.320265315996332 4.107838463166378 7.6068953700234765 -1.5939939713866098 -0.4715284927052912 0.624057387976364
Ni 3.3939534157276943 8.58682348693284 12.153985012728642 0.5322648913533995 -0.5497157398399952 0.7968997979938082
Ni 0.15946903203263224 4.916310726675459 10.198200359699994 -0.8953265121038386 -0.7154760461996775 -0.8930428582759846
Ni 0.14041665958502594 2.4113403894079477 5.806601160006436 0.03984644257297654 1.0526381734755357 -0.6132088752976342
Ni 3.5704827906453893 3.41772101787666 11.81931857611739 -0.5487767729654935 -2.7315505400730955 -1.3617125413762419
Ni 0.9289968896729989 3.583620157234059 12.559878586013939 1.114164929235423 0.42815501081566265 0.5886041893750766
Ni 2.925812793269978 8.045848428890892 7.871762367120845 1.7536093411908187 -0.004726201831075732 -0.23448795074338327
Ni 5.857925323051246 8.08236137350409 3.6630752421012125 -0.10378077933309222 0.48186329897239594 -0.5945526936490276
Ni 3.2532441055753565 8.692141223804668 3.3515993116603933 0.8885837940633664 -0.39062641774258533 0.32409141013482895
Ni 3.6847806150188416 4.6538004327447595 9.12884515821863 0.28173351399390834 -0.8024346117691084 -0.4736295982086939
Ni 5.435186564307321 4.567546008528661 11.457338086557034 0.17162267867773023 1.9413690346397274 -0.26580681546132284
Ni 8.132449293030911 9.170082449373293 2.7182004637045316 0.11597192208264542 -0.6325224880245816 -0.5072979369954166
Ni 5.116525652181193 0.5553030839480907 1.6037187270804922 -0.9876612543835184 0.12755165650044484 -0.4801450307297086
Ni 6.3635908593736135 5.907065091207337 -0.008000027190532355 -0.42377282258756693 1.0450040539690455 1.3015906363836809
Ni 8.21456467184017 8.997956508225428 11.658677118447487 -0.3512790262932144 1.6295081051328193 -1.6076485860555667
Ni 0.4262077164031821 5.094800222215337 5.661812063907929 -0.3388909370415067 0.8856655919753069 0.4337497312946207
Ni 7.509212986738053 6.379837068437464 2.5357697581880534 -0.41775772674173856 0.45946024868684743 -1.9234551304737841
P 8.838475624300662 1.8990013261300598 3.6380960119025354 0.19457774481200682 0.47971128562639964 0.007688884003825468
P 2.1954536157648636 3.4693040991804 1.2821486312774424 -2.8179486051533664 0.15147962807095203 -0.765525654557901
P 5.097334703764019 1.2306184276463006 8.168586623831859 -0.8699242699806501 0.494705959263019 1.9159333681754422
P 8.826696666887365 1.801095580262109 12.689923016613589 -0.04909778596791544 0.28100434913736766 -0.145067296786705
P 6.656077323563538 8.134436764173401 1.3363300120105863 0.12179881317706766 -1.2410732957249142 0.5041833026258349
P 2.0284331050747753 3.7169539437429315 5.961465276102957 0.9709100030671085 -0.732310601258513 -0.2936040401792492
P 7.062779560565987 4.105395150018729 5.644385224050719 1.9945286493818426 0.3216192944452525 0.6419851760993782
P 2.754188278327788 8.439449766665083 10.046178874347643 -0.9656364133729949 0.7819305782784856 -0.12517595717941668
