# total energy = -340862.77442854 ev
CRYSTAL
PRIMVEC
9.40283260328903 0.00000000000000 0.00000000000000
0.00000000000000 9.40283260328903 0.00000000000000
0.00000000000000 0.00000000000000 13.76199596779838
PRIMCOORD
 96 1
Ni 1.9039231031060926 5.33429260511353 0.8235480105976641 1.0195671019531796 2.5543850772002656 0.8282119778435285
Ni 7.979666649391902 7.119805840588526 6.4621510606450885 0.07041325961624004 -1.2266532636448422 0.7497966738584184
Ni 3.3449917843793613 6.704934072175975 9.782384247195541 -0.12281439892577559 -0.6438366274858203 -1.0737487302019055
Ni 7.843861541935702 6.173946727222773 4.186880959735322 -0.5867403966934605 -0.06795991297974102 0.9538072819485509
Ni 6.6950422925565105 5.171839870811739 5.999666170123144 0.808002335664873 -1.3731277251917193 0.06250248940959557
Ni 4.165116223722799 6.377405213350119 0.1613497820685566 0.19519429535008317 0.5185873938663069 -0.3666706782579362
Ni 3.9140229889716824 4.010966190375368 0.16625147856630065 -0.04132971198672237 -1.2808518611744328 -0.42034399941167605
Ni 2.9004164686114042 7.538833660894426 11.870133662790693 -0.5636099813235842 -0.9594269421281734 1.253651646610557
Ni -0.16883819774245523 8.782029138449056 5.396780067698238 0.38861710062204036 -0.5051580078342784 -0.12418531113137322
Ni 1.191620942181284 1.6290030912107532 5.0316887742489635 0.45008266412668935 -1.2215509094212704 0.07965920369454023
Ni 8.460809580121929 1.5845276942525153 5.788886638737513 -1.3671038875951422 -0.015090575784535301 0.5373369065596681
Ni 1.5082895296568721 8.418938767721288 9.758410785866847 -2.5822067273982237 -2.895439083331362 -2.3443606588158854
Ni 7.034841847583317 8.358770043591104 3.6929210282455114 -0.06338617756612953 0.34591596220908816 -1.2120877071258416
Ni 4.192497271490746 8.839273581722155 7.458891720640887 -0.6677502008786242 0.9031141264690575 3.033677530121692
Ni 6.25703955659274 8.707351844021506 5.795850376366958 -0.9696146812944526 1.5805478731840328 -0.6290126750991102
Ni 8.513409024220108 5.549739702471691 8.864032179551064 0.2831573909246285 -0.14236532447450967 -1.3203406632976746
Ni 3.791287818465154 1.2742906440960464 5.346686478418108 0.15963413885728636 0.03969346193488003 1.937170680287664
Ni 6.923437090043952 1.4769780979716856 3.7890348998369943 -1.4366632838515192 -0.20275848085058631 0.47452357077787305
Ni 5.495673416528803 1.2877743056685862 0.14619523718957314 -1.0809868998215577 -1.7649394214916574 0.4401659192336097
Ni 5.634336985015722 3.8772391088658416 3.828119653015918 -0.9800129938096411 -0.20147627170405302 -0.09162486069684865
Ni 2.6126051735808122 3.144476384773776 10.861531329800643 -0.3850962319529755 -0.9475222202707875 0.8044511279785048
Ni 3.0214779349617866 0.7939027608027526 0.12292322715328592 -0.7157426695975028 0.5320054670444258 -0.9023260833501234
Ni 7.953686623642302 5.187175890354843 0.1576206187633479 0.22318101037099627 -1.8412029692410872 0.8453702347903699
Ni 0.7533304795479745 4.0898559536902965 13.136085875169496 -0.6377608536053855 -2.6610488345081076 -2.415134644205654
P 6.586712261191636 4.998733727471113 8.209580944585147 -0.04370823952122795 -0.5254612381680048 -1.0961772344087508
P 4.200931612097836 2.181833215684882 12.25317120204007 -0.7779641374315699 0.16318894608808024 0.6040097252968695
P 8.32936738687051 3.361418532473662 4.432201795714205 -0.4591781986700544 -0.1345046907795103 2.1838130070053943
P 9.28211877633994 7.3531183193886855 3.2990946791716342 1.1062919542452496 1.31573324643265 -1.0543119616335328
P 2.667875022062952 5.156663699418378 11.565057827304493 -0.4067804017946285 0.6992708971947247 0.05475832668780247
P 0.4847282307004658 2.549060832641325 8.787337037303798 2.107037295506236 1.2228814553072358 0.4517276559292801
P 5.923041549118413 8.473146096149247 0.43710476547550114 0.4092666585515919 0.25961405638704965 0.4126402030095152
P 6.456210351174008 1.340477180922481 9.940220190819426 0.08833513420198336 0.559736871521423 0.7832384984566318
Ni 5.852172401787708 8.721587732181076 9.262249651326737 -0.95862424372122 -1.1400014306825528 0.5047669430434468
Ni 0.5714251657055481 6.260932329180628 12.56829396387931 0.5062227016533669 0.9922740705651815 -2.1718550633125693
Ni 4.232769602393945 9.20850400196657 1.79098568389565 0.031083608778681954 -0.004575535185824378 1.2557974893089663
Ni 2.4939320266442544 1.424519696358576 7.776242953744205 -0.3242356490221771 -0.11329720346395973 0.10596570279955299
Ni 0.2853665586227396 5.237321195212831 6.228885596006619 1.038862974068314 1.4134711620057723 -0.5712433294991259
Ni 3.151763579835644 6.386855059849702 7.287458341173173 -1.1184339889244224 0.021948222136317037 -0.37389110726577546
Ni 6.309150053409348 2.223158663809926 12.038746192557038 1.7922175404813196 1.029397972000672 -1.6555549228185424
Ni 3.9105345381743235 8.30798534613414 5.4351896975153 -0.07455376414717482 -2.380159156571733 -1.6607251541655723
Ni 4.510012113876744 4.419011502510608 8.59175154269297 -0.849661405966556 -0.22582950373743688 -1.9373162047265926
Ni 4.429175964267871 9.270130165109126 12.050457420233885 0.7171819731471907 0.01931721227137318 -0.4588799507033452
Ni 4.149460507880206 1.6647244512624118 9.999933817864456 1.3398810473234473 -0.9746543006008893 -0.7005667331880129
Ni 5.99506724482668 1.0723742224721144 7.773215241731404 -0.9360299033604718 0.9244008037619758 -0.8684104044392851
Ni 1.7129891896528207 3.033165655557789 1.2139376244520412 -0.18374285898003195 -1.7320532122865977 0.012923135819571293
Ni 7.437330085806862 7.1240559208052545 12.991020858426936 -1.5928331183092892 2.082638297836581 -0.5011509435574143
Ni 9.007998005193322 9.169454039267297 13.079345423709707 -0.8218551823875652 -1.1094976056667407 -2.5669027500513018
Ni 7.302662721063547 0.6095837398991889 1.643829477241144 -0.3159021894558172 -1.3168511620871775 -0.7415465180344841
Ni 1.8257009408871538 4.0030019913851715 7.854686082523085 0.46581447303964935 0.04509046458073525 0.059177538801420675
Ni 8.561466900299083 3.5532645206637095 7.0890378926124695 -0.9925944300190777 -0.47568853762025176 0.8542613666324127
Ni 2.207822644266821 8.963748276211193 4.0585501637045125 -1.0107219928577238 0.4935857296156468 -0.7304105560223226
Ni 7.7766500963844365 6.089744363636933 10.885476582632322 0.38216825967290313 -0.37317634058693794 1.4232614086233166
Ni -0.15637944489474592 7.2110039114337585 0.6605762399508208 1.8392047078641358 0.9385359576117772 2.4673491214256797
Ni 8.535374040561427 2.4688264643020776 2.4525661463401573 2.266433093100471 -0.7213895834706351 -1.6986334991755714
Ni 6.339342548046325 3.0564282627617385 1.1373477939269607 0.016067080765191685 1.2164860933038533 0.6284871416129434
Ni 1.902108356464879 0.3587387399217926 11.285717543927111 1.2578214617175305 1.7770796563986166 1.7576673133102763
P 1.8457665850962193 9.097212078415259 6.390808950847787 1.446618595292018 1.1031505804027906 -1.224095273109679
P 1.6797219688413523 1.3139235824002689 2.749798139090086 0.8665571532806302 0.4508735354591009 1.1312915616133807
P 1.0666290919136614 6.092179697212448 8.395849172632355 2.5505428206360397 -2.602987154478685 0.9268112129756811
P 5.428170483175062 7.011015070439094 11.726293835101762 0.01832476645111683 0.6538215066126739 0.4875130410590056
P 7.667718283749936 9.06818553498818 7.256356592649121 1.5694646187866776 1.119279624754169 1.2779781391710636
P 1.1930877840259955 1.4244914878615622 12.939124746187632 -1.3909722095723078 1.0487977166835227 1.2225402699177332
P 4.032564496255509 2.828447189897165 7.056655478323997 0.30951274098970566 0.03656082984316929 -0.4164914584348053
P 5.53103746895162 6.765102796306157 4.6778122389290955 0.5580443143103485 -0.44312191653814004 0.16237673459943003
Ni 0.6711497249147824 7.801558199247517 7.535229555259312 -0.9342542995172878 1.5516155064203987 -0.9109583051038247
Ni 2.221973906935351 6.758934538292499 2.9099048667235725 -0.36651358385478167 0.20683830734691475 -0.03474794500414661
Ni 4.464549419523027 4.734373096291228 5.855536735198207 -1.4217179753955966 -0.24718585792602588 0.059970724126677366
Ni 4.839440344834854 3.8649025928385248 10.738416284867663 0.3903219991282891 0.44306098139321765 1.0251967894351313
Ni 7.377659711790588 3.531638006286554 9.882200013878455 -0.26227669082087735 0.12679112418533647 0.6458888820291586
Ni 5.7386896183016685 5.014784362271898 12.682298604560103 1.3356374415557448 0.06262204570659537 -0.045807288142101756
Ni 5.06665038544772 7.099570945397378 2.2940146471753584 -1.2452685647531845 0.3386299700706361 1.8209380483444642
Ni 0.6712898271166171 4.177283488768033 10.411417745785664 -1.4836255115336705 1.2367715830257668 -0.28503249646015427
Ni 7.22809826062405 6.730566193129073 1.8138721778060833 0.780925791163055 0.546498261343962 -0.06426960861234739
Ni 5.566157047733654 6.9367797091314225 7.1352923054490365 -0.3710004159815417 -1.0213424486860474 0.9485668594852181
Ni 7.563121176823206 4.36395791917224 2.7241594361543506 0.022501266426309636 2.7227540248273883 -1.2307066077786095
Ni 9.339316205451349 1.9510971129453059 11.284436878162689 -0.36652155427458166 0.666348435435091 -0.578311806310133
Ni 0.5446026461784722 5.01178485875611 3.6767509774740357 0.3395170006612798 -0.6981594092981008 0.13302399246892577
Ni 9.135143104066323 0.4136052068966369 3.32096190605664 -0.048157276431517064 -1.4703462779262613 0.7355956997676879
Ni 6.942073503737657 9.138697374690047 11.403230381353172 0.7278602787966433 -0.2333767199570755 0.3993622549536864
Ni 5.6249059441808145 6.125456320856254 9.760282889785323 0.3026926327440787 0.8072613437337903 0.33979390847175023
Ni 8.384458581538231 8.295874498082933 9.271621454317916 -1.2452649652087586 0.1860375685514796 -1.9204700797035312
Ni 2.7875072578979747 3.0850034702365976 4.604350730722833 0.6012948974688677 2.952732260625876 -1.050721673179113
Ni 8.162232042064447 1.5612744898809037 8.57847098229893 -0.8728571273567289 -1.8254415926417722 -0.5147893602764554
Ni 6.217632286264628 2.55520088215797 5.822273275519673 -0.6749667732317214 0.5290944640452179 0.4978581317387555
Ni 0.44737077782201357 0.672763250943965 1.1335537510786207 0.6385802641828873 0.4637136246465627 0.2251695015559348
Ni 8.227186807854618 1.9651167359611057 13.625917022979735 -0.1511584972861074 1.1380769599663303 -0.43786683878678784
Ni 3.5882148484636613 2.223638208259158 2.099805727218798 1.6351331646290808 -0.9144966572743863 1.0454275146597094
Ni 3.439368012554802 4.578586970117004 2.538111234383848 0.2898137198988815 0.40260673003291314 0.5197855279394661
P 2.313623313732802 7.532101232940494 0.31927787344935366 -0.7284927701743196 0.40558406749368214 0.2405303002827212
P 5.518889009571062 5.107985236405102 1.7653883534222015 -0.10335423331863491 -1.7284459545513136 -0.49219604835697167
P 9.522436365231831 4.38663755077124 1.4853456784691774 -1.268481255424222 0.47370158909721 0.8345777721605563
P 2.3501721230301955 5.236409120476055 5.132191887975775 -0.16554690479729556 0.026916621885185902 -0.3716966707176179
P 4.918696818610961 0.2055148855596439 3.9706524870098816 1.2604784397244035 -0.07771493548397583 -1.788205076887817
P 3.4107081795889016 9.05920583010549 9.681398768169796 2.1878738073383284 0.15555405525064178 -0.5418450788426669
P 9.179120150910652 7.913555335224171 11.076080456670534 0.05082402463040279 -0.24700742336663267 3.101510687715581
P 8.159166718722295 4.014605086490132 12.143103527259154 -0.6761903612261774 -0.8174202865446633 -1.7462541863773282
