# total energy = -381167.5321931554 ev
CRYSTAL
PRIMVEC
9.31322927719610 0.00000000000000 0.00000000000000

0.00000000000000 9.31322927719610 0.00000000000000

0.00000000000000 0.00000000000000 13.63085244281478

PRIMCOORD
 96 1
Ni 3.603307084061687 3.6212071109821125 0.7986382926690744 0.9210285448556332 -0.4111592475886145 1.403831582033479
Ni 0.05669428401565647 5.608827217813715 6.530091870762995 0.10386099775172436 0.1617676402605214 -0.46681386083844123
Ni 0.37125326385480306 8.741331928888222 6.598191135510573 1.5491156228166805 -0.21967968208595715 -0.9437180160333489
Ni 4.128833993044925 4.474345490818533 10.250019213460254 1.1651136523691483 -0.8718927065609308 -1.038129181226083
Ni 6.439697666137786 6.899352103524682 3.286671254064759 -1.4162788066578964 -0.08670942567310229 0.19875398767688351
Ni 2.8994411451620943 5.017148440351922 11.930063399862147 -1.3206975324164612 -1.3706535526196135 1.205360158594021
Ni 8.407694798608652 2.3089451478350007 12.240206046316452 -1.1166493862201736 1.0589309484627827 0.5333519537699911
Ni 3.7253103892945574 6.089110458337314 2.593296668092253 -1.2002963709178682 0.31741785476939527 -2.4224275783226408
Ni 6.604476634037417 9.2275011303971 8.197118025099657 -0.021555614683588683 0.1272292401640196 0.7747240332277173
Ni 8.810007682536098 5.7276547118187695 1.1450149894546011 0.3586418944161888 -0.20186322272982654 0.45028963793117294
Ni 1.6120920706789466 4.449227711107613 9.910761549233506 -0.7119834596653868 0.23708270805375298 0.27595933051429244
Ni 5.678434294402301 3.3962926208009043 5.470102009180416 1.5625079849631864 0.7233163681797027 1.4988114752454897
Ni 6.89721006076105 1.6694522505972098 9.973435857851456 0.7282073777234168 -1.5315465035846656 1.131564355658793
Ni 5.732786301222076 8.239432682910769 5.545248594620339 1.4409367144158924 2.8255143333157657 -0.28762442555704654
Ni 2.8361111851938867 9.122941503843707 5.614261487172753 0.22078962732068427 -0.8911225013248202 0.053592588514475445
Ni 4.764713357272766 6.070223229099736 0.034104114765820516 -0.3297591499435676 -3.732292796010288 4.271245126686193
Ni 0.7967830973711822 1.9147720264093506 0.9184948985236109 0.13789571873893025 1.4904134809897815 -2.1933615699257776
Ni 5.585441698772515 6.917037926168744 7.939739479851218 0.23212742093100666 0.5182294963062559 -0.6560784209676508
Ni 0.6676533089960067 4.125406724623116 13.290462651845681 -0.5064178483833084 -0.001814941721551713 -0.7141614411533119
Ni 1.3812729930536438 2.3362794761448082 11.778951596117418 1.182638548626789 -0.17921026121700104 -0.7775638166693577
Ni 6.089408481678341 8.090951866473542 1.2129615172399029 -0.7283495597282359 0.2601221063717198 -0.5348210821163499
Ni 2.7789186434049507 1.7406332629555938 2.151479858988756 0.1657731618754887 -1.0882284118753194 0.09515267134444903
Ni 5.771249938673354 3.9813124392366293 2.42060797445718 0.7359764801458744 0.4020634559349334 -1.2656486710714332
Ni 8.587933727324053 3.4791524228357784 5.707006350900311 -0.6977416050343919 -0.022337487154935724 0.19491198822297398
P 4.819195749304237 0.0666715466794713 7.033288449596855 1.3859932683004774 3.16991437310096 -1.5566831507512933
Ni 2.235724538236464 1.5318492861074644 9.190725050114386 -1.315896768593708 -0.9814749230671483 0.1690430908760121
P 0.0632014374023898 8.781378815338705 0.25207279845522124 1.8086425188065627 0.9447485141803923 2.9061482422187495
Ni 7.571571688898984 2.41277834249464 3.660565749779413 -1.0170055118735906 -0.12974609304860235 -0.25197222357107574
P 1.4724681354078628 4.2376963315843925 1.6866677551562146 -0.9778823206198836 -1.3726947514193586 1.8013665539704395
P 2.2780904188093136 6.548960473541758 10.49420277528473 0.22877290263647698 0.6870882390856038 -0.45942296769100877
P 6.291719764088542 3.652331923660605 10.194187334487696 -1.3556190268839943 1.6837555536224742 0.8645010420825499
Ni 3.8810368982104984 1.9443322165474524 6.0887248906398606 0.09896073223662956 0.27677179911325883 0.5007367388381312
Ni 4.947010509687132 0.6934407099012966 11.219759225473434 1.089753076049962 0.28537548162186976 -1.1675258613550665
Ni 4.692554455826636 2.3493738766911756 3.6953245845725515 -0.4477869261139772 -0.5061939052979605 -0.08824694536355125
Ni 7.619413748363201 0.8464859400709367 1.624634196721474 0.7582882562691973 0.6915349620030478 -1.4810839760587395
Ni 2.2089769433793034 0.21819220119517088 13.595030399176903 -1.6425142875845005 -1.9113989706401984 0.7615990658099852
Ni 7.9658006897010765 7.635246238355254 13.050464455316751 -1.1038046690470216 -1.8577014811167427 -0.3784005651003548
Ni 5.705405406765232 7.20588773622962 12.34858502824969 2.5019484566671037 2.6428248553009133 -3.807999442814984
Ni 1.8382917865183328 3.991696690025534 5.894485384156782 -0.735751508619262 -0.9284407781593043 -0.7445536802919241
Ni 4.4875609633471925 7.822106873179094 10.08778555115758 -0.2027440826728831 -0.3450304742803413 0.8355216241310641
Ni 3.2777165839898426 7.147633486288276 12.507765813952721 -1.332584513662034 2.296344793058239 -2.8651705142548076
Ni 4.660833596466091 4.956323739094222 4.171463438009995 0.09037633300172822 -1.104029383463318 1.4776590095375908
Ni 2.651308774069012 0.11830688448119682 11.127696090138475 -0.5440729397319211 -0.26284259062667636 0.19898050186539282
Ni 0.9915795349728038 6.73703182818852 12.975780737378363 -1.3863686493620253 0.8638027304639446 -0.8314585098052841
Ni 0.29731181030015785 9.104352297947157 9.726090454643273 0.1230383420111236 -0.21321464318690375 -1.738423891699632
Ni 7.267690326575066 8.66956418307719 10.868056292789992 -0.4665377243589191 -0.691781530796215 -1.1940017961584082
Ni 2.345257429293242 6.833768342039958 6.198439389670076 -0.20420164105501606 -0.56846036743735 -0.48617452475324013
Ni 0.2750774064136727 1.5232624885941284 4.880568068451075 -0.5814038149718954 -1.5754802288531382 0.44128923420477545
Ni 2.854616572025773 3.488400459637018 8.133175254636464 0.596474850372405 0.3981345531941724 -0.7489572086762585
Ni 6.9641069875921735 1.3278802488628008 5.8350679118624935 0.07624015071066224 -0.6278731621780284 0.1365003810533004
Ni 4.540264528561911 9.047364647205178 13.206892250407046 -0.1966785932050935 0.33352658740579977 0.4978041385723685
Ni 2.7329112901339294 3.6459430482873416 3.472609879177298 0.3986168921472296 0.7587387135430546 0.32156890082329137
Ni 3.458467740322633 1.9021432873333375 13.016455335490882 0.3513096224208337 1.076976493110584 -2.139077868881548
Ni 5.190886734941174 4.452766738282307 8.17979262443365 0.04957549693528236 0.27051836200437923 -1.7364670250835772
Ni 4.248453111549581 7.118501704702901 4.480815391287638 -1.68434690734957 0.6035109312835799 0.6770907615532596
Ni 5.171915686638933 3.994546538224103 12.531701744851881 0.037934570262244345 -0.8100751590335016 -0.7171176955681585
P 7.981540047399057 7.627087849394644 8.963458038184946 0.2844383145195811 -0.31698230989387344 0.6418496789627784
Ni 8.64751976907061 1.1669290182494823 7.722245770861579 -1.0127732189597978 0.6704089786577099 0.4244035141930304
P 3.4181042040723075 7.7549491759245734 0.8988169761093718 -0.13747765736490516 -0.44743262809835194 1.2144492653794827
Ni 8.514750370643144 6.751653598357651 4.634203348299459 1.0439771553664279 1.9233736265035717 0.2578528507215689
P 9.089767780695656 4.274092432107297 11.208895343370063 0.2833710495973314 -0.9859478712368376 0.02639983014976744
P 2.384251920820725 1.5159050373625276 4.458937684087444 0.5147219973736297 0.8412672683655898 -1.1765383492663222
P 6.675285117219518 5.964983736799627 1.1394466095921023 0.18427276334157297 -0.2043325102059255 0.959905938647121
Ni 8.790906249022157 6.396866124094582 10.982609945820133 0.061986726115441634 1.169709756380263 0.6041537070739015
Ni 1.330413447261529 5.598815496201095 3.986833321629152 -0.23126095916565334 0.591072448409911 -0.2808313138946131
Ni 8.14027472941349 3.219173623936879 1.3380931362306148 -0.6359567105171112 0.6384861618071842 0.030050539528477273
Ni 5.8909528762426735 0.5967833584998197 2.934463544347454 -0.23227525936278062 -1.4499587154088447 1.918521697727909
Ni 6.26431092994348 6.116789376135183 5.624144686219556 -0.5699901738183151 -1.8404699477298043 -0.6701061027053105
Ni -0.011209402914372751 0.14392757858009964 11.893205363160652 0.5348689046351498 0.37507612871281204 0.6893302410422452
Ni 7.787210202590731 7.566579797936784 6.7377852684475545 -0.5610630465320143 -0.4316892492211662 1.0160691161022501
Ni 1.0261595557613268 8.156358676599531 3.866118967346223 0.36556176146447367 -0.04399620307529197 2.489046918114087
Ni 9.159365544054834 2.331045441218024 9.791654658346241 0.3849003138920855 0.1076006672998147 0.9322295557777751
Ni 1.3973569402396873 1.5797751646363465 7.00409054408269 1.460348029062969 0.7410299834093819 -0.6277350939382673
Ni 3.2998634435199015 6.172882956854083 8.502298582925865 0.14929547593543963 -1.7874710269352698 0.7449282900225235
Ni 8.266226843914964 7.936911052080284 2.3341877248199756 0.7727208867547596 0.3877274989282355 -0.17626069167037386
Ni 6.251942961290864 6.00052302021708 9.981777717431386 0.6994778709992082 -0.48293544899065216 1.094949532649237
Ni 0.4101928073287844 3.35234349122885 3.4187952456943136 -0.3674394381031607 0.25966367867806245 -0.5879421303110455
Ni 6.878071374329482 0.41909159802725826 12.96268168021729 -0.6272404136900359 0.8698347955906374 -0.118466406369725
Ni 1.066429959717581 6.9577181122189105 8.231017248818523 0.10178534616961826 1.058649926887254 0.921809903106348
Ni 3.4163533169437748 8.6530238876502 2.840765005928609 -0.013680325700569988 0.5500690094143559 0.40523182636058597
Ni 7.240206986594744 5.304862036425134 12.704609299378022 0.5155336946416477 -0.6023017414668272 -0.26950457602788425
Ni 4.942847496142163 1.8696308034731886 8.629611360243718 -0.6704516589701872 -0.18020039304441224 -0.4117619141696199
Ni 1.3699853590122517 7.4019498417076655 1.8005806580031467 0.29722543898192033 -0.011041088305510018 -1.3451075858297092
Ni 2.490143339179331 5.484039256988126 0.4831023550651241 0.35511768331301424 2.3708934149990912 0.7727630528466046
Ni 7.221012420786733 3.279337085906676 8.341509402504231 1.3403160779783367 -0.6392394950334409 -1.0496690635448824
Ni 0.4073075688584681 3.657035104511185 7.9756159021732085 0.5926999567110051 -1.0178616892262986 -1.296747963579399
Ni 3.5344636922844823 8.298376111828237 7.947550485354944 -3.2566893619046753 0.09245918367268592 1.166185031056456
Ni 0.39737873498757015 0.6598981828687236 2.614615581528021 0.09382829610607066 -0.6610648184386486 1.0632231480802334
P 8.05352199748645 8.95200649130599 4.8165982896226005 0.3295066676131293 0.012585549974494454 -0.14999918687068362
Ni 8.773937545042441 5.479308136449324 8.882463676000313 -1.9443903379645548 -0.2774063473734642 -0.20330355472077888
P 3.513006011730548 4.980538135552654 6.610595425757875 1.365681553326319 0.2985873523264535 -0.3079009164178956
Ni 5.08092543533167 1.5253300255225022 0.9884633284131918 0.34309854736495105 0.36154107034085475 0.8910417686855557
P 7.1910238220959055 4.769025382488247 6.862425148925572 0.8114578983136412 -0.1560937298041957 0.11103231868918295
P 6.5474517303778095 2.6210128388077507 13.561335135182054 0.7929091887771764 0.11458635458902847 0.07299516141080332
P 3.6361269044922695 2.298998618828229 10.49668381959878 -0.06928146000464197 0.11038825734728085 1.1415680038387244
Ni 7.696620420147973 5.010424288720003 3.7049749528841778 -0.2047426011601506 -2.6192920622862954 -0.902389332487891
