# total energy = -381171.7217576811 ev
CRYSTAL
PRIMVEC
9.17246697369942 0.00000000000000 0.00000000000000
0.00000000000000 9.17246697369942 0.00000000000000
0.00000000000000 0.00000000000000 13.42483258317795
PRIMCOORD
 96 1
Ni 1.669214659281735 2.3510683150316556 2.2665146826623928 -0.4478375768462545 0.8501496584568843 0.47547385050628443
Ni 7.034887529130742 4.2536672165736515 5.002910985037223 -0.28239428750635887 -0.6652228064710802 0.28868346294918024
Ni 8.288103306977577 0.26843865817937845 10.53262700076955 1.1101606931720367 -1.0071371037199428 0.26124079335719524
Ni 1.746942141946153 1.1148032556134075 6.25029307407422 -0.45904707240882875 0.9150841543467402 -0.059192451199756115
Ni 0.31201337839953225 1.1342030226461244 4.270613348768897 0.46626673008571956 -0.3584058671459827 0.9950534330825315
Ni 4.147349155261017 1.2240565062643258 6.214569985333974 0.7026680958017318 -3.144723218547313 1.0096130760642612
Ni 4.80855558850945 8.922544482447538 8.188167447982373 0.20173003958607194 0.4830979427104454 0.8678046525344861
Ni 2.4147527512057243 8.348935106013503 7.456098206134432 1.1352148079271867 -0.5016137421264457 0.10081038385085862
Ni 8.449978998983909 4.709639707809298 10.145709424950361 0.21592792835300875 -0.20034498631308723 0.8181584502622683
Ni 3.181736070232546 3.7904576491257993 9.777761427476497 2.148041505832739 -1.1974151927153314 -0.5185038330135651
Ni 8.082841847564746 6.695313640091397 5.6286025445390955 -0.513134855392168 -0.7762764653165017 0.45110030675792634
Ni 4.760106619494409 8.961610018046755 4.065039108242203 -0.6477575598067812 -0.3471809449644408 -0.7891317240126151
Ni 0.6777489769096651 1.2078671025703562 8.540918502657274 -1.0921480586446997 1.677822733077807 -2.5821784452634495
Ni 1.471144413747697 -0.0018051414430443038 11.47576112170011 -0.7288347268947706 0.1289217973750941 -0.047007736208106145
Ni 5.132554629122529 4.105550224590524 1.0905209845657897 -1.4610831074567805 1.6222943609931997 0.3150989768282315
Ni 3.0212087308284894 2.562273532854512 7.636675640458969 -0.8724154118336201 0.23496643304169856 0.26994911976447056
Ni 7.374195416636306 4.092240975434745 2.0072943534985606 -1.3388515776176686 -0.06312752458810418 1.259420173663218
Ni 7.951730608810298 5.53953697580889 3.5150772681613804 0.21620689304600826 1.6748389678591349 0.22075851697243273
Ni 4.185323167325058 8.03179707047866 1.8142322747729684 0.45885423967173233 -0.6107005070534838 2.3975616683188967
Ni 8.656753915399293 1.9988272495042811 6.4840332080417475 -0.3447985607751933 0.6594756195746577 -0.6601762451861083
Ni 0.488345795143577 4.355839322945961 1.5859561792079895 0.6115911371885531 0.9809828139220782 -0.3717730324815081
Ni 3.427448107713597 6.105193823629515 0.8282086168834096 -1.5781564901337208 -0.9125824709708089 0.001820083927874285
Ni 4.555432197949234 5.664154108152385 9.91791671837953 0.1627315468356875 0.7924250500519062 -0.13302733490303542
Ni 1.369816174310144 3.526474058013934 5.278281276288292 0.7902753506987551 -0.26026943058286145 1.041584229654219
P 1.9202375549717425 7.2440105970167545 1.9381293684819163 -0.2639185972996745 0.5285622456908317 0.2503660554262204
Ni 2.250694012129045 5.137012447930046 7.5505012332269725 0.268222366881351 -2.957181554646481 0.2127569868241949
P 6.30290634296295 0.4606798011369193 9.68813725552535 -1.0550994905318343 0.13193204495632763 -1.168695970403768
Ni 2.646504294396564 2.4266677854258183 11.76558997218223 0.8006147849515501 -0.016086878259533584 -0.8469398932703349
P 7.6189993799158255 7.005553980681272 13.328160030337445 1.4792258398040783 0.021479252919698492 0.32904489748536236
P 4.8355776753550215 3.198182302993615 11.53480337248635 0.3429432527340094 -1.0274269643172305 -0.42745387098357995
P 3.1669408814742614 4.497856624585467 4.350437657316851 0.17318616651010818 0.012517672851036506 -0.19032385463165932
Ni 1.1714524098422774 1.284842442966839 0.2683359265525385 -0.40058301473466496 -0.42489588044841664 -0.9670636327378248
Ni 1.9663658899162029 5.930660127601838 9.599963250556646 -0.27694766256949077 1.2508398881933749 0.375201855657399
Ni 6.180875846223817 6.440841896928906 7.359116798657543 -0.3588750934729174 0.5760196678418467 -0.15002849744672225
Ni 8.453042602855742 2.333759870402466 1.1588787925144057 0.1432875791784629 -0.7334994793602916 -0.6082343049011782
Ni 2.6012014814534963 8.785709624483438 0.2902452804694879 0.5090822825893491 -1.0955120900209263 0.35391466414384853
Ni 3.355068173124864 7.854007148778824 9.736412864920098 0.29334333031869475 0.22875721890719314 0.25057045812754264
Ni 7.766474299231203 0.09545786076098613 0.3632085839392044 -0.2288322951195027 -0.7888766705790156 0.2802584721102786
Ni 2.4803817503164045 0.25059637598928813 2.839338895948439 1.2435487538486003 -0.7759795029013733 0.785790318344208
Ni 2.93948205269066 3.7044290841140484 0.35341972749602923 -0.780323895912998 0.2955567930302458 1.1010191358820844
Ni 5.667382816424497 1.0764898622821266 2.070981541412633 0.08428256139916453 -1.275961108741035 -0.09820482790721151
Ni 6.340770285426806 0.6412150421147186 11.775188958565083 -1.2931540755805535 -0.047640998916730855 0.5242579618885229
Ni 0.8757706083702879 3.365854993943056 12.756060441919287 -2.4729492412212766 -0.3500040162355327 0.30747128507964466
Ni 6.9367971704319835 4.050322802697385 7.297027454439498 0.2856588171902435 1.0702790264857502 0.6793253073107333
Ni 6.478256388525338 8.839964764908272 6.525448729604926 0.5151680837721128 0.587841085956807 -1.508859346399795
Ni 4.435951646947734 4.321158226420805 7.865864396458821 2.1100719685675013 -0.4035973760809565 0.22057314043450402
Ni 1.106859899466678 8.476634187162196 9.18982098909829 -1.3138784526120983 -2.651120519650802 1.6620754975458798
Ni 1.0573469243165095 5.540279945610142 12.466795698138121 -0.023425835123108044 -1.1390663204627933 0.6832752930974169
Ni 2.6141530044086716 7.093664695629868 12.081208129987841 1.3742440981843493 0.10443692485985238 -1.2710053073976562
Ni 4.342181520056261 7.788570771468468 6.093773185363588 -0.7118464198668902 -0.18517290655833912 0.5636320928107713
Ni 0.7035465394531718 7.8710495918742325 4.0870823801727125 -0.15501052404234594 -0.9662455077119035 0.9030848158930189
Ni 6.978036580634865 3.0029830395310855 10.909515401518492 -0.2621483927731292 -1.0172194276566096 0.9854375072593222
Ni 3.109869793778013 6.9129579295251125 3.8629953501414644 0.4413841079114269 0.6140162016902779 0.32485965575942116
Ni 5.0540841766568585 8.775904257600235 0.018333926404252816 1.7530958918895096 0.4202884635833923 -0.2787870297710747
Ni 5.097405736796585 2.397710308110316 9.221745759385465 0.2942290753577578 -1.1239672600378257 0.11068264865924808
Ni 3.1467522823068808 2.146843344353905 4.384483101900934 0.021439400820698562 0.6678669289621466 -1.510131271133683
P 7.545161023124633 1.8485088655174415 3.110574239219201 -0.4377387978493558 -1.542670638522285 -0.08475410171894436
Ni 1.188733337071421 5.5330795592646655 3.7874133074339977 -0.3319875250534541 -1.1229059086528468 -0.7545622135678618
P 6.352731181980311 1.924411027312114 6.84197954784541 -0.06049548628189581 -0.3690661750733063 0.46575533766693983
Ni 0.8709339666887977 3.539205441768738 8.842185419092017 -0.3907164063532303 0.21817661517786943 -2.4390533598047806
P 3.8393010342081717 6.400538078327602 8.012301909792448 0.49965558995881054 2.5261908741542367 -0.45178807685357025
P 6.675877183191952 5.525833310585779 9.218040082845881 0.5795004273015956 -0.566652881914966 -0.11241248686616123
P 9.349770463101374 4.528043212436376 6.726861421997935 -1.6245409909355313 0.17644375421545744 0.709828618105913
Ni 0.31342226928190836 2.1399364769422564 10.623150074455546 0.5426788875978719 1.5201986826720142 0.971444792524656
Ni 0.6149496837704231 7.646736919162604 13.217619882611023 -1.526026602207701 0.8522271098112032 0.6234619204842101
Ni 6.086491164064641 1.4502220172457454 4.715418361819044 1.6998408892201113 -0.253852214202608 0.3127268770516291
Ni 6.996555790866097 7.426184957790651 10.313667379613616 0.14339505129060465 0.059025329494272534 -0.3764393276089259
Ni 5.070750548618299 7.285084902819357 11.669481783533481 -0.7777283672716799 0.9348901333290739 -0.2263270121991457
Ni 6.0395373071187874 2.413817159604146 0.16655915349422915 1.7181944520266343 -1.537363881597391 -2.0388544678824116
Ni 5.6218323468810105 3.1255088494710543 3.227531444636445 -0.8724028134281298 1.247643235632948 0.4545823517692558
Ni 7.835203592080446 8.79804659217091 8.371202186131054 -0.9339200561063207 -0.4164397792612634 1.2337104276019397
Ni 0.3112153737981865 6.962406697408507 10.845009112329704 -1.095085801116785 0.9753472129028558 0.25956829075077875
Ni 8.949254705425918 3.234055820187448 3.7193627771192337 -0.08850431278999596 2.084510318048313 -0.7011105215066248
Ni 9.1286131189284 8.574009093459747 6.726176238736779 1.525547091468121 -0.08925353225119467 -1.850899627703561
Ni 2.580233222618134 1.3617535760965467 9.677034901853293 1.3854165698614012 -0.7487690039248523 -0.10663161851832603
Ni 7.5900327301336405 8.61099247912212 4.1760764036627975 -0.5843886086318323 0.1633259858865768 0.002492170294234418
Ni 4.933567136920277 3.207299734875658 5.721649881056016 -0.09748671879426436 1.5360629033977802 0.0881718691512417
Ni 4.267288329596623 5.053680588122844 12.306462815027725 -1.109100113118006 0.36170973470823514 0.4697791141143522
Ni 4.395427689146058 5.416469990334675 5.8813516984586816 0.011421097352748074 1.2256659600309086 -1.619829701502791
Ni 6.310987286109912 5.330890876190349 11.40230067053622 1.5325569471270508 -0.14600137856520018 -0.25421293997613637
Ni 3.7478423689205966 0.17757987221281518 11.561009109797212 0.7930793958064535 0.10588599860155312 -0.581478891184205
Ni 8.9119869732964 6.904500915244184 2.0115100191856703 0.2021118484055229 -0.5701835207760438 -0.9821770913404956
Ni 8.796973413569102 6.3687279638739565 8.47168655863385 -0.11099118103860241 0.4129772746339597 -1.3469649507534223
Ni 7.646984575763022 2.262820013082828 8.620688693651804 -0.06156095143193268 -1.0030431361562273 1.2906446788951385
Ni 5.697789543475777 6.514423424653 0.45516531416761935 -0.29932911558848446 -1.193859357043273 0.33172398697942224
Ni 6.698147932296178 8.01792830085527 2.020047751173402 -0.22220681938318504 -0.5325276580964828 0.41436541323073794
Ni 4.977228078327243 5.5438388626828115 2.9555843179511494 0.3065883682540591 0.4562864789445561 1.010880115702143
Ni 0.30082938977400425 -0.004263362513856669 2.3215430620285296 -1.72080874972103 0.8339203410822154 -2.932727278258859
P 3.8347698356671964 2.306453437089748 2.1501610255528334 -0.20328247167485639 0.29397067949004857 -0.33354484223824493
Ni 3.861489231112258 1.5490186558790289 0.030109539130778618 0.28482089466998045 0.5845896688990448 1.376752723538816
P 8.28519563503934 1.494680963254057 12.343045363896087 0.9119659204327327 1.726561335934091 0.42341981012352237
Ni 1.3860881302042527 6.387485658238924 6.133631222084141 -1.346282837084733 1.9315139962225187 -2.2998949723033424
P 5.657751726408255 7.06107492150824 4.535243598781853 1.3425585941556104 -0.45813973010321096 -0.3024931151387629
P 2.2672503144903 8.468204690281313 5.31771004156812 1.0232075269192442 0.04825909211670398 -0.20257490408487044
P 1.5238402348365665 4.237294363546039 10.722037520508984 -2.973429126853595 -0.15280991684660133 3.4173635119907013
Ni 7.192250367529462 4.5018558200588785 13.336389567444657 1.3762295040454944 0.9221593160259668 -1.3489511279455155
