# total energy = -381163.9538662445 ev
CRYSTAL
PRIMVEC
9.24346402997836 0.00000000000000 0.00000000000000

0.00000000000000 9.24346402997836 0.00000000000000

0.00000000000000 0.00000000000000 13.52874395153547

PRIMCOORD
 96 1
Ni 9.361964947470659 5.232844989541534 4.799105621244483 -2.0758482714979407 3.7549365015517333 0.8506479382495414
Ni -0.1492902585554233 8.010626009129664 5.2370581603152715 3.189703639912745 -3.3681502834908446 4.035624605000263
Ni 2.8883328459459716 5.3425186868438574 3.4567152801524053 -2.021064747999158 1.4277086457613928 -0.16065615236389752
Ni 8.94456709872361 8.354861842356451 0.6367221346923393 0.7736171733167838 -1.911518269826882 0.6093488781215957
Ni 7.56939851085498 2.599631742882889 1.4139162635299531 2.3915062061534362 0.33618330830235654 1.709633964051133
Ni 6.046768945905529 5.761700524093168 10.927180074227234 -0.2293125771900309 0.20409211206034528 0.274706689054114
Ni 8.76364478289568 0.9355956696038167 6.1282094075533875 -0.5433985393727158 -0.41675756761199845 1.4366789675808032
Ni 9.549329957526966 0.18191506383385156 8.77095543836946 -0.7835943391341537 0.3547842112329954 1.4300977148188596
Ni 5.023120040692616 5.579410175631379 13.17238321641471 0.023979136523416766 2.6554924234662525 -3.9883810986322668
Ni 1.5048081668543085 3.780419531714808 4.2516919845374455 2.3429144132876614 -3.1938999373822803 0.2820129929075401
Ni 0.5547058052533349 5.205826345022807 7.736669155081915 -1.7137798678987066 -0.7444078987426793 0.9464246163312344
Ni 0.3865579563172567 3.3826825303476205 6.095686280376125 -0.8392936895789868 -0.9923756291400523 1.8884277065560058
Ni 7.401648130859821 3.640935663843585 7.544506787343356 0.8624505873114244 -1.2869551458586932 -0.43543894607158556
Ni 4.39011840015655 8.442859617183094 1.2992806748907657 -0.36846016605819126 0.19433143312915563 -0.7802925284544303
Ni 2.2170262916618375 5.352501627685535 6.169607184269629 0.8755390450642664 0.3793336184375854 -0.6154236235607659
Ni 9.222610488091826 5.355025093287182 0.31825060795444926 -1.3011401791098238 1.8717978113088087 -0.1850896028159135
Ni 2.085565750318926 9.040338626557523 0.5955794775753868 0.05594180547294236 -0.2864466031988615 -0.880089126328794
Ni 3.632061938650982 7.921232471277935 6.7731785605966035 -1.1139610407547331 -0.8914827128777163 -1.5615255664452592
Ni 5.321720893423695 8.836936206908334 4.959109978623601 1.0084846188867729 -0.9302935150973268 1.4075871924211694
Ni 2.767271201313141 5.754000718795837 8.778639529778431 -1.8916531554718392 0.6764168754146868 -1.7210563469554618
Ni 6.847881461522704 0.78513981027049 8.321299749854555 0.2779709616276826 1.058119765415397 -0.3687113628370489
Ni 1.292300935418959 5.4307567917278 11.484550770077472 -1.997779552218972 -2.679698074178179 -2.70553714672847
Ni 6.055226715229729 0.4772123026234352 2.7746779888098416 -0.9254981505912124 1.700078202041898 0.3277603743459839
Ni 2.12091275566946 1.842305515012963 9.692519530012474 -0.24181868007684162 -1.3144839474065813 -0.08310268215845042
P 6.708776575664915 5.96499202217745 1.580766330156613 -0.0949508397462881 -0.14832796981584778 0.03509093016586215
Ni 0.24194766345455704 7.498242326966798 7.696772516877425 -0.11453313275358985 -0.14095687416275723 -0.521380897451044
P 8.13686399345818 6.342263994819199 6.474720981553529 -0.28264651272648095 -0.5632469415572106 0.37588371221577205
Ni 6.871461537529297 6.776346295621087 4.675871762632214 -0.2775220470157221 -2.352214093422033 2.1091232315009867
P 2.2686602801262943 8.644339396373887 8.545498114231158 -0.1935251351777764 -0.46001972073474323 -0.022636506452593273
P 0.23000973003138378 3.3493413566291643 -0.004928614867391396 -0.047777010273962875 -0.47517843075305266 0.6582222067835309
P 0.8742578929026992 4.025537703232972 9.774841818101349 -0.7847083981339389 0.014605665728316779 -1.2326195085306062
Ni 3.7163161106619964 1.9407668907958837 12.007517293878891 -0.46084093108445795 -0.6438628527380653 -0.38098400955681483
Ni 3.974301183709434 3.619527801816431 5.041012613458575 -1.139565885807031 2.5770555222145877 0.9824730253143596
Ni 4.421093247156978 8.811331812342178 8.570729997208499 0.9865754775185073 2.388768238396983 1.0586303865032285
Ni 3.7099196337523286 7.8000968789351655 3.665342105508739 -2.3387242864657143 -1.3564631200518447 -1.0893476130814272
Ni 2.143586972229308 4.920573053935601 0.9137958847139894 -0.5677252890435384 -1.2559463561820048 0.18185669770091262
Ni 9.278126731328046 1.1857053115428198 13.401221799589942 0.11945653819713621 1.850932023603393 0.40713624247215047
Ni 4.517890799466286 2.3412307139670476 9.421606548575063 0.04066713870205899 -1.6460271858337652 -0.8160953970856526
Ni 4.780959777571986 6.523287988748292 8.296015179133883 0.6553803664593616 -0.015833110377514666 1.2371546773967983
Ni 4.328778774762683 3.8409180019081255 0.7668026268985262 -0.6198662327131518 -2.456286692963931 1.4849411450213006
Ni 5.843144683126525 2.0478616617141068 13.802565600509373 -4.857048099167048 -1.1207778065662506 0.3832429807943206
Ni 8.409999103579237 2.264029304791405 4.281589968011897 0.07555469460786342 -0.3285049658214923 -1.250534184027498
Ni 7.6125007822853 4.35422603044522 3.4876827323818405 -2.4528712395244785 1.319294224311031 -0.8720706268996917
Ni 3.0927335596793286 3.979939696592234 9.992965378106517 0.625173246748362 0.18383104781846404 2.017933401459028
Ni 6.797153332504991 9.270269787147097 0.7168703601090259 -0.37425568969404577 -1.215897310679919 -1.1777303126918943
Ni 5.776416118370901 4.218430304607173 9.186382580646653 -2.2780547364997994 -0.160647153502833 -1.1640918959728532
Ni 2.183555709450989 3.3631603349238945 7.883740057992814 0.6685169038413197 1.5925785790963218 -0.7640246445323422
Ni 5.449964709384288 7.881698176852142 11.664929570237355 -0.39634172295980774 0.3796336661765075 0.8705667886606555
Ni 4.271746603472727 1.5443979220625557 6.967925400797508 2.747670842673726 0.618441070230851 -0.0917888970785387
Ni 6.568044840188482 4.2396902712144495 0.17491221570268928 2.2349507062214733 0.3215010236998334 0.022480697601019346
Ni 0.7187652701761963 1.9699392623665648 2.2669437689093503 -0.5640324135729835 -0.9339575942124754 0.04778318092154996
Ni 2.3496237790450514 2.265508258990172 0.4830098030826023 -0.5410146125215716 0.15290427633262052 -1.4029990588298547
Ni 3.121009315267007 4.315458943510038 12.34104180132111 1.1052066916008707 0.7126704584300823 0.5035855211408359
Ni 5.218036960626378 3.538250025130436 11.404812030104571 1.1768890477375216 0.45845211913730727 0.6377523689649532
Ni 1.1381014732700032 0.13356065630516087 11.649032661293358 1.2802497088140596 -0.5665196987712114 0.5207167815044839
Ni 7.214957893656701 6.8717943022240195 13.073081609777613 0.37643572806450004 -0.639673497247066 -0.03755430410469016
P 8.825298686056785 1.1778391238981272 10.860415459963017 -0.8150155337579126 1.5017744145285556 -1.39215286014397
Ni 2.9365190224345525 0.6258767786835052 2.5228943555871095 0.5197536462602661 0.09393911065232209 0.7501990515031596
P 4.450958878508332 9.429996840613946 12.965136440195097 0.08158316019013045 0.037602640844122334 -0.5410248969342166
Ni 2.156222787165025 6.852041020206736 12.68160058467121 1.8545382528974124 2.680291741898119 3.090445945260987
P 1.3259748738321377 1.637045159151573 4.973693391369819 -0.0467547396570356 -0.2762249254708533 -0.06950051799398353
P 1.6726971988056025 7.088608987763277 4.5883278418753175 1.4592136583482094 -0.8688076398777037 -0.3002801666478441
P 6.122574592056085 7.9860938563576145 9.500560518476245 -1.4574287985336447 0.7859399565481948 -0.16329821797243488
Ni 7.680773005485887 9.08359803687146 12.05914296322598 0.21307143274082013 -1.79006244181153 -0.8898436346123966
Ni 9.248917385902397 2.2111289617942536 8.155735449034447 -0.08641220614765764 2.199580811362612 0.594779464947853
Ni 7.652811527665446 -0.45648475952771417 4.182762551064781 -2.9673690367024443 3.8917988939301424 -3.155589471837856
Ni 7.510166395194358 2.6780717761999995 9.874941135659405 -0.0721829499221531 -0.5308153033910664 -0.058203347813609446
Ni 3.225451212091192 8.966668220531435 10.613826653363454 0.12874696236012667 0.897808655095744 0.6933473326214381
Ni 7.216529282492891 2.098220052182127 12.224356012423879 1.540168955146354 0.8742825469493459 -1.4442434101916224
Ni 5.655363717201813 7.438076621468204 2.893297510321958 2.1853435847173075 -1.764599778764051 -0.9168551302042339
Ni 4.466598819160294 5.977914384489178 5.147713612821376 0.5861973797057969 0.6603611075034046 0.5397843396588962
Ni 7.727896183644104 5.068736534260839 9.446674822244166 2.7195596862598066 -0.7366601364764603 -0.6667053045538777
Ni 0.25056904208699504 4.2544890566658635 2.5324724327168746 1.3122301183753982 0.9094608946226918 -2.5044429409541835
Ni 4.596580406304438 1.7020821700423565 4.543790984872195 0.9164856626799571 -1.3183832824609876 -1.4704195543663579
Ni 0.9101428678430347 8.758292817388892 3.346415800354728 -0.37657302497331274 1.853463788886311 -0.4272528107163674
Ni 7.8583584309028485 7.170977493170863 9.972510517191195 0.7654603485376043 0.8651543593958326 1.1225811783235762
Ni 4.942517036859807 4.785063875473564 3.004232940425105 2.7209591377104942 -1.3912928261365203 0.3477522440868785
Ni 1.4164406534779737 2.948101082503647 11.696654062147285 -1.601254509603765 -1.0243557815910747 0.10857485828762592
Ni 2.2105373801147468 1.2266446124574417 7.159911218378589 -3.0200247152249475 -1.7214188725012032 -0.3110440900325675
Ni 5.8131219128915514 0.7525778605455093 10.565488884069499 -0.0309185439557274 0.16529005159148308 0.29946281295287136
Ni 2.7126608175236657 2.880919588024651 2.616783914203091 3.050602330901488 1.8955473483199226 0.6514213818116136
Ni 1.3948294352484891 7.04820580774571 1.9750203943857039 1.0779686818205243 -1.4323867679633524 -0.6485916256723023
Ni 3.499455207804026 6.738170790365411 10.724086386267038 0.5917604756158712 -1.3580443484960354 0.241821508290319
Ni 6.076079969432344 5.357114116092941 6.922766458684527 0.5974055897167905 0.44621932451654117 -1.2079711138543066
Ni 6.3970684913472615 8.004895061609442 7.226649026597954 0.6828965696017594 -0.8421458143158013 -1.016808822481752
Ni 6.509931183640676 3.46027216500044 5.195646518403419 -0.7459677870306314 -0.9398762736897555 1.0873976884439078
Ni 8.018251866717057 4.359402370140905 11.740202792876355 0.5649770368744399 0.19317726492005438 0.21410578754260548
Ni 2.926489864274163 0.06424946777994021 4.997044229475602 -1.6954751560522476 1.5556014876513402 0.8397752572010956
P 0.14170045047662536 7.238500995808324 11.999995887431787 -2.3097109299524994 0.2286777718195094 3.227470574248874
Ni 3.9506471599929025 6.075220327304311 1.3631557823891431 -0.6202770949983253 2.671160983241445 1.9212401251003364
P 4.1081557821615995 4.359402370140905 7.177025491497447 -0.2594106821269919 0.13699660396342858 0.10945906066479212
Ni 0.7892171021272161 7.532202812755989 10.158868914045966 3.264822532534771 -0.5590200479600566 -2.4893788475322096
P 8.288281173020705 0.6851301543107353 2.1873677138983116 -0.2989305945984852 -1.4287779675661716 0.7616108928845271
P 6.37115906247761 1.286828804883521 6.1452016669508485 0.5202089886301299 0.06126810278186222 -0.271731408475874
P 5.101837377921995 2.4611369256320916 2.510420301266883 -0.6395811946435759 0.8659745413042828 -0.3155399210203921
Ni 8.334701847934507 6.791394654593542 2.829537021773985 0.22710734200859597 -0.17563282827838783 -0.7647154999517798
