# total energy = -381159.9249790901 ev
CRYSTAL
PRIMVEC
9.37208439942825 0.00000000000000 0.00000000000000
0.00000000000000 9.37208439942825 0.00000000000000
0.00000000000000 0.00000000000000 13.71699286338066
PRIMCOORD
 96 1
Ni 6.711771451532895 1.0881177541780955 4.218235587681725 0.46921809940455966 -0.2527109015093132 0.9604402138840362
Ni 4.135647841892739 2.15101522897691 13.429004953910177 1.54219678420966 -1.3383299007862435 0.7544084615988169
Ni 5.202237917983057 2.8336216311733184 7.954635441661588 0.25341332689297646 -1.913159147864415 0.9607711148608938
Ni 3.2788050168274308 6.436747631991834 6.208173737630853 0.1848368633751591 -0.24890746860282292 0.6057105100380601
Ni 7.5403761860111445 8.302982701467137 0.2872403316818604 0.8107922397051843 0.5500024178424786 1.8851066126025728
Ni 3.834447790353785 2.0534424572869465 10.150725711022982 0.7452033980607811 0.3740415168007106 -0.1907480866532715
Ni 7.879851830632591 6.7812373418187475 10.704919560286225 -0.6170966403878146 -1.1048529078058777 -0.7758720307892316
Ni 0.8943714630134513 3.1519632252558267 4.459367138059168 -1.0125271643872626 0.2719820910340993 -0.8406723150940684
Ni 8.848672321258524 4.203126850265396 0.7211968973179715 0.3700174832429821 -1.8307568342070988 -0.8349217857635363
Ni 1.2726915862463064 5.499698507808026 13.714592987095356 0.9138556812562777 0.9450357064035079 0.07272776668202958
Ni 4.020296225913479 7.77837089970771 3.0747466210916152 -2.106188317242379 1.995909846000085 0.09816703269074062
Ni 9.134155387097346 1.6580342123921659 8.93239596368845 -0.6353784694161381 1.2856613667479344 -1.028399869753461
Ni 3.0147559082314235 3.948646639940011 0.37608300666361144 0.10064686168980087 0.9529328497633975 0.6122403407367779
Ni 9.339310316719219 -0.0005951273655088548 7.244451680835104 0.9255539435298124 -1.5548990622676768 0.9839223561663766
Ni 4.87399940267256 1.1577429699003834 6.1352954713799335 -0.5588644962187989 -0.07244314556207523 0.24510249303443593
Ni 3.3941472607221943 3.663538457481037 4.20837334316637 -0.4813732467098548 -2.736120418831965 -1.081351482249828
Ni 5.488526983088552 6.353476661243076 10.618886636236436 -0.17059218053068684 1.1101380674642172 -0.31019871131313675
Ni 0.900759475806063 2.424745700857495 0.9704746635395144 0.3831151969672047 -1.4277556969492442 0.9875602100292799
Ni 5.353025385442458 7.091069083178704 1.1329247529459898 0.3643410016834951 0.03744168978622584 0.18125711644370077
Ni 0.5002471936946502 1.3280618614498703 11.158129199102886 0.3554056468670782 -1.875993594557711 -1.6395300081451956
Ni 2.7885044164086 0.7466702229786497 1.3893805986831742 -0.46837632022955467 0.16927500438116008 -0.4924750130499712
Ni 5.747243375606222 6.570046789781322 3.3224198864474075 -0.02248918224145159 0.9354591184586664 0.5654799446527874
Ni 0.7857012060715345 9.109338107351403 4.758205424305079 -0.6995676024995372 0.7366796768604861 0.32384047046628744
Ni 7.682644428663498 9.231671926280333 11.915252107920148 1.32443463086139 -1.1439254483273076 -0.12860298058309466
P 4.60393341582999 5.205527519641223 4.842537315018808 1.9887002156255236 0.555607679844398 1.9367387349565677
Ni 5.006933049166695 0.4540887403424036 2.539495629012098 -0.13217501420506914 0.6290687251480263 -0.07970908309586917
P 2.8192635977251363 8.822786623880013 5.159523705683165 1.5407217423260304 -0.3557252349900261 -1.2901083467756944
Ni 6.329296683242874 8.724660899204773 10.129478258261644 0.25880544444282527 -0.41205759103316775 -1.1206865324040247
P 2.851934684278898 5.486586961597839 8.340247046632488 -0.44887270297898824 -1.2918883214942525 -2.2050330927264348
P 8.917350956446695 2.167238307239837 2.6946757924748694 0.7863706163277102 0.35273966999914086 1.2329416677567153
P 7.78893323893493 9.017116795908771 5.816841412283471 -0.5271409398632728 -0.3503377454258676 -0.9441196223471419
Ni 7.662250772799761 4.153079919055675 12.13442205269764 -1.221353962919116 1.188342798100418 0.35710720293921727
Ni 1.1295236234823178 5.3021349666280795 5.691194561485132 0.31140224470293465 0.9888118230481937 -0.4505755446027079
Ni 2.7411097851113047 0.9412197017846186 12.031503444011044 -2.0213141450058028 0.9368575414680897 0.5292356176087724
Ni 2.6812034210115785 8.602955009937089 7.260294252467484 0.9172245977285107 2.25856988830231 -0.08354465479187548
Ni 1.4694022677370995 4.400268647643014 2.130510045307669 0.14524213180167245 0.495677836257985 1.4469572095783596
Ni 8.36282346097539 4.2579722887371725 5.645680907546224 0.012435911770507615 0.03734553052799375 0.46889311196497313
Ni 1.4086430439482187 7.706243337424936 3.011250748629843 1.7363857782236805 0.24561157146037055 1.1386989098210454
Ni 5.616465308546212 3.3375679866186196 11.671871257263616 -1.9909581584217646 2.562213057885116 0.42447190553712055
Ni 6.864095940849674 8.402195587943936 2.9602637973451533 0.3236193555944169 1.4331737826410222 -1.3668737738622072
Ni 1.2670027309571115 5.8389211061480735 9.750504900739402 -0.4423737255182059 0.14873111879153741 1.1920269318202246
Ni 0.0172221424702216 6.873796048303243 1.589126898342287 -1.110094101600159 -0.16430840440450412 -0.5052382262529106
Ni 2.2075195264045147 1.5030386789939698 3.4835400770638723 -0.18005846814990922 -0.47587108594470306 0.11773724151318433
Ni 6.141011505714166 1.3498988183260219 11.943316814944026 -0.39969238459959555 -1.262361515679729 -0.39418688140033403
Ni 1.8043043351243973 3.4099954556052725 9.530977879542606 -0.5204568429748778 -0.7772653115923324 -0.7892839333197633
Ni 2.948167247885905 5.821554633576611 3.781610789589544 -1.8952650411928134 0.9563321052529338 -0.6530110948962367
Ni 3.7936885948798 8.62136178388763 0.002071230673660739 -0.4951312197258957 -0.8593421235894299 1.2996360837604712
Ni 0.24816811141719247 0.10921758667649512 13.146832108315413 1.1971413702286544 0.13679477236526763 1.3048327974700624
Ni 6.9344240629091765 0.9338054457396727 7.5812722139187745 0.1361954482183719 0.1316692782132442 0.21903819184721632
Ni 6.34149913725693 4.361580682842691 9.813355973787834 1.2505879200835688 -0.40164308056806314 -0.9387982101342284
Ni 1.097358629491351 7.2830562340834115 7.897284845003976 0.9183895645708893 -0.4604112997462071 1.4988173887827607
Ni 2.4819154162843295 7.872138605092216 12.057853996780567 -0.46636905999153877 -0.8280497412340513 0.05078340120045448
Ni 8.56454820767165 2.161287033584748 12.788119323057064 -1.450153090807838 0.2705283893067083 0.046442093512623246
Ni 3.530070602170618 7.2288855856953615 9.285320549561945 -0.793140330951376 0.24931396001262224 1.670316140288117
Ni 9.01060319718391 3.3910732170074396 10.550535086797181 0.014079360911201558 -0.5043401399186734 -0.5545157323317998
Ni 8.945776488723677 5.354065686821536 3.626334093656462 0.26417365073327403 -0.5186773824769519 -0.7492186898677613
P 3.033584425984294 1.7381936510881852 7.978022541313411 0.5940950372863187 0.555461641184837 0.006375821619356762
Ni 4.97365277712068 7.7616229847129965 7.568158793291687 1.4346729928943678 -0.9909918614186481 -0.2213125897036898
P 1.6698711551108694 8.25635658109853 0.61609178131841 0.10754153192710511 -0.9499367432495511 0.4522742724613695
Ni 8.75732261367404 8.874586134890524 9.779214407176621 0.8891440374422106 -0.16806658589535572 -0.7814628946134476
P 7.542466160853799 5.547758557104553 1.3414161446485091 -2.999733569076079 1.3828920036673344 2.043930596853738
P 7.669092394481989 3.1426380011821053 7.437710623605946 0.2556823254328113 -0.32040830485628685 -0.23600027362285161
P 6.7052672248925305 6.794067725494048 8.451491815185511 0.8380086522189761 -0.6757021087358492 0.6769403520183245
Ni 3.7330605802738663 4.688694548013645 10.128586035817603 1.2917636229909302 0.17946865708471027 -0.27005324944250264
Ni 2.2936864712626 1.530817537440714 5.875454428722721 -0.13923320660343116 -0.40962352767037835 0.48562687977988617
Ni 0.22578851084871068 5.144093505768617 11.8821808333584 1.4207846649480498 0.4164860591181666 -2.182991282435047
Ni 6.450318410342335 3.4528633700909026 0.3617127895055843 -0.11941180100212982 0.08116484170578925 -0.8128169834446969
Ni 1.349664516213617 2.903790427796386 12.548812517531031 1.181748946932984 1.6519898311751036 -0.8813312262660112
Ni 5.018076457632679 8.1703021012544 5.358118176157694 0.053842242631436305 0.39111441312259737 -1.506940017889895
Ni 8.461586487396373 7.515071557871399 4.2065214192699205 0.24846832418287532 0.12044255625948933 1.0715126417825351
Ni 5.319360857932099 5.038685671439828 7.75512156969798 -0.5904214450894735 2.244592600186612 -0.40844956196693527
Ni 4.408450477408199 0.010958778401409512 9.022860009288044 -0.6294466773127353 1.9285286883419497 -0.5195441013526214
Ni 6.480655847856543 4.7053112538254105 3.6956734608016157 2.273921431057716 -2.7079768665182136 0.20118805103967288
Ni 3.692198291870424 5.953569815790117 12.150292740583511 -0.41755332404041634 -0.9115203482548817 0.8641511149422989
Ni 2.901110011630472 6.327281685076191 1.4378155313595482 0.3541936288368481 0.6689138821694222 -0.5025195417701668
Ni 8.716816464481452 6.569971813105353 6.9528561414878585 -2.3710767346544905 -0.35556376971149734 -0.9003041678240883
Ni 5.916353268255698 5.703953717318262 12.865702375725078 0.4002346302563107 -0.35047838476878995 0.4211495260321069
Ni 0.34819918087050994 7.704537618046627 11.678812223041504 -1.3980499423546955 -0.6673887037741474 -0.16660619929974532
Ni 3.3468557223543565 3.7251786572125605 6.5153794209149725 0.2831478778429317 0.44978595882187705 1.1666699411126744
Ni 8.82015306813658 1.6139198106685408 5.804880758049417 -0.5553449131013146 1.7929950420772927 -0.6963789203589105
Ni 0.9880238917586535 3.3259278576743365 6.832502644012975 -0.7411860493712719 -0.4372600584407244 1.500573709352235
Ni 6.546316671836937 6.02416972830001 5.579235640093498 -0.06898424047919732 0.6658398712297887 1.1953709085917927
Ni 6.181442678230784 3.289920309039927 5.650989256204873 -0.8525518401404737 -0.11041705370268726 0.2849569060272125
Ni 5.911545388909146 2.785992697763618 2.7476918000529875 0.19448261399503927 -1.3312794216973654 -0.39617460125432413
Ni 4.318975186722954 8.996648163369064 11.484511104474684 3.1960704626710377 -0.8757064238800661 -1.6113689723299474
Ni 7.617714627273807 1.676103591300844 1.0899340641534596 0.3084920130346751 -1.2827367369019715 1.0478070706354794
Ni 0.241886003179388 0.19288031055719504 1.875030770774989 -0.31469171408748386 -0.19954871566403698 0.7010534430164443
Ni 5.086876929919301 4.7243834457751825 1.65503795697873 -0.925011183652465 0.6781487705041288 0.17303498564422456
P 3.849236939688792 2.4837617169300814 2.338363198055997 -0.26236359410772875 0.2951263903610466 -0.8611951176377686
Ni 5.721498259495153 0.3970024364675849 0.2545861148801919 0.34752984366342726 1.0101301249099959 1.0339935617911549
P 6.355669729015188 2.048287810814035 9.859980219739542 -0.4546052345873912 -0.44405831230948045 -0.6216228103929423
Ni 8.560396374239835 4.786932737702839 8.7717293819616 -0.15865249167030743 0.1842658213630375 -0.8359566547859538
P 3.4601923401669326 3.440323521034984 11.883648501790503 -1.5074208141810554 0.4414388724087623 0.018302912074245895
P 5.733166504692925 7.896768443148235 12.896154152670139 0.214384752235605 -0.18575294743152523 -1.9813887695657744
P 1.7075656789545957 8.41489476243629 10.096653469522142 -0.5348398511694272 -0.2444052098570952 -0.8274681576989684
Ni 8.301351958764798 6.3486687818965235 13.217954983140194 -0.5251354793974699 -0.2997793157520256 -0.8467604302696772
