# total energy = -381172.39636367006 ev
CRYSTAL
PRIMVEC
9.17947176715634 0.00000000000000 0.00000000000000
0.00000000000000 9.17947176715634 0.00000000000000
0.00000000000000 0.00000000000000 13.43508480645825
PRIMCOORD
 96 1
Ni 0.38792723760421893 8.623627366241383 13.212048830870941 1.8357830837770963 -1.5881071735885295 0.4632356565688796
Ni 2.3834682455735208 7.152488476848676 12.167081612984497 0.5809816398328123 0.5576578775052073 0.36625981597276275
Ni 2.262189062434098 2.8973167252721734 1.3325967913416874 -2.1772880614026824 1.2798892401508475 -0.4292371881362479
Ni 7.867982416434076 0.4503788569329162 4.097795213019471 -0.8352542294022905 -0.13172429982089573 -0.14081752037141554
Ni 3.801457992491411 3.5569443986914715 2.8883015658897007 0.23281159148222486 0.5389520735655879 1.690363031636663
Ni 4.472927184700435 6.973617286820309 5.014779479415998 -0.7135729156396937 0.2420750190620218 -0.7570626113922123
Ni 1.9756426666665978 1.386063543545281 7.355399785914574 0.08818369622578362 0.7136564764924355 -0.40235244793026187
Ni 7.522825092393399 3.665776217893787 7.16494410231052 -0.5844510864386515 0.8573942558344395 -0.5767961409965551
Ni 1.1521247014087248 4.393965367158404 8.522680713426954 -0.30558769490368665 -0.5773337586675799 -0.24311323051854905
Ni 4.472385595856563 6.109929952396669 0.7711123600093895 -3.218036425419167 0.08854982131595072 -2.148809237236699
Ni 0.7492753142350654 8.6966225270289 3.538936110659159 0.1879350426845086 1.0136648775361317 -0.1355696417089149
Ni 2.4900327352091214 9.387662353392727 5.085797381949791 -0.27764648840872824 0.42234945987747907 0.4554130752006673
Ni 0.7162099383959407 4.030788739719098 6.1505151516408665 1.7612714857217668 -0.7289321717045834 1.1296841079169446
Ni 3.121718096073439 8.1050606379707 6.866040301430827 1.3851206358875372 -1.013687503243951 1.3316434899050036
Ni 3.2170928094263456 4.998589644773023 4.907420047511259 0.788679466966545 -1.2040771781165394 -1.1162626923047163
Ni 3.024525847278389 5.236677608221949 6.998080579513812 -0.46323385679666673 0.7188380206933749 1.3002618902699283
Ni 6.0729825778783395 8.626133362078278 5.493821237450403 -0.4384723335812707 -0.2318397144872588 -0.22252177952044258
Ni 0.9928241455351597 6.653079306495946 7.49474875954824 -0.7369190465648018 -2.109981208625908 1.2616827444451497
Ni 2.9536052471470553 1.2817021271728852 13.218820527313717 -0.8858782222067454 1.2281977253138265 -0.6795099125177135
Ni 3.4036472174601395 4.991484733499187 9.274951289352783 0.37351444065264705 -0.820399166667329 0.12084493390423061
Ni 3.9677349470317913 8.707711329120364 0.5296151406856547 1.5106843154236758 -2.935116604426642 0.6431815104003247
Ni 7.85169803323022 4.559361092393502 2.96398172221675 0.6219917636965868 -1.1684725415390522 0.57111554567201
Ni 4.278138790345413 1.1577058203421768 6.732952645600627 0.14023953638075845 -0.6541387807427768 -0.6503780281487638
Ni 4.3499406197820285 3.554879017507217 0.5604609202121006 -0.12959131263829296 -0.05949686981405238 0.8363016968301984
P 0.5825366322566053 4.536421592040383 1.5691912547075988 0.740230370326222 -0.07898943132102526 0.2876339386387433
Ni 5.645210006467483 5.420055918967956 6.566451711945154 -0.7240427048227659 1.049402183036741 -1.8445384613722233
P 8.137500891771388 3.33897783771315 4.71022020588022 -0.003827087055574054 -1.0467413483751262 0.013049891205422687
Ni 2.723852244210588 2.579248022896985 4.928365766561178 1.7445539158567698 0.21494293873192014 2.7499686375689674
P 5.164159779974791 3.4659299345053247 12.160418234310496 1.3409958776541808 0.3414247592069539 -1.9978008923752109
P 8.379508489734434 7.447360653656705 5.451205539015286 0.21477761679864946 1.299134975754337 -0.779895807236644
P 6.630314216109496 0.9491757565079151 1.2117508792773617 1.2671543090826822 0.074692089497252 0.63364297478227
Ni 7.123775088651575 7.071598970201342 7.286961314993118 0.8512241224679856 0.22393871447262723 0.6436252828059624
Ni 4.29494640344928 1.4107379640931745 1.9661712875292032 -1.77325873999063 0.13153403818696058 -1.4938325339736596
Ni 5.400705592139474 2.7796817924889687 9.750620509400099 -0.4861349297645563 1.6039580245778569 0.6878510853935573
Ni 7.202966392991856 2.76642663502202 11.616068205282772 -1.3025267750447052 -0.2591242612348247 -0.17060246494333198
Ni 0.27031617144803227 6.276840290500221 12.655944488036829 0.03280573367611124 -0.47601198239794146 -1.0587620269850864
Ni 2.1159784335327414 1.5695979053140985 3.08782564981342 -0.7450375619068782 -1.7215798235590996 -0.2591358311990505
Ni 1.3339975787582086 3.996090335823623 3.887320937030431 -1.864102756657396 -0.31583816898710126 -1.5220287939022175
Ni 8.212414562192281 8.28970571584305 1.8204673654783838 -0.019886968731914135 1.4838651383483026 -0.07665769786405507
Ni 1.2794898744377505 6.979326918360782 1.3163766644413422 -0.07862099223801297 0.9952007572936733 -0.6667132749736776
Ni 0.21035586080114246 1.6402247623436716 13.466523069662147 -0.3327609128843689 1.029987011734923 0.3997854585340341
Ni 2.5274115449081624 5.171732844317058 0.11594499200088805 -1.4124553191467482 -0.7235719358339344 -0.2980147676524351
Ni 1.581843320868745 7.028639041568849 5.264363813510081 0.30205628471166046 -0.7863454195167296 -1.4815233775890035
Ni 1.6385632779243378 3.1199464579909453 12.471506866230097 -0.03678400159756891 0.7377646823945487 -0.9182761789214766
Ni 0.4162404008251723 1.7486618642529963 5.339680462748702 -0.24737560533932884 -0.09849381990254005 -0.45099797685210713
Ni 6.335010604120757 5.1295439913266865 13.031266474786744 -1.5248536649455222 0.5352244882023557 -1.4022650088773077
Ni 3.6371821628317758 7.2835346181216405 10.099059494655759 0.5124195744926981 0.9992875257685371 -1.0506633091373516
Ni 4.63219102268628 0.9047140662676709 4.275917358138348 -0.7893667228415566 1.4105840702659642 1.44373484598632
Ni 5.696844536073845 4.846917230073305 2.1219102082939205 0.7715299517704519 -0.5194008909065377 0.6149068318253474
Ni 6.675614910084144 6.603042005005408 3.8414263312219106 0.11693917109192117 0.39601287886547926 0.22288147685270648
Ni 8.808547828271633 9.122430691446732 8.94983550637692 0.36075251300128836 -0.3865440201430956 0.7657259434941651
Ni 6.41934241274185 7.256207330185972 10.08819008194342 0.16036484637572382 2.405131510246355 -1.9037208852696506
Ni -0.05635277817839202 6.626064120605897 3.21039454875901 -0.4579235003273468 -1.486457581665827 1.1676055655530666
Ni 7.401279704568005 5.23734770967284 10.67331532528429 1.6875810980161516 0.29784841727789996 1.278263017401334
Ni 8.546694211995884 7.803992317609908 11.028794047563084 1.072414070550882 0.377847263700046 -0.33117659911638453
Ni 1.3833097019662752 2.3277488509583 9.941290992647312 -0.8587919075129145 -0.16848310460748403 -0.3481916456171423
P 2.59119969534987 4.757931429183692 11.238207176597012 -0.8636021844173642 0.6493141056606236 0.9454712512790296
Ni -0.21735979788374762 2.130913434362884 7.9890660768213895 1.2127340824605888 -0.9314775081030989 -1.3967661905462654
P 4.12890811517908 0.1660750061579196 11.56227466387847 -1.166207142543643 -0.6297973757839348 -0.6000936780719148
Ni 6.297549179174346 7.138765166313298 1.3606116217249151 0.9497161425983128 1.1848530397796044 -1.0130231301870747
P 8.829467844800147 1.4549004035485003 11.322780405329866 0.872179384563414 -0.956492799200514 -0.9369328747907153
P 1.9583944389100905 8.871500646767709 8.730023871540663 -0.7339849036371423 -0.6370458298162319 0.6648026882145261
P 4.674600183002971 6.769676958951059 2.7265702858490664 -0.6738779110429168 0.42180772844139613 1.98006413721708
Ni 6.552095935793797 0.7702862075356879 10.40175166360097 0.14309783176516003 -1.127768636061787 -0.31672314269521584
Ni 2.3807878397699547 5.795477961961909 2.947321898610957 0.9188035121798563 0.48511960112616453 -0.7167965647833139
Ni 8.018975550210973 5.7397218494589675 0.9434477660235827 1.4355001167813537 0.38085802550191183 1.1591376372913715
Ni 8.16529633277549 5.303127805523363 5.649292117634763 -0.9929867803614899 1.7607649783989934 -0.6759908436208616
Ni 8.47076162019076 4.07814563540607 12.757406109226531 2.4742628178263772 0.627614509200003 1.6018597472879317
Ni 4.703790903740435 3.3615685181329287 6.52668348570273 -0.569058148922349 0.135343898851354 0.15713116992977455
Ni 7.7896723413990765 0.2585031090212897 6.745098004911236 1.3933851898891745 0.10439167344421377 -0.31564173670557893
Ni 1.6282363720030655 0.36337031429702976 11.339668797786716 0.36770966104541186 -0.6122881632555778 -0.8317719272806451
Ni 4.985692486711345 7.40293200951541 12.03998539848302 0.46783638856568466 0.608305781569062 1.4191047061424658
Ni 9.004199092988076 2.2774728831975812 2.339357211161003 -0.4511087913983586 0.2698017955533289 0.6071127897022254
Ni 1.4587649612310385 6.484553381332711 9.954444257975839 -1.1431913983747601 0.2900397198667586 0.11281280762837347
Ni 7.47230127889057 0.130697321339623 12.69236679676076 0.3919186541914476 -0.4546394302594363 0.2690764873515301
Ni 3.5287909582821007 2.4608879118313083 11.197700002864222 -0.1676238419309823 -0.1344033893149556 -0.7631419848170727
Ni 6.672365377020918 2.038595485162674 5.748913254702496 -1.0015590954115332 -0.39045955314741787 -1.064506128557715
Ni 6.875351039809447 3.111519702759187 0.6009286222155932 -0.2065516293444314 -1.5154387993895255 1.4345634638996971
Ni 0.8261717505928419 8.695585246700807 6.766849681596613 -1.3956978971827512 1.2040470962095522 -0.9488342542139917
Ni 7.852331416793392 3.3291925206357487 9.476491185312335 0.514830497927036 0.28669600020550623 0.4083492889436451
Ni 5.684250300585857 8.971391660310186 2.6986656091289993 1.0960923880044284 -1.8706359297902235 0.7544539701247717
Ni 3.3740801383735457 2.648782522766885 8.576286993603883 0.24916535024989991 1.2399358396863613 0.008590312772172303
Ni 5.929773636298099 9.1906708857745 8.026401743002358 -0.33031836488114724 -1.0645035574545538 0.27148792500650015
Ni 6.243225064292488 5.017003665464642 8.622166912257315 0.020941635248673613 0.16149278933257993 1.1188926737283957
Ni 5.80077451726553 4.246910226839486 4.513100225654974 0.11585030890311661 -0.17748145145135238 0.11182576112475581
Ni 6.011011962878775 2.4868749968651946 2.8135219157589866 2.000445786197226 0.2731568280684909 0.8802698748810323
Ni 5.2030348435984255 5.556820871253322 10.705505897448486 -2.128725836223263 -2.844782694627075 1.3176170937189242
Ni 0.41105491713190406 4.379351647845812 10.830667079267114 0.6627859148948133 0.3083570301187077 -0.5965342428554308
P 8.435962242104056 6.524456545812507 9.085651301264722 0.25862546722153523 0.08474793107135727 0.29878327038734354
Ni 3.010756639383359 8.263186221437222 3.0843328607440474 1.3603701684157348 -0.3513787850958723 -0.32045021383781586
P 6.603042005005408 1.9715578016577389 8.299886668160635 0.9220770407248055 -0.612158579656249 -1.2102421692766705
Ni 5.5572247680182425 1.207761480776575 12.789005523398432 -2.1246858618259346 1.6974639043475024 -0.15851005255517217
P 7.154581396448721 7.113613413225043 12.512054429639381 0.21547104332124828 -0.3830812584054757 0.20068951413669953
P 2.019043209951732 0.060209992283386374 1.37444967565942 -1.140108131463746 -0.017426423006563538 0.044087477237517624
P 4.523873253912045 6.600774675438693 8.117666806772196 0.2455015282450675 -0.11093127433494444 -0.2225408056838361
Ni 3.977859904570603 0.38672197293980737 9.290939175613302 -0.4593278368740412 0.6699608353766977 0.8008819225700078
