# total energy = -381165.0083247846 ev
CRYSTAL
PRIMVEC
9.26373017574253 0.00000000000000 0.00000000000000

0.00000000000000 9.26373017574253 0.00000000000000

0.00000000000000 0.00000000000000 13.55840550440374

PRIMCOORD
 96 1
Ni 1.5327397391762796 1.5481916411015408 9.583745729777853 -1.7365824676155186 0.14385116499141676 0.841271639240964
Ni 9.249436235366083 1.907791118880194 0.8624393833267024 -0.29017187456924864 0.46207274660903 -0.5773818382966959
Ni 5.372982026651923 5.9073695652973806 7.414821173852809 0.03208711034253184 0.8548120969295602 1.4345675776647553
Ni 0.80869585273953 6.522647995796185 12.092253621701023 0.006827821555110822 0.24656236540941404 0.31579343179209485
Ni 8.934580574313456 4.047444140210847 2.000678541305011 -0.6205768856269313 0.4556982105412539 1.1906475349741947
Ni 4.9363546325012395 8.83389309108464 3.51639988178411 -2.3629973000804663 0.5057267358535549 -0.6899095105844827
Ni 0.31385239907510515 0.8202134484611592 7.6430628105524345 -1.9041312333341918 -0.13150138517681223 -0.956196608116334
Ni 6.663780924951674 1.0685805389573242 3.7619285653558747 0.7494230925690836 -1.635341681095461 -0.2670059779757466
Ni 8.865352718745424 3.4241711105744526 10.116875253866084 -0.3228408255571795 -0.09867996777141715 -0.8516077310596495
Ni 7.399552693784934 4.858372551921593 8.651957136017877 -0.15331590994874242 -0.3986860548222682 -0.3561088435816899
Ni 0.822427479972033 8.69774404876116 10.939572308386094 -0.09495032552565583 0.6295618627343609 -1.1706330395254807
Ni 0.5013373285143099 5.749821306278845 6.435239143394509 -0.10370698867236335 -0.5838594756012396 -0.5349419239649303
Ni 5.713303681944684 7.611923707955567 1.3026926014663236 -0.10787294712459486 0.49711945380051803 0.7402951621258863
Ni 6.492262960835239 8.673880679840613 7.4503299779713466 -0.9906753586194939 0.07974559276075943 -0.7355229375482236
Ni 1.2407377004555593 4.166501600368796 0.5360670529254637 0.9938784389378237 1.1896556033745704 -0.36070006249679815
Ni 0.8465298531309927 7.105438524585222 4.034330403780751 -0.19035033699422055 0.07345333199414446 0.858792935954179
Ni 8.722950658556506 6.742995081644065 1.933902795113248 0.03897226749813933 0.2407359885356241 0.15437006224486965
Ni 4.111197131247806 7.980240355825151 7.932440434515705 -0.2574864685210856 -0.02062436111857093 0.5853843968861983
Ni 1.3755527656344129 1.5529439346792742 12.433844408027214 0.32135369948869175 0.4523580904244274 -0.8811900727024566
Ni 6.681900781166188 7.539685140081954 3.835970781493786 1.180001368114258 -0.9242655637356921 -0.3990719774067772
Ni 4.725280540554548 3.8394548704111067 2.021476541911968 1.977194271868453 0.10056432927832358 0.6328541603323875
Ni 6.223957543891988 2.1218481319419524 9.331273880442907 -0.19518246827554128 1.276699529568956 -0.7770480533752038
Ni 3.330635227037664 2.8670040594384565 9.721485354571696 1.7056976051112043 1.9887722065140394 -1.2566670363981132
Ni 5.449833932150704 4.324198079070068 9.976640906537185 -0.2155394346653385 0.8026343864847403 -0.9333747251258119
P 7.8940876652346645 2.003967165515723 8.119328779731894 0.6555204915816517 0.9130658383651308 -1.084932771843183
Ni -0.09049552729465984 3.6120951408237634 12.384993053343356 1.462203851324785 -0.856793389025647 -0.26582712717629703
P 2.500123289745382 3.5220702110217914 12.246114916111495 -0.6118636741236495 0.8220097056875586 -1.6889844061215817
Ni 2.530971511214878 0.19576763058511365 5.1250234666563 0.06010339304979971 -1.046392963896772 -0.3664940434707559
P 8.98547550787304 2.263722159511123 3.0463433909382833 -1.0214018411690733 0.0980922135887472 -0.3936595481419543
P 3.841196451683258 0.4132170216354995 1.6470754760660593 0.591862291301058 0.31053681137884587 0.43993734816257135
P 8.94769801623562 7.393160719966931 9.444731415712475 1.030517430317096 0.773369833192668 1.4830871225316973
Ni 7.975525117168101 5.115033460039872 0.07822201119107551 2.292183205481381 0.10566668350189545 -0.1473308960099011
Ni 6.028604002045519 1.6970227300291476 11.502056740640255 -0.3491725214731728 -0.931277476277151 -0.3106088022673618
Ni 1.9457353576606917 4.589066652119871 10.243009277501676 -0.6616921676100024 -0.8921943942327601 3.415720319960324
Ni 3.3378146179202046 7.253611888670687 0.5987482303816362 -0.5611178110293498 0.22820597438941342 1.0220507876069818
Ni 0.22797113577863035 3.5922059121465835 5.395540135991374 1.5681615837045382 -1.8830687562369375 -1.264978384477286
Ni 4.193690648420739 4.825625265767037 5.2589390236355475 0.9099499184439683 0.13312812214695782 0.3700876743592852
Ni 6.109226245723906 1.805260153347345 1.6906520627905373 -0.20764177708481657 0.882426516212719 -0.6848968878612398
Ni 3.0357984868846115 8.95986129395017 9.64630369962275 0.4628952425103254 2.241043706493089 1.1893696967030354
Ni 2.235273244155921 1.7345593646821205 2.6388995259453636 -0.5381614593434926 -0.12059065180157942 1.7355663676461786
Ni 3.4818193034287095 4.848590052860996 0.5296982384328875 0.5917347645842583 2.0555717806370923 -1.8761527458433946
Ni 3.1026918824495464 8.768713485601344 12.32164859280694 -1.0267965298220831 -0.8231114233921695 -0.3039110785322121
Ni 1.7141606308455348 0.3026330954649829 0.9255994956327166 1.63170099901908 -1.2445653680385727 -0.3966512837804266
Ni 2.010683369889713 4.758518804408169 4.7011198058955115 -0.4752617344954783 2.0669589394281114 -2.287292710158299
Ni 7.930345905124037 0.006894994366290162 9.221369912066944 0.5853208906381145 0.6631271002843161 0.6581792693607375
Ni 4.7283468352411555 6.635665503882628 10.035145068059244 -1.5023721960135545 0.12068372573601797 -0.3050228235391521
Ni 6.913540354092543 5.101619578752235 2.3111793228042417 -1.538043681273235 0.7978739889816193 0.3707705593589227
Ni 0.10844956273911364 8.596445159341057 5.725050091801537 0.031232732762036537 -0.5002896239983836 1.282000115846263
Ni 4.724993364919247 3.6970806014127007 12.017465675284345 -2.206369037929039 -0.5794400063773053 1.3765526917128679
Ni 3.185602267480175 5.190468014822487 8.519519144000908 0.8917110268384384 -0.5521559738503716 -0.8480524096082233
Ni 2.8897279895479686 2.631705313094549 5.201573374551506 -0.14732395403136564 -1.5318938596217553 -0.34858039641512867
Ni 0.25668592018974096 3.516521236649351 7.869352579305024 0.503017821562824 -0.6489423241435017 -0.643302352248905
Ni 4.773405618792998 7.630766135123422 5.87845005244949 0.46929523249939825 -0.15208537997575097 -2.38022112015792
Ni 1.2359112970364579 7.741430655746427 7.846832451259274 -0.02004997667233966 0.976589312840073 0.14197760211778773
Ni 0.4228374054181038 1.2015984404829998 4.585344485337155 0.9835850274316157 0.5888101347382956 1.5337975044023713
Ni 7.152794713219476 3.282982599037937 3.921280472638709 0.15457909293188216 0.6516224420788261 -1.5900928365599905
P 4.289218233944297 1.2494641342766601 8.73894819418884 -0.1502907499691734 -0.02059325077031937 -1.56316258782805
Ni 6.438931666240678 5.125723804657229 5.520752418474948 -0.19073420269620053 2.751305611212836 -1.0544194337456745
P 7.383452330747701 1.7387002520685666 13.228963337828096 -0.4831002567032906 0.5152974102611255 -0.20890007497194993
Ni 5.205521576350395 3.571214299579052 7.348302959359802 -0.1931690373899383 -0.6509971497900015 0.1929936881543386
P 6.02007210655801 4.860419836289388 0.4061432372769087 -2.878984280209448 -1.1654730925910959 0.8808373173487282
P 4.941986980445218 7.770666988166166 12.796490726659115 0.8654896312480643 -0.07328595317834476 -0.6868308716591591
P 2.098466476990298 3.8213905965776176 6.639672993554612 -0.21976529982122794 1.5466846447776847 2.044995547783143
Ni 7.004889997308972 3.715098556595334 11.844799008626703 0.343006501871777 -0.06144036669366838 -0.057253582305830435
Ni 5.63007833008824 9.105144374222276 9.66651901160195 -1.046588624847346 -0.7666284007037765 0.9909530377609126
Ni 8.464288784721285 5.282123361134559 4.048675289950575 0.7037664710722331 0.32949406920763896 0.2663068950261929
Ni 3.057920274533007 6.300837240581283 12.009981507679177 1.5083921769553894 -1.078304210783072 -0.2675040006580877
Ni 2.424077328771479 0.7263079420905468 7.521430959779959 2.682606506074225 -0.17605757452063225 -0.8374265544632611
Ni 5.830878945275268 5.839160720048161 12.160384651616805 -0.44279692909855356 1.0496747199718373 -1.6643884619497724
Ni 6.891325929142438 7.0343857141734984 9.859171249730547 0.4727369111910955 -0.05742250378352692 -0.21648354374616263
Ni 4.488647817066015 2.2048233630837784 3.54576683279926 0.24942374611760912 -1.177180353725695 0.13332018355310588
Ni 8.312502565869124 5.5838615802650216 11.175624195992906 -0.9087782667333704 -0.08559279557015582 -1.0934536648300008
Ni 0.4860114133193745 5.560026002534987 8.955055270737445 -0.2639517645304551 0.18430798745488255 -0.9548154114980912
Ni 8.150785628273628 7.00869739040926 7.422738884029981 -1.3269957067203468 0.052356659224845316 0.8426960303923163
Ni 3.032917466801424 2.553945562039008 0.44018188741730446 1.0906465343985088 -2.380611156507487 0.8487018702667641
Ni 7.561742081619153 3.482690094064785 6.173101517999123 -0.9378751840993268 -1.6892713412343812 3.8385392632750537
Ni 3.4786325802498785 1.3789988732580323 11.323221356061733 1.1233933898122266 1.1755808704490593 0.5839651479411685
Ni 7.366332957391657 7.226293148396348 13.321418144053927 0.538872369367588 0.8572564447049946 -0.43095622770988357
Ni 4.674431925645821 6.194026431709423 2.9703891408930736 0.5074429472137132 -0.36326499501049697 -0.3033348943137679
Ni 7.413911475550016 1.0697477689588726 5.848730153314824 0.48117398621485513 -0.26490127292791793 1.5839180752078463
Ni 2.261332117127 7.082844286698104 9.937524805890053 -0.9658562426932851 -3.2005174426987977 0.22673864581526756
Ni 8.495526082857964 1.393672621848928 11.322556220235453 2.0143071175603504 3.571039119271708 -0.8473782663593341
Ni 9.386659870389401 8.914098466905331 13.10197519827074 -0.39775017327156015 -1.4956886133457918 0.4797598794761479
Ni -0.11216061304562425 0.11126573671110372 2.520304325922949 0.7107647567669373 -0.9047190090623322 0.9242444806897696
Ni 5.023832036506181 0.9254633187992025 13.34004750542785 -0.730803163475051 -1.3323775398575504 0.8466709558796645
Ni 7.552608043670527 0.060952565406260074 0.9837803529718074 -1.2021645344748586 -0.9959430347763364 -0.22916396742730857
Ni 4.530751470693301 1.080049036909047 6.197425294309169 0.8100926425349984 -0.7195592151301156 0.6499085447115129
Ni 2.1809414667028886 6.029456265221253 2.4308861704471787 -1.0493235072800056 -3.919731358674353 -1.2608432792629898
P 5.585612425267344 2.741906647209003 5.31275295857202 -0.1201273390119157 0.12148256748822948 0.4837615444363733
Ni 2.539281077178283 8.074183843489465 2.7005227854160054 0.1977178331028853 4.8323665372599685 -0.4118853271213616
P 1.101809539080773 7.008400951043789 0.5733683888320927 0.11488820210016341 0.5815899628407726 0.3346522163698108
Ni 2.7291968094143635 6.434438757107732 6.640853192778399 0.878283697688939 0.10930042359974079 -1.540918431717869
P 8.094869752961351 6.954180338352808 5.296306132026391 -0.08048761313310655 -0.1818862653872674 -0.2667745786912309
P 2.566358960468174 3.818398411732378 2.355434014577238 0.13152941020127026 0.5562028902262356 0.7576508797955145
P 3.271338090212965 7.022907952491605 4.272904805113131 -0.16773311381533693 -0.5542054001802327 3.0696315796187976
Ni 7.55318239494113 8.923871702235758 11.689148887920208 -3.1346205828956726 -3.7913345805647927 0.07692483548251268
