# total energy = -381162.8392031979 ev
CRYSTAL
PRIMVEC
9.30391613146807 0.00000000000000 0.00000000000000

0.00000000000000 9.30391613146807 0.00000000000000

0.00000000000000 0.00000000000000 13.61722171266124

PRIMCOORD
 96 1
Ni 4.506584258357694 4.391987926362459 5.72843775942709 0.1430788056017665 0.8115373454013249 -0.5358238123492515
Ni 7.162098627258223 2.8867631983022966 7.321762197424419 0.9867163739717458 0.046412268715952325 0.15303925924858802
Ni 0.9396396812151265 0.7741285999131841 7.685940725079162 2.135372137895187 1.5031319569977146 -2.7653397207083987
Ni 6.876812654377662 8.77088524307019 11.020526515654497 1.084911945907577 2.6675825218615667 -1.6984962022667587
Ni 6.45817365507121 7.831608414574704 0.8175871910270706 0.23861405709661487 -0.6437137287547107 0.04140221709587063
Ni 8.920231700907934 2.0060824320708353 1.225751841826562 0.9350621401305638 0.8524865341201769 0.3045170875473272
Ni 6.289158719045764 0.966360527646101 9.206780215174527 -0.46068692200509687 0.11119249841613107 -0.9519725427326573
Ni 2.4468461433594797 6.8926293113876405 11.599421744569224 -0.07129874754498688 -0.5563926376395385 -1.8142827478114756
Ni 8.71650385470353 5.566942248222505 4.285870252916162 0.23298951182098582 0.594959185058827 -0.08451396068368026
Ni 6.677085492005193 7.399850893865858 3.5828403174375945 -0.09943612921115133 -0.7685199612995345 -1.0600460359038324
Ni 2.362859694636497 4.296436710190416 6.805192970653304 0.24856448344110738 -1.2805942366376721 0.6400823026497106
Ni 8.50830082495689 9.06171634982013 0.9632427854319576 -0.7131144879460363 -0.5947370417456919 -0.18220893883400877
Ni 3.336133031787547 4.54920549704164 11.095093679932244 -0.87608206205193 -0.523206380695557 1.2479916201113024
Ni 9.190715143610333 6.1753067003215865 8.989885467205111 0.013054262080796871 -1.5284074437350514 0.5148361543539908
Ni 1.2387977926850273 3.4378248324458176 10.427809389296227 0.5017276419964908 -0.9052219168406797 -1.6291414658220202
Ni 2.002565551865087 5.292811670491922 4.790497903644742 -0.08147517385735645 0.1060675184847399 -1.9493577092721588
Ni 5.7693396344548935 5.273571172435078 7.505962054571033 1.088201672402442 0.35574426115341956 -0.8357715353583414
Ni 4.606433883670095 2.6963213439862734 12.559272322268335 1.4124895148187933 -0.8925556342269209 -0.4997810597930812
Ni 6.341390902842244 2.4415708230508577 11.026081883831356 1.352561213894277 -0.6980550225097527 -0.4754689654102779
Ni 3.3069373437303056 6.5258317314103635 7.2156296377127 -0.28262594390119067 -0.4529669276530198 -0.4872353619175867
Ni 3.9895470446174017 4.533025987312022 8.724799226109468 -2.178828923527241 0.5645769732225437 0.030261112877386594
Ni 8.615267945923781 1.6111218986999087 5.503318349812485 0.7515802481214023 -0.14591833193309064 0.2425756128475242
Ni 1.2672119518076583 2.1585829173946873 3.1765299370746263 0.7287771341839577 -1.286591334761371 0.23029962369364854
Ni 4.644896271952007 8.556699795407422 2.025956526799667 -0.5501517989361493 1.3611988349646171 0.2868708352204737
P 1.6155598665785909 5.587801627643898 10.184497102553792 -0.6773175328520851 -0.4078942036840975 -1.1110245838342285
Ni 8.447555558122687 4.195842771606956 10.997049944693746 -1.3159412486783981 -0.5555482873613723 -1.3126065278782102
P 7.898661736381121 4.8689066547927355 6.618746217819684 -1.1045140364092203 0.11925702059182042 1.2955667987871042
Ni 4.927204991748337 8.884467448233607 4.658015723745989 -0.07114345291404522 -0.5957446570745998 0.11227493284703244
P 7.649372614072092 0.9182155540993169 12.769140752958966 -0.05470433352141546 -0.9579953518879696 -0.1938552648236855
P 5.868444946496238 3.6755212755581215 9.15926976869132 1.4034649427226797 -0.21969150916049904 1.47042803900679
P -0.216144852348826 9.090577096905397 8.891827776092779 -0.5738458001189795 -3.1577042041880135 2.4657673787608565
Ni 0.5314713088492797 7.263083330308989 12.704445043438623 -0.21855559578384293 -1.7238169404197343 2.57675650291693
Ni 3.4600053679233396 1.1607100266351773 0.4373826682548649 0.2637309067689006 -0.20439241690958346 -0.09123379590601706
Ni 1.0130847932367535 4.793265818621488 12.366425405695207 -0.09055836710554725 -0.1354552276182377 0.8672721770697838
Ni 4.508165924058691 6.3437168818142995 10.424704672564328 2.7982310721197807 -0.20141919321387244 0.546250149888898
Ni 8.876428864906183 6.600960852207758 1.3247566715763137 -1.8264929167244222 -0.6388898250035061 -1.6248389817919242
Ni 6.331389193262405 5.328054903876508 0.370866182395197 -0.26898598452025285 -0.39010911178653457 0.3595024426442712
Ni 4.223438186131423 6.4362908449021115 1.415523814198633 0.9242077139145631 -0.30552521709686736 -1.354364842761919
Ni 4.261491202114253 1.878944421458277 2.57861192173484 -1.1491211335956337 -0.8226044018487638 -1.73061390873691
Ni 8.161869516858932 7.074762768815481 11.068907808664843 3.10226916314816 -1.8969303447103785 -1.0230578887152573
Ni 7.40062311888458 7.712164742401705 8.543458462315305 2.929528311705587 -1.2432515343231556 -0.8308329604061433
Ni 3.8095441839279642 0.7326703507152653 8.860304248280306 -0.12347388688664541 -0.6044349857597462 0.37252045217049395
Ni 0.48032303125377745 5.590267165354279 6.466872816426698 0.5241047241401102 1.3112690400137093 0.8701160742764821
Ni 6.747255625634167 6.945857014184161 6.014821594382462 0.031984780436712656 0.39499266513108106 0.045236760350612415
Ni 5.825795796064626 1.0657728689117567 0.6868243747844609 0.7237395717600503 -1.1816170493408102 -1.313493301358538
Ni 3.326094106544155 7.657615883549058 9.254113887255858 -1.3124082958244754 1.6798659887600809 -0.8475435882926048
Ni 5.95154752320984 4.621710913558556 11.746623649794733 0.010018303467950488 -1.6788660867406568 -1.3439763004387433
Ni 5.295509806099505 8.654781676701063 12.39142595807845 -2.79132020393256 2.087371955866825 1.7638220200577621
Ni 0.3408526801313805 4.031414666114403 2.8207668013407807 -0.6875392105800934 2.633979746205457 -1.3329958901678398
Ni 6.307831678233426 6.757741138840193 12.072211395128308 -0.6430712100747054 0.10420424002375603 1.4076337293883885
Ni 7.107224131349489 5.079528702670313 2.4665006656733497 1.1074723477065957 -0.673886138573033 0.8799705984730586
Ni 9.485714404678198 0.11464936431579736 3.600080473578471 -0.6606943224731073 -0.8472054882268959 -0.7032627919629372
Ni 2.933785189201372 0.4062833990068929 3.3206410814420684 -1.2065366954006251 -2.132535182667024 0.2279087548639688
Ni 1.164971220111983 7.620623513977486 7.882641323613192 0.7031972288323244 0.8702325452496884 -1.045134923119955
Ni 5.628803984963295 3.113871785133804 3.503479775694236 1.5727921404980136 1.5557249006030818 1.4832110497040714
Ni 1.9320139576846973 7.569852044975456 5.2689117713582565 0.8013336653954457 1.0153970297358899 0.9167425158857695
P 2.0280582813988164 8.319766273397953 1.8446706561092436 0.759637314097924 1.1143739599224356 -1.1329782052871844
Ni 1.0342046823030184 6.81663492641264 2.8720350994512405 0.9408980300860506 -0.4152563004761235 1.8326280830878825
P 8.188804353355335 5.226642220694885 12.761310577347437 -0.6733006983832082 1.3712474774498706 1.0035326741981363
Ni 6.23092550950138 1.6640332683562293 5.0820426207433105 2.5115055042279195 -0.4863195349715366 1.593540943009591
P 5.586573510746654 8.101254504847162 9.038185816147228 -4.324296240874902 1.0129429117684428 1.4857644122535443
P 4.560388803939283 6.785131867215119 5.533930093867914 0.373746354157795 -0.17787020224933883 -0.6170066517771696
P 1.4405904243846817 3.472295840811681 0.6878980466779618 -0.24227762199113112 -0.3090319446985452 -0.32139792246306587
Ni 9.04078253907163 7.659495274558478 5.359234186801118 -1.3480039335408978 0.793720114714246 -0.056065475535000214
Ni 6.817174553534157 4.462325530477419 4.9036837619913225 -0.7899004838578397 -0.061606974178519694 -0.15444411001591465
Ni 8.633103552681504 1.7297933458541848 9.250001556433263 -0.8472905917415344 2.1278560320238 1.0464094189570043
Ni 2.595048219542974 4.581490085173771 2.232448566414462 -0.7578241721485852 0.6492138326373336 2.387084680046973
Ni 1.27447831011636 0.5023947109154073 0.2287367721119461 0.3933343035920516 -0.8371715010296614 0.15509357067445548
Ni 8.049571252088088 2.4857272078563613 3.343381712656061 -0.15248184408322127 0.8348911896359169 0.7586626088894804
Ni 3.2429077945875595 7.937598624373331 13.282401507240229 0.2244377655962328 2.2697567581570652 2.312194615606302
Ni 5.418060986179171 9.319081271120137 7.049118385452774 0.032939688150814245 0.026100810852109888 0.20230725224578064
Ni 2.293517609521576 5.907335314909007 0.3612440725835974 -0.8900436664383445 -0.32893254027721414 -0.09339943609876818
Ni 3.0416268782617575 3.316604112338169 4.297172649937174 -0.7920967201782101 -0.4403356120422545 -1.081848990711537
Ni 6.852920198376707 5.764110833725712 9.574785443434095 -0.7726190710695726 -1.465862531123295 0.8472862208661601
Ni 7.213902830923846 2.9298124171171014 13.42152854386635 -0.16409911660717544 1.3119750649417985 -0.860174389682738
Ni 3.463438512886093 6.983798383176332 3.621731616241953 -0.01950953078783737 0.5001482133245128 -0.18800369113891494
Ni 0.1984571778537265 2.2096707195369163 12.406064739336978 -1.2548839763557613 0.5147338244481716 -0.3704579132145104
Ni 4.178435144980091 1.8774930105797143 5.487917577842711 -1.9491985579864752 -1.3822481994357485 0.6662826151941622
Ni 3.8749414087062792 3.8062412937876453 0.6502646373016913 0.19360458226546012 0.6148433255772636 -0.021575412177930586
Ni 1.8251119641290225 0.8657228606579666 5.22480562769855 -0.8736228018781599 1.2330134015349152 0.8898595754519965
Ni 4.937122966085181 2.6178986369644477 7.559722871747948 -1.7069510179023313 -0.8674259290388286 -0.002409380772441012
Ni 4.068537290508409 2.5979324334683223 10.244044955413182 0.19761576030738223 -0.755536404555673 -0.6715559477779596
Ni 3.1013487143482568 9.103872392709667 6.801039702600803 -0.1767175767021344 -0.5527920647724738 0.15379722046053512
Ni 0.06425563429882991 3.7645225349448563 8.152290205060417 0.17516591594429834 0.16569782855286302 -0.28611107423631366
Ni 1.4225222197297538 0.9362995754112546 10.243336927414088 0.9623253467218911 -0.3573301175833007 -0.4518744659197895
Ni 7.729395594626692 0.279107242339193 7.298708024244992 0.28260331819337137 1.1211758133356176 -1.7800899039798503
Ni 9.346248705513746 9.055882794558215 11.750286601479926 -1.1781730566562676 2.363453156670962 -0.699383511513189
Ni 2.265577950109244 2.565396639607209 8.356956816377945 0.5049181239093303 0.19915456554941185 0.506392908682644
P 4.275633154264351 5.672569605301494 12.714985449748392 -0.1722366581126453 0.7617322489537397 1.0195845854546763
Ni 4.876052062194891 5.205903792180037 3.1122836066916846 0.005037048203275197 -0.3717534920974823 1.6307244940384238
P 0.919392499459177 3.0601044552157672 5.568531357056213 1.4227533586386465 0.06095159998270793 -0.3072797378941289
Ni 2.4160967013489048 2.1739343786102543 12.114316266480458 0.8128851176784709 -0.4532605476340387 0.34166901400727606
P 7.3704412157431864 9.079626387904959 4.683207936796529 0.7237570552615471 0.11920045632227215 0.904996431093435
P 3.155143956013958 9.122508136233776 11.234820819133155 -0.03727559652200677 0.14656702126068308 -0.09765358338943181
P 5.8111514324565645 3.0532288613743708 1.4421451087296036 0.3504135929691255 1.4807319920359596 -0.6587189439142914
Ni 6.630993892694939 0.7937207859906026 2.8888937950406994 -0.4046271028970515 -1.4255345209282095 -0.40996291328766815
