# total energy = -340874.7453983558 ev
CRYSTAL
PRIMVEC
9.16562716975313 0.00000000000000 0.00000000000000
0.00000000000000 9.16562716975313 0.00000000000000
0.00000000000000 0.00000000000000 13.41482183872348
PRIMCOORD
 96 1
Ni 1.8665066271205302 1.0381355840847162 0.7604610789730892 0.3690607757566676 0.4670061793549054 -0.6459665293446295
Ni 5.950902526218348 6.520399598381786 4.511069587494128 1.9374923252931406 0.022349571339793765 -0.9911777521772089
Ni 6.8375761230255545 4.927954386183184 2.4902064680684175 0.47804212545409286 0.6690740618963703 0.433838177243369
Ni 4.1907538355800105 2.9358969995027535 8.40661232369576 -1.162699643611017 -0.5027306293397082 0.4700717056541066
Ni 2.0272075664812923 1.6560638296686916 5.410009543004723 -0.8145527351888809 -0.08627516634916109 -0.8221380037353067
Ni 1.6825799887727058 2.279078998274695 11.857347178349581 0.11151620030413698 -1.48911121723859 -0.7472150291741713
Ni 0.9157634639915544 7.350108822969342 6.648587308848781 2.8476551310788634 -1.499881825491533 1.3961879494452925
Ni 6.1629218115256625 2.6902856909959185 7.218033053500647 -2.1555041327583715 0.8544765679670123 -1.3082145694581018
Ni 7.058146938386115 4.551357101265886 5.493020794222571 -0.1347594871027937 0.40840173944813535 0.6184845218742767
Ni 1.33387370701943 8.21857031879498 1.805729354041125 -0.41589213428790955 -0.9558762486624377 -0.06786941014846376
Ni 5.379902291215967 5.04399122484783 8.25570943966932 0.4440559983166352 0.42178356007168 -0.01479361336940678
Ni 2.8252403839262707 4.966908301216733 7.70046950040816 -0.34657313617711283 -0.12754651429412225 1.101680166504851
Ni 2.555541807488102 3.52947217397046 1.082644785683404 -0.6191051861774113 0.8920920643269411 0.7930099760210988
Ni 1.371498606128306 8.337063545513507 10.304340742856358 1.3616436358115196 -0.7384061726332897 -1.3167588594836872
Ni 6.924200464433103 0.09435646440103225 9.764581547710884 -0.4410310954473824 -0.48010774973386994 -0.025554965650968892
Ni 3.051484722441131 5.716564939003576 5.5572241786995145 0.14584505549299398 1.318386110674465 -0.7147170565464659
Ni 2.8484110891509333 3.704315675895167 3.672817081917685 -1.585423198998463 -0.0808917905500607 -0.5391269085805553
Ni 8.24210764910231 8.528487666801906 6.930486251475458 0.15467705196232717 -0.7052569395748306 1.0831700235158055
Ni 6.417029656323345 6.627279975606783 11.168522807404544 -2.110833015103242 0.678888991104263 -0.22913259996874089
Ni 9.324650696325275 5.278310480808468 4.1056729857704966 0.45192434532111847 -0.13832535007718114 -0.06996820165902144
Ni 5.78013772833833 0.6919700141543345 2.658200496886167 0.24877711367254576 -0.11587653415536171 -0.9005607639195845
Ni 6.960817144564641 0.9754976887107671 6.076873988060609 -0.6912104887840935 0.12667208210896894 -2.099250452471965
Ni 5.071808902995318 8.653305176196469 4.970191428832032 0.375417828322947 -0.014167035529001407 0.04575535185824378
Ni 3.874649689303049 1.9866038385757325 12.871521063593777 0.2612279378413888 -1.097083291162788 1.6059742836769373
P 8.985623316754452 3.834449248988425 2.57616905120175 0.510689736285785 -0.6132942359225889 0.30823593115981107
P 9.213288327464655 1.1914123655214364 6.2504617990771765 -0.647565241290317 0.4704535144735576 0.26820334071795743
P 5.521282088720088 0.7312566414504067 8.111929164436425 0.7602356098035552 1.0451817171974902 0.3884376376213826
P 5.998297983780345 4.51867247514597 0.3791939070652989 -0.8748181077378417 1.4854944464216093 0.26990309701788356
P 5.069050049248236 7.234016990542296 9.56040803917268 0.4027034035117774 -0.0626151037280599 -0.12486253970405593
P 7.507390983434218 3.97048548591265 8.028488961871854 2.1377046426831057 0.9322964044599685 0.31611996189357816
P 1.9186223826218871 3.941274632451021 5.640167604277071 -0.6325314868856462 -0.9565737889500945 -0.6115111758802372
P 0.421105569953279 4.703918963791402 11.098028136509006 0.6398100228249305 0.6736040885562399 -0.8453990311457763
Ni 7.697165291850609 8.733440253640781 4.197081784506872 -1.471073385900273 -0.6476853118079491 0.6650068338055322
Ni 3.5913401566708045 7.616599429934159 0.7301650152667605 -1.0511531042895768 1.1474203488544432 -0.9421064485718549
Ni 3.9040621865601466 1.7012778679888099 10.648484375455823 0.13492352348448378 0.44475508126618885 -1.0951549637918236
Ni 1.600098510799313 0.5360205358649591 7.616278632986824 -0.2419145822247576 -1.7038988613395687 0.8240663311062711
Ni 3.8113702000344305 1.1672151100653017 6.804305813336075 1.0593492669471238 -0.7236624386652117 -0.42522138210863547
Ni 0.5365228122282153 5.673724798093737 1.5646779449999821 1.6148124507938577 -1.1349227306080647 -0.5921021752260061
Ni 6.4294582466258134 2.693530322977537 9.623551877160713 -0.4159319863869095 -0.6527946080100564 0.917770957150284
Ni 0.28002365532882645 4.662719470126506 6.628799636574444 -1.9121803288909136 1.4836231975408256 0.05303131669436673
Ni 5.478020328965181 -0.30036034866445976 0.21730785212481046 -1.1406107821317775 2.2521601281212247 0.9882083851362401
Ni 0.5105950863818842 5.598218362318117 8.818058239283426 0.9709884217135276 0.19009502645030488 1.3326984135320792
Ni 5.96798725507071 7.923519617890269 7.202578889703454 -0.062224553157860574 0.8241632616954517 0.8253343991854174
Ni 5.456141977156926 3.05729573000143 2.7063997799419157 -0.26648841490937974 -0.1768240203730116 -0.4234707179661159
Ni 7.591403121127753 6.183681956831778 7.753230516055014 0.28072821265784553 0.24178474151511262 -0.7551687368036091
Ni 7.760023162274158 5.225983915884577 12.353588892744988 -0.5156753624258346 0.3390986821769386 2.176848916982735
Ni 8.825893933862762 2.868685456222513 4.815076022605728 0.4039411325736204 -0.1988367771986769 0.20438136116598996
Ni 2.4357745586073016 3.7705190001980697 10.056541599168698 -1.7290843594662608 -0.1363725972261845 -1.3252417001437176
Ni 7.787465049711912 3.4955501881965376 0.7934894161080067 1.7735814134373715 -0.1740729399904357 0.15679281275374934
Ni 0.5734593727443811 8.556506988744863 12.547231095783532 0.4441938094460801 0.8484941251313323 1.383616797648501
Ni 0.7752168219877983 7.745330662086211 4.347917759455726 -0.06043455113697334 0.9990227021429247 -0.8253541966797592
Ni 3.0411092326016065 4.000053798829882 12.271986398407291 0.4853011210093513 2.045127959595949 0.012771183622739296
Ni 1.3259729364879194 2.7871755347181923 7.543771190387433 0.7247816398713195 0.49595448695813943 0.6786992436909601
Ni 2.383924606290879 6.457074280977834 3.422765027097026 0.9802225387172859 -0.6079882503286432 -1.3786226868680194
Ni 7.69132678740911 2.039232869192826 2.7661633346677417 0.7458865401707347 -0.18298232666492356 0.7826625713485037
Ni 1.4999457038412884 6.24399178293078 12.560150047134071 0.5236848629938723 -0.2190711019676808 0.4887985926396484
P 2.735197263622836 8.120131484098431 12.275568325464965 0.24585736892258953 0.08985465617030332 -1.1839914631102577
P 4.415962458236332 4.280943605916513 10.125547772228602 0.6426811737251383 0.34709249901569256 0.2454169389510612
P 8.409792796287912 6.643750607445674 5.482355670567738 -1.8373465716094743 0.1537141738284256 0.2646367064126216
P 2.8135908719244727 5.712642050619022 1.1888038280582487 -2.392893059198634 -1.2265578757175586 -0.4778981436770609
P -0.026776462912709156 1.9120964561503841 13.034364010000033 0.2937865885037005 -1.5458539213462732 0.9163725341408606
P 3.8240554278947676 1.9967410221115223 1.6795626643423422 0.2732146778896198 -2.000838907870586 0.9649090482886672
P 5.564562179729129 7.807427785463223 2.791772096692151 1.2938937819600556 -0.13211485039109505 -0.13566965762188893
P 6.093464689614075 1.1742909741608079 11.984546834218783 -0.3880727980827962 0.2368497661073405 -1.4027033819663068
Ni 8.111121672691848 1.7099302199397914 8.194095344838724 0.9326134214797552 -0.6897233627156056 -0.5089190175386075
Ni 4.374845455215036 5.9153948869618835 12.805279243657194 0.6547687010172918 -0.7143910406656149 -0.5409127968363846
Ni 7.343399583956505 4.917001461838455 9.994525133309871 0.7420170299129994 -0.6162366063803645 -0.47423406456191225
Ni 9.0361992469086 0.8774282287850076 10.862638335306976 -1.0437550120532928 0.3639581644227796 -0.06929457263076452
Ni 3.5940440166554866 7.781470729610278 6.82246933649419 -1.009560882670087 0.3572092757347203 -0.6407027098425289
Ni 4.689024819807986 4.624123014548558 4.126291980419785 2.4446161986045385 1.5294022035481531 0.6950072368223643
Ni 0.6276117305799626 4.023114516529743 13.147611748348275 0.857500956615633 0.01857570611965833 0.06012113366161259
Ni 5.5576329656666905 3.628442615036878 11.804265365755393 0.08286871177077341 -0.0004612559071346895 0.29597022641858056
Ni 6.3610460061998335 6.9235680361655 0.6323897719698426 0.9307686549615325 -1.6402638009874269 0.5406672564844817
Ni 8.033837105265285 3.033538424644498 11.634540866547447 -1.389055709275885 -0.7761522810338117 0.02877295836763432
Ni 8.311674758538699 7.189499539879248 2.3146205503513064 -1.753634280891483 1.3221180669130714 0.7651893542644048
Ni 4.837196346968544 8.549220315226822 11.388097319102954 -1.066307186322196 -0.08368169459037202 -0.637885809219024
Ni 3.6140892430503984 -0.01731570265444312 8.909561443978589 -0.26215507764134854 -1.0173757507288157 1.0971000033333362
Ni 7.771223558549688 0.7275766421831195 0.7589405014427208 1.3834543039287077 -1.4865002619783045 0.59416137174788
Ni 8.771330955934593 6.829418714936175 10.976033640250993 0.7764513003314693 -0.33310672625956184 0.02629184381699343
Ni 7.30127436195787 8.405686595362022 12.266835315995797 0.504901411738782 1.1721602748032847 -0.6927770619402649
Ni 3.9429794390854305 3.381163162403901 5.929002176905133 0.8927348401172626 -0.3698830145476469 0.9254701255667546
Ni 3.5696726142850843 8.682222729591961 2.6916971975641935 -0.5575015544330011 1.013899362144441 1.1357303141110247
Ni 2.931644148543797 6.337380357113568 10.465466050750308 0.8313435814939747 -0.3270975439510044 0.2817782511889147
Ni 4.066568754453052 1.393945226814698 4.181950250782428 -0.42168405837933826 1.7926960227796351 -0.1490136830289627
Ni 6.057379615852408 2.16865152337488 0.471073819032904 -2.098096284262864 0.07429074029377528 0.3505796862333446
Ni 0.13224533356942997 3.019111727641484 9.731325903024713 0.27420352416545035 0.497711321748246 -1.1741495373191713
Ni 1.4700474283496552 2.0814864099703945 2.918689451247698 -1.4118084295913684 -0.7636150677987494 -0.21416363736373437
Ni 4.602583790941771 6.047508235501553 2.131346504650632 1.2318124392482788 -1.3558275433503746 1.0145799331512333
P 0.028462938292985213 0.33110644465976435 2.9585177671034133 0.4834815513021092 0.20324570489964996 -0.8561539556694353
P 6.071201381469018 2.676583078531176 4.857439550908097 -0.4968176062893831 -0.08631861799258682 -0.32628096158698
P 2.4439869604590805 7.0432252975214995 8.472023737820098 -1.3888165966818855 0.1562693361501115 0.12001343914187074
P 2.8064783453207 8.635129737723167 4.874959647046128 -0.09715401804519397 0.3200655768048875 -0.24408819283730868
P 5.0981784120662645 6.1636092335556665 6.388258752960918 -0.6958474733354726 -1.1073149961931252 -0.04774127194002101
P 8.523153271849075 7.06681762159123 0.10921852868971504 0.408183195679426 -0.6434332213998145 0.5610129100203693
P 1.8057568509223252 1.2891546125609143 9.81338484559033 0.3822021982346321 1.0989702237728556 -0.6055899252997957
P 8.634964756435966 7.778693544609063 9.114096994785928 -0.5344539285849182 0.6139346977200651 -1.2547109411130069
