# total energy = -340891.510345425 ev
CRYSTAL
PRIMVEC
9.05307213398983 0.00000000000000 0.00000000000000

0.00000000000000 9.05307213398983 0.00000000000000

0.00000000000000 0.00000000000000 13.25008616665237

PRIMCOORD
 96 1
Ni 6.531203094166492 1.8719852025596941 11.290451095690848 0.038800003586333176 1.1079251189732984 0.03560977878380964
Ni 4.639753786521159 0.3412827132643806 6.194534731768227 -0.7602476939884133 -0.3530967962282435 -0.9838166838264477
Ni 2.8778539410969852 1.583183148449476 4.845861458541023 -0.5512362902495797 0.508818230294685 0.9476528323113808
Ni 3.4896967681238804 4.548263439546522 4.942228695473629 -0.19445381763963285 -0.5893906898321141 -0.4094633479434303
Ni 5.13310095240111 4.554446687813262 2.8934080243284437 0.30994622898269847 -0.2930314555052308 -0.5208630772743611
Ni 7.159585883980114 6.268093658769317 2.613645462742882 0.39508008263856476 -0.9813319697313808 -0.3411879606057995
Ni 4.921557815872679 4.532918482281333 11.276591747562659 1.4623285498281073 0.7174509105378611 0.2547310172631355
Ni 5.671804009666667 7.743509036549284 12.133435149799379 -0.27838825167075926 0.38010854893039697 0.21593024234585392
Ni 1.6696037750297132 6.378206175121237 0.5686035439059516 0.1058803421745983 0.13060381306320734 -0.5135547165384059
Ni 2.8871061808167635 1.5723375680343155 0.5734052933652181 -0.35818115272968637 -0.24687732554667158 -0.9879461326137888
Ni 0.6158614857466698 -0.2228839199892586 4.918193694268111 -0.4293330902841638 0.6777751892147941 -0.5127625596544136
Ni 8.493728071126872 2.0099087565037452 1.2898047663760994 0.9308668711022937 0.7135538894763002 0.7612717643775535
Ni 6.830271332075368 0.5272074662712573 4.518014409629013 -0.4526126296373947 0.12976100544693783 0.7511719569393902
Ni 0.8103812254364793 7.156453521022145 2.6688592443739534 -0.6881061388271569 0.5877099596955814 0.6963971751913556
Ni 7.527828646056137 3.8898063441075554 3.8665471911838236 0.5818992665510753 -0.47277804884167607 -0.8905684285935629
Ni 7.72437989513256 3.6944048351920054 12.77497748526532 -1.1811295681814304 0.9291920545030321 -0.2338426038499005
Ni 7.579059981255965 8.7488889091914 7.176856429687962 1.741453679664891 0.33949514628440886 -1.4771483884497594
Ni 7.071064944665054 0.430399344725782 0.04464250930153625 -1.1809115386333533 0.7381066391149997 0.32655015608796667
Ni 1.7298248108574668 6.646756506870258 9.360497261650055 1.2653529942078854 0.6544784234703825 -0.7893831779017889
Ni -0.04231315384175257 4.7265908544195065 1.6809454637977543 -0.5802059380090524 -0.6840108857118606 -0.4447309128964728
Ni 6.3805328146593805 1.8766837469966462 6.840940377583937 -0.06820185378721802 -0.3051480362631067 1.7253089515842286
Ni 3.2390715191979136 4.407777866188873 0.4102797972177243 -0.4772240004281717 -0.10935235988359876 0.7481277707964278
Ni 6.048131165157331 5.492290642344279 4.994513808269721 -0.23513741140192407 0.8946652243707559 -1.722262451448421
Ni 5.47593174100021 3.0995636776306124 9.292139324589291 -0.011781566015960355 -1.7130442752842627 -0.9085748924733126
P 0.09888399098553902 5.470364101638503 12.587237591295805 -0.2727307962746658 0.6359353703608726 0.047574664455169675
P 4.132917543163252 6.125390082739118 12.58116841173794 0.0660693808252475 0.19476106446740651 -0.13186673893603096
P 2.1792374176766716 8.388757699746414 1.4878651625770687 0.5156931030376474 0.44113008291909184 -0.14440575194330613
P 6.306161827087974 7.79476753096551 5.723189247092755 -2.1408948674856294 0.008271238869856723 0.60558632575537
P 4.9029718587839275 1.2312359162125919 12.552389600734806 -0.7434288226588616 -0.39717887414912245 0.28273830110933884
P 4.002326977646814 6.270257343009069 8.110563130254263 -0.8504916151773353 -0.3602187519850054 -0.040024105801421385
P 4.678410404528451 0.9649216932803864 3.6546120566320397 0.22069063984897477 -0.028603779779621707 0.3800972360764873
P 0.17446990083717484 5.428050042489538 3.9320289672279793 -0.3862971942396121 -0.10853320641641308 -2.048075729370363
Ni 1.6128862781173745 1.0580778055274678 2.7799341022935953 -0.7906882698664577 -0.6964311137530845 -1.080591978375984
Ni 1.7116734012310917 6.501210266190342 5.01744976651831 0.9703677574103934 0.5584909149294639 -0.85340416083844
Ni 5.972918241877569 5.531309383236885 8.972574026064416 0.444521367988828 1.4439091667806552 0.9230931406941457
Ni 8.59686066886436 2.4893413505154984 9.849226455435037 0.5259872858748039 0.05505965997830517 2.2495849111948805
Ni 2.3504038524925672 5.2653301239735955 6.923885529772372 0.19302685538511918 0.3165436796945581 1.484857841278875
Ni 0.6990275328951453 0.11637543165342881 9.248269042340686 0.6395953357109629 0.7985357909353344 -0.15090344385250787
Ni 1.7163447864516452 1.3968075524503833 11.36261132304741 -1.6424384400412424 -0.8929448992455397 0.8240354778683358
Ni 4.005758091985166 6.519397888105248 1.5342005963674488 0.41843418398347293 1.2662806482284772 -0.5435535768933413
Ni 5.492915304321446 7.864132169647448 7.937848620103649 -0.2574165345150986 0.2289333394737412 1.14136308691677
Ni 5.074183558960488 2.8062984589588966 5.0544044069646255 0.4056689138980046 -0.4045988207622774 -1.6832099655316495
Ni 0.9741920391444302 7.471409900524183 7.122796009446616 -1.3821111596372522 0.5693733661699226 0.6126476034775256
Ni 5.179018134258953 4.611580626043713 6.9544930613463425 -0.3552747777161688 0.12199627389985442 0.5613846915374912
Ni 8.221737571967367 7.4895794162948235 9.03545938102087 0.16505325299032866 -1.743364523534359 0.21765339568454775
Ni 4.624282086246108 0.2281274593686084 10.600426843031826 -0.6881066530477892 0.6838992998346609 -1.2469631788467879
Ni 7.961362164354314 7.117145081821288 4.780194094518143 2.04965258693918 -0.12294141142194312 -1.374722837592981
Ni 7.2744874754903135 6.181555342251353 6.932537550809742 0.44650240297459876 -0.3469248630895767 1.0756953124053152
Ni 2.1272727836340817 5.129325821321709 2.724628884633982 0.7773673843878354 -0.8515295695235463 0.2732347324942778
Ni 2.423797108273626 5.372636187964329 11.471672777724706 -0.9155752350505459 -0.43079450532103875 -0.03384625912548365
Ni 1.0218745700681793 3.050106744568824 3.875861897101318 -0.21832805315406914 1.5803534977850398 0.5349884609321496
Ni 3.6856867267280657 2.6852769906868867 2.665798400685835 -0.09582012972511886 0.13264912562801026 0.46695321462978284
Ni 1.075595500104543 3.488365966520351 8.132598307825633 0.0033236650565942757 0.08950010104436198 0.3603725039540503
Ni 3.8826725232668653 2.770040905066811 7.123816290675989 -1.7179203724296412 -0.6902370691272306 0.29893393703259485
Ni 4.260819346256232 6.822358947031253 5.99107960988329 -0.6773643269296205 0.7310062806247927 -0.8143637591065266
Ni 0.8478835767468326 7.373908313653331 11.635006494531256 0.24762294546344454 -1.0733630647277126 -0.922298155596676
P 0.15389679441526108 5.689068218224023 7.988105844741982 0.10037098232059488 -0.2361177730373224 -0.014936566705174275
P 8.614903441625142 1.575868266166129 7.9180658468789336 -0.0978513012225347 -0.2860899911903912 -0.3087262405326683
P 1.6749812998766291 3.5585544347663784 10.384158908157259 0.8057454213098962 -0.3328768696369428 0.017120718840686645
P 3.8890096737598636 6.206759095069223 3.632643871794453 -0.5452849577621512 0.35244450735622523 1.516887358910594
P 6.961903000887085 4.131568635415457 10.391167796602515 0.704178104688355 -0.79901093079954 0.2900098950700877
P 6.437042090912664 7.920777241982724 10.040955132986287 -0.6584178677341047 -0.8139886351552948 1.017116840640474
P 2.427056214241454 8.547557638028831 6.071984199612978 1.9000184967173988 -0.6535201733221713 -1.9920814733929306
P 6.782054669895781 3.77133784217701 1.6196769875242292 1.0865566805998512 1.1381132125209046 -0.04574840987970831
Ni 5.051668568566076 3.0005683338578395 0.592447525289466 0.6573665436514549 -0.16448298230915545 -0.6660417028279497
Ni 1.6384702599648238 1.0955394180132232 7.1266779667771845 -1.4355538528374245 2.62955847720931 -0.5278677907269683
Ni 6.943959811919766 0.8413707966544564 9.18319737046415 -1.3610579385113786 -0.11943082716552333 -0.3454066266728374
Ni 2.6419580405311733 1.9496424553153273 9.348147965953627 1.4377642302251818 -0.3199763595251909 -1.104145597326208
Ni 6.302051732339658 1.7917930896068617 2.410694596975744 0.383503690654875 0.10651489043480364 0.49433237797368407
Ni 4.036185467423693 6.703111880897281 10.26334475523709 0.7272810092544055 1.4797025223301807 0.19030431424763355
Ni 8.099711212688609 7.3539825018889164 0.2942710149856761 1.7620926960714813 -1.5594414302227209 -0.8534517262469237
Ni 7.75890831224727 3.9666669265154972 8.194502309762886 -0.9403133612271741 0.04293947967600347 -1.2203638310917049
Ni 3.114148176836643 8.389273724857986 12.745986832374276 0.4459277614180514 -0.5835859102248788 -0.9333559560727345
Ni 0.153481258404363 5.187518968991704 10.14311362016228 -0.2925357468157349 -1.6380169139347789 0.38735340341826835
Ni 8.476047421251407 2.0662188651701054 5.776494641118219 1.0932394919366657 0.7180646328624601 -0.08437126445822889
Ni 3.445427245394218 2.913486833011904 11.742160466910159 0.11752152595795246 -0.6722514311830874 -0.03000991609852896
Ni 1.062251271780714 3.4695174703397464 12.631333295040518 0.43139305813698614 -0.30049022577612117 0.38144809367742694
Ni 3.016574165388728 8.752999003939717 8.245197703092447 1.5216492990756116 -1.5752984518596354 1.0131951369885646
Ni 5.43899520669816 7.792114980830584 3.4377882631285144 0.06131592530066214 0.19940216278384368 0.14795258875430004
Ni 3.0676697045065633 8.459914846710657 3.8186881253534835 -0.015593226452566692 -1.4142298945486675 -0.17974196535075496
Ni 3.617897322597245 4.399910746505422 9.128938687943092 -1.611748724266869 0.2716858999499192 0.2629788590942245
Ni 7.343209346050818 6.030206082334277 11.272099613170337 -0.31013700483726586 0.9489080448747206 0.30972022901482144
Ni 0.6682588566372099 0.025666364803858175 -0.13009083593470466 0.24499862046671997 0.8706549774990876 1.6710450480343415
Ni 4.758412402966494 0.21161556110549357 1.2619222095141183 -0.41567101941603896 -0.24970476769313774 0.5991999626130519
Ni 6.235267219215583 5.774375316931918 0.11685796039811001 -0.8703682994966041 -1.3992871571959062 1.3787525275776642
Ni 8.260801578220637 8.943801552211776 11.111019206017655 -0.8270308130512338 0.16093923082195508 -0.039002092294810255
Ni 0.11571093615887723 4.6932483897542 5.917077987654904 -0.9000190324835016 -0.6762304704354934 0.7169562302896297
Ni 8.072235138765393 8.69194508547574 2.2776895771214734 -0.1878630517959926 0.955856965388728 0.8425070543099619
P 8.625694703607504 1.409210261272395 3.6781971201525545 -0.2355189631110589 -0.6484075346859542 -1.0373815044267811
P 1.749288915943106 2.9989749931624567 1.6695105283867449 -0.8465717112976389 1.496604697402158 0.028469825304918712
P 4.6958918868169945 1.1430589936385809 8.316429990555394 0.777030826984023 0.29139803366686584 0.5673640490493777
P 8.513146910851846 1.7305037912674308 12.265127474194387 1.327380086642959 -0.12433906310041812 -0.01924342161064428
P 6.248855880487 7.736927453108698 1.2130854118934302 -0.053219521445772855 -0.6633898670273994 1.0077217725788195
P 1.8163269150868997 3.2722962939254923 6.117723941257016 1.2451862894520234 -1.2889140693572771 -1.302310288158525
P 6.870666139932169 3.719101615970435 5.928088333982882 0.7785755457633237 0.6604510961140496 0.4808405141348364
P 2.4703570582529006 8.543094473467333 10.446527332694927 -0.3434867839423052 -0.2747033466200043 0.3836988373848166
