# total energy = -340864.9229355986 ev
CRYSTAL
PRIMVEC
9.27512174626588 0.00000000000000 0.00000000000000

0.00000000000000 9.27512174626588 0.00000000000000

0.00000000000000 0.00000000000000 13.57507821933646

PRIMCOORD
 96 1
Ni 7.9256193767914 3.8270914691139657 0.08237513896510307 -0.02716653311246289 0.3663953131093625 -0.14614484612159992
Ni 8.97090704988984 6.317971795729804 11.189896456975541 -2.1660392279617406 -0.6073688715770895 0.9368014914191737
Ni 4.017509719027105 5.020883116852411 8.739472356490785 -1.1426866908241997 -0.7159930950454121 0.8688413213291165
Ni 4.425707828071297 4.9779949537935515 6.388825378433723 1.6994454535539052 -0.8255678553524621 -0.32547646340781367
Ni 6.800157551123588 9.146568581068845 4.890448934442352 1.3416162848469992 1.4304072756394786 -0.42526123420763534
Ni 1.7731064782949368 8.910294129130836 6.818327514668637 0.020880700103751135 -0.7738331459823319 0.2455750617954803
Ni 3.9154184537180976 3.821554221418001 3.779370040101394 -0.357028784292798 -0.22117297880203202 -0.16646941661156495
Ni 1.6122016658500686 8.711973475470693 13.525407363818122 -0.817709792760624 1.1024301572969983 -0.6366933315728196
Ni 0.28184961777328343 1.7012057343433218 0.4008939506512748 0.4332380817655248 -0.2601449891898552 -0.177872516242184
Ni 2.111333068715421 6.640226626464443 0.5098840515319042 0.38122903568808536 -2.3687298316888685 0.25051492229925887
Ni 3.0217882966610463 2.333527885808415 5.988781956448647 -1.3738381209951822 0.4091064788246438 -0.2231254745427125
Ni 8.627708994201289 0.920451026675844 3.7076529435608006 1.5440544062436892 -0.3767478599882802 0.36418056484623085
Ni 8.305491263953726 7.83385132201105 6.965060868562979 0.256457513035939 -0.9350220309212478 -0.8666867368799591
Ni 7.281054064591511 5.877403511712555 2.7108073764363656 0.18411412627652163 1.0918500677883065 0.21954032829461545
Ni 7.456465167482758 2.5670754519464016 11.611470219122495 -1.4089683890394122 1.0924833304969315 0.19450678236475533
Ni 0.23270445756920352 0.3995926510671144 11.367838740597488 -0.6499152295797324 -0.8205488048713159 0.8679548049591053
Ni 8.873944926918972 3.0223633542107113 2.3312350757071716 0.37037203836892346 0.5137732603071151 1.0706204689855692
Ni 7.004432832959291 0.7801898527517587 7.118296082817239 -0.4374189526160918 0.3575077808117456 0.34967671480310103
Ni 2.2344046594654188 1.5549834396584388 12.5428018911453 -2.094588528219922 0.7938445561072521 -0.6970170681635415
Ni 2.8765213395183484 6.554468850590264 7.231878296485594 -1.0219029491752079 0.615049785161115 0.041994342153914774
Ni 0.5331024638557016 3.541250766443574 5.995690994654214 -0.09829841606228233 -1.099708644600777 -1.6707295736764518
Ni 2.1084392307235604 2.2944146973094526 2.1960946965116324 -0.10738340908268604 -0.18949030298677044 0.26281790803632804
Ni 7.3201672530904744 6.265864161632775 0.40547029573199295 0.7277831457018047 0.47898006388733 -0.08395834529052637
Ni 1.6607012775790413 3.8055175358797735 0.49326025078571223 0.3189350627448701 -0.2741436174617924 -0.20240469705559339
P 3.1971808493087552 7.647634702259169 5.004859416484658 0.8009572558926334 -1.1746449888983512 1.1678143391297628
P 0.1902986008423222 8.720738465542194 8.519298588431209 1.159446426781042 1.6121403032783332 -0.18846803236984316
P 3.577831846699659 0.5021532375376225 13.509212073697647 2.2197904535412674 -1.4189841214042014 0.6444043270638321
P 6.674377624817106 4.679790513805372 5.352096787703517 -0.4727163423658053 0.32158509877320746 0.14855422689404094
P 0.02089777685724767 5.004568177661119 1.3637387763957007 -1.382121444049897 1.5267663085872027 1.0278172577771136
P 1.4745959592883862 2.3619654091515074 4.196830285743895 -1.2215444816633672 -0.39026260664526335 1.160314688318608
P 7.716474656027085 8.080634486913091 3.3104189559594883 -0.09012565044350286 -0.8943628626389887 -0.5381699439839247
P 6.568975141036642 0.6245393967889069 11.222517060236354 -1.7437360479411645 0.3074509733646705 -2.2065279321044065
Ni 0.7777031926055478 6.82981939054016 9.188725864532323 0.38101820522885993 0.4583364194950494 -0.7349917476351019
Ni 3.845790114599834 6.16543314312038 3.292675648015804 -1.43780022566944 1.5097101244358646 1.3035475029997357
Ni 4.257336542602558 8.504396250285303 7.700870191163283 1.0262712534462326 -1.211686357922365 -1.2912915684505182
Ni 4.191279125365277 1.357061616234353 11.09769432649641 0.5206622741174647 1.2261894366345463 -0.341137052763206
Ni 8.790737809531208 4.855628272297982 4.18413820911549 -1.2416355959862875 -0.1548133204298753 1.2670609780379274
Ni 4.019476044842087 5.6621001100937685 11.242065306876244 -0.10361108652444737 -0.5810220061524445 -0.3639347673840119
Ni 7.518515732115924 0.8174081338733591 13.124901113256783 2.7101479060276032 0.5138259679219215 -2.585574615429192
Ni 8.172244864623371 3.9492355476870844 9.801857789057802 -0.6033962600825866 1.0981094184344573 -0.8053422723342066
Ni 1.2669445331288458 4.550244888060763 9.994923158723752 0.544860468630223 0.24152763119898402 -0.1276223618373802
Ni 0.2837278299314623 3.2162597747871446 11.735899687699446 0.9313391827530217 -0.9133777131785947 0.4293192063270928
Ni 5.3460039602136025 2.646971350862709 5.498028771077037 0.44736372253362955 0.2122185978222216 0.9252387262822388
Ni 7.208559712846695 4.842151520367939 7.61716685476089 -1.041645679019774 -0.5694813525026966 -0.19886197400965752
Ni 4.475747110013888 2.430851738528268 1.3597745893517224 -0.29589952108164524 1.9939473229570757 1.3825009388765028
Ni 6.374772641441838 5.163367537464473 12.211583582733311 -0.4573442307851091 -0.6289345135630071 -1.7071551634933373
Ni 4.327716166584092 0.32275383228579857 5.482919597715687 0.03553110302707429 0.008976235356681316 -0.2839310358658594
Ni 5.680761655092562 7.577830135827299 10.617909900128566 -0.837642527128809 -0.295295311838743 -0.9353588454353763
Ni 3.479877285699529 8.50693763364995 11.30091317196265 -0.18620186204348577 -0.49552279873735955 0.6903478836734821
Ni 5.61516799394372 0.43661893716810085 0.7837218191213118 -0.5929110442805465 0.650984294274195 0.3609000943227462
Ni 0.018434304515458588 7.912467254123264 4.888018852538931 -0.0448004441441422 1.4442158993877967 -1.6041022634652051
Ni 7.897756910997972 1.4279977475220147 9.67474131770444 1.0460186112764889 -0.9078071610693527 -1.2980234878577128
Ni 0.795491021133722 2.77283475326511 8.290232761131898 -1.4934651233319118 -0.8871768864135108 1.0714697043597419
Ni 6.351900191160017 8.374507445035249 12.609889774411094 -1.6439402213977494 -3.8063858184709614 0.6534204145195134
Ni 5.3140975413289855 2.9859399510246956 8.620201710641634 2.751327722700023 1.033576271748078 0.0030652691888850437
Ni 6.442842760102946 1.1585925606259089 2.969304092620204 1.5714955331737774 -0.16129430016852866 -1.5561064523122168
P 4.4618529776042495 1.4141685409647573 7.4388980868526815 -0.5552376980994889 -0.039138874982990665 -0.44678239610886283
P 2.3644233164202357 7.756765784990684 2.6421853880300157 0.8929685533946233 0.6950972254330093 -0.6398642731016335
P 4.720424822274415 6.550211569698392 12.930954607022798 1.3176512893909695 0.8374759196439576 1.634895594696978
P 7.686998319045888 2.661162287168948 7.846721480977414 1.2478298977224573 1.3056426949658675 0.031037586032094933
P 4.677276955806031 1.8777855025774353 3.579164681697833 -1.5536369077258017 -0.5499340264983883 0.8833330871873883
P 3.5695584380819034 7.027574261772409 9.6790310615225 -0.5570788650732857 1.1767406950851151 -2.0115295548152132
P 3.164281992394878 4.5472119232423704 1.8583198045212876 0.9526070909928627 -0.7293908565085568 -0.15768729954356067
P 0.5463287874979879 6.167547870883663 5.784626323683761 -0.24123992475523617 -1.33268838622975 0.6383658341792361
Ni 1.885224150236 6.7629179372219195 11.284881123985306 0.560488404975467 0.05910169125816273 0.7550059859734997
Ni 1.4580305918093377 5.14989078553443 3.1508163706109573 0.6225219251684441 -0.16842576900698739 -2.2407791399777923
Ni 5.802006046854109 6.744729423433334 4.755064619544293 0.6268488346785721 -1.5785323854159008 0.8043030324364148
Ni 7.687768154152699 2.54053932856591 4.9594512028412225 0.7137413228967578 0.21273050446163363 2.0302430720643163
Ni 7.656000862094612 8.562894443281024 1.2092041175816335 0.7116780126098259 -0.6414023070127147 1.073825349076112
Ni 0.2655968218978429 5.132388630756734 7.694612266505884 0.5068400235223917 0.7704392898094344 0.08140652540295013
Ni 4.317995838970407 4.26746497557407 13.486324783220997 -1.6645409283672363 1.811075039507455 -0.6351388426015061
Ni 2.841823108981327 3.5450721166123134 11.69030040654757 -0.9115959386878235 0.44177954357763277 -0.331733500061119
Ni 5.036335469719204 8.440509211541917 3.5058049610919886 -0.1888722097867973 -0.24741031523200616 -1.0070316884903303
Ni 2.381508090718336 5.121304860243036 5.181607064422787 0.09581138797437047 0.3828364893845213 1.50953708919311
Ni 3.097519665903169 2.719372951389838 8.777537456229874 -0.8624210196250695 0.28270179144444857 0.8884914914598763
Ni 6.591699189370164 3.6891982337774505 3.4078745154084573 -1.2755954978715 0.4424596003637928 -1.292243647951142
Ni 3.7074238480531116 0.4623685302225996 2.158777171587106 -2.001413549427134 -1.232007071757588 0.9308936105751711
Ni 2.014983103781291 0.02106658407343954 4.378926896406081 -0.369695324016873 1.1551406003168365 -0.6819971977159416
Ni 7.458941624995024 8.197788549974604 9.087564893936724 -0.2494900805791703 -0.19162071906621195 1.1502575611929222
Ni 5.519244684610954 6.676223374049094 8.263299662539703 1.647880179882104 0.05851342285486052 0.04391264222255018
Ni 0.3576746657452711 7.224012065713488 2.2724948020332847 -1.5344737045337897 -2.470733978737513 -0.2567292786400869
Ni 5.352607846912977 2.513372496905141 12.832195892965315 1.6818040863230583 -1.2571673730732993 -1.6455067945539208
Ni 2.8885047968436175 0.40201438536094397 8.821248322589623 -2.082934746031077 0.7260309388973883 2.371199376275284
Ni 9.187314190999114 1.010005109889986 6.207204581518276 0.2159310136768023 0.30281835968866555 -0.20771685329712614
Ni 5.604464503422543 0.6759402666071551 9.191739351595 -0.061714960511293715 -0.9272742686550288 0.5257427739641656
Ni 4.411451965912676 7.669765142799489 1.2122936606428156 -0.7846343503628939 0.18236243369273755 -0.5009838218519307
Ni 0.7295467603820202 0.08467722418811531 2.1614919997288293 1.24517189127432 1.6329932354679426 -0.8571998804354463
Ni 5.118967529557303 5.50074081668223 1.5924521490677965 2.2559656179102436 -0.28414392320761384 -0.21135753537350696
P 1.0740312754599033 5.03653024727635 12.505986150308468 0.46451349484003873 1.8125220563666269 -1.9633103147975093
P 2.2688339114711455 4.056706383621987 7.227249083210794 1.3465792852792293 0.9457635857084679 0.591398207180446
P 1.4487276446752473 1.7587764151621654 10.401238418048882 1.5263803860026939 1.5214284413140573 -1.8684299232778403
P 7.078661632474871 6.047360843003757 9.955093930824239 0.5214994253067793 -0.5070914774115654 -0.5877773225984071
P 6.166898612359847 8.112995386764378 6.446179948915354 -1.755216280666622 -2.4056773554474957 2.897463569960558
P 4.705464050861366 3.7045671105483264 10.705850112154938 1.0791303062287931 -1.1117452640503371 -0.45158804502762223
P 8.591730796860174 8.086051158026061 12.72439579020762 0.5566325215644865 -0.9017167319008985 0.6351552976617384
P 7.414022210268802 1.9946334866205784 1.0935442766370715 -0.9715553499605913 1.3685825290231979 2.9985590891520038
