# total energy = -340870.1333428093 ev
CRYSTAL
PRIMVEC
9.29021450273079 0.00000000000000 0.00000000000000

0.00000000000000 9.29021450273079 0.00000000000000

0.00000000000000 0.00000000000000 13.59716799402244

PRIMCOORD
 96 1
Ni 4.488539232150277 1.7671474283865924 0.9871038638228763 1.9285443720712334 -0.7369079908212084 -0.8420069747450918
Ni 7.856706474451446 6.89058920503033 2.70481620317421 -0.5599906394034421 -0.4901095981415881 0.09996757623458913
Ni 7.844452681615712 6.198449649421664 12.480595769682152 0.11504195406920832 0.5451669441270481 -0.981600135791103
Ni 7.553018654885639 6.8834914812043255 7.720050207221884 1.4890595380650484 2.242575569756583 0.0543628910215967
Ni 1.8547355700509571 5.802119811540517 7.634619253348617 -1.3680742219282116 -0.45679787136333583 0.24091005221964318
Ni 4.155178467688843 0.7619146401212215 11.945356787571697 -1.3069557573503363 -0.03798804920799909 1.1612533980827935
Ni 0.48591909173415326 8.196867675877062 8.847228208163834 -1.6560709432230125 -1.4427418859454315 -1.417847950917229
Ni 4.536290934330467 1.0158570774897417 5.835972423909077 -0.414429433699454 0.5470980997114899 -1.070934143571246
Ni 1.2071147220001657 0.45249847433667917 11.98314287673074 -0.07406396899494987 1.2064778171382318 0.6885612240867045
Ni 4.037815188770098 5.525522257258258 4.091347262369844 1.9664360049106846 0.2551467646443154 0.3162929971363327
Ni 2.621001746612101 2.8751820134700794 12.821748236987657 -0.6556783573157546 0.3178896521994912 -0.23426503609929977
Ni 7.312337069597276 4.574371523287004 8.474095106697806 0.02089586961240272 -0.47559777767865835 0.28079814666383257
Ni 2.7475437573896055 9.105311294104672 4.3738143741302045 -0.0008258383354050293 -0.2502706674989367 1.0854032837216985
Ni 5.290061772480647 8.88218821409268 7.580257563600099 2.294389726214397 0.8890062263127657 0.8595478118423324
Ni 6.618339471102222 5.355214046291867 6.367445153088822 -1.7355491412549982 -1.6336491238843864 -0.5252645487761664
Ni 5.1720574687660985 8.415707967035926 4.494625251624643 -0.6845937547985242 0.1644737263377748 -0.2877002731003045
Ni 5.4027427833256905 5.48351190759701 12.778509720978505 -0.763774476194749 -1.3542316596181645 -0.6907554035245458
Ni 8.089584279616977 3.262936983430543 10.223125687920666 1.4972955528215954 -0.894199597588247 -2.369179517631778
Ni 1.9907721799779081 0.451991228628695 9.237262996745898 1.4282763453394047 1.1729159220223864 0.6645617758483136
Ni 9.025443320633252 0.7417697391469948 9.991729671957028 -1.6563625063215024 0.7821807466160787 1.6357407163060924
Ni 7.017623597172728 1.9536391928934294 0.5203690648906867 0.6728332718284864 -0.500032513682255 0.13683565290553207
Ni 7.092354082063283 7.78469802238945 10.014776835919795 0.652785866259308 0.43301079624606714 0.13779493149500785
Ni 0.923474256157051 0.09464963365408506 1.878326211557992 1.7276782231473535 -0.20541571596777528 -0.7533095721076833
Ni 8.589462847556568 3.3301145239879277 6.54955193638378 0.5766452172409875 1.4045826012668907 0.149068190415982
P 6.128382852175946 -0.1648195522799986 0.21624646328946587 1.1081734875386786 0.7242702474525398 -0.8352246617159358
P 4.863575898553409 7.087170142410257 6.719421649228984 0.7604688088602839 -1.781508638704248 -1.1182632676745128
P 3.6303463837850503 2.2542984025544217 10.341461652290434 -0.3807076159669766 -0.058102046349054776 -0.3285638440838857
P 1.276317529303714 3.161274166901784 4.734547826393917 0.5873762305052465 -0.32816120932882836 0.33916784485197715
P 2.372423479056585 0.5432954560658372 6.640598824881158 1.2750812772392428 1.688831168373169 0.34631705430224874
P 5.672344806140696 3.7575572900016545 0.9222358705732729 -0.41969582430471586 -0.02074803118062878 -0.9101638342269873
P 7.536593555769963 9.205506256753184 8.367982277456147 -0.6513843579260912 -0.3449242877197802 -0.12207829209069943
P 8.878769415181726 4.821769933609664 2.3520249552283663 -0.3390081793456613 0.7367696654711311 -0.2229994904878095
Ni 6.50935596560109 1.2357471628794159 11.626380991136685 -0.6742820884598709 -1.0092451512018812 0.07810291495101386
Ni 2.764108209721761 1.6842043939381997 2.5133959799112278 -0.4794896565338968 -1.6993660064662217 0.8149473995241385
Ni 1.201930782347141 8.185737998987593 6.679554552037184 -0.747420717427074 -1.2387402767163633 -1.2351664433221758
Ni 5.35761092161531 4.186867389116203 10.12177223553249 -1.065289800801275 -1.3910794245741334 -0.5329346637269144
Ni 0.9621224772153798 5.649648812283457 13.557124450562588 1.3903507739382248 -2.379787117944295 -1.4098613331673269
Ni 3.7617193060671656 4.767682305186888 6.8344939612688105 1.9112686157099212 0.4139581504899903 -0.8617075384978127
Ni 0.9050173871451086 2.9725248802879847 2.3777365526902137 -1.591523141248614 0.4179819269374027 0.550075437172259
Ni 5.5026032982546536 6.275995069285098 8.782030412301896 -0.9384243717345774 0.12312293130512988 -1.0202502440631331
Ni 3.2284702878880323 7.9202236705226445 8.117359233704159 -0.1720973043213036 -0.418068573113938 0.21547464286567405
Ni 0.8206473757599692 6.864613765478616 1.7720238619419197 -0.30834211772037223 0.6570690670156942 1.5585955372826579
Ni 7.392093560495512 9.362213593791209 3.3880603784642895 -0.8823912920994094 -0.6457898945574492 1.1775603627729334
Ni 5.581793086072541 7.939575187184382 11.873686499315026 1.8481354346948622 0.10202728697709525 -0.6948483426469968
Ni 4.762879264325573 2.9548920532961556 12.1965781211331 0.07914858260670886 0.8855012984833008 0.12741230270910317
Ni 3.616606156640206 8.717695677360688 2.1864649728581416 0.2025767038570834 -0.2208215089998842 0.6099780270651625
Ni 4.077131376246085 6.58363122998448 10.67211803533073 -0.31361776429701477 -0.7838751035993661 -0.49756759708153014
Ni 2.2475629970912623 4.967282562257197 11.088503588127557 0.03943892272191272 0.38191886266625835 0.529566775695946
Ni 6.0830744763913565 5.013482798627253 2.803872185533366 0.5895295294028233 -0.8678655876794086 -0.7935306244112592
Ni -0.05613797874790587 0.920276564349576 7.650324360845818 1.3559576411703356 1.6350547459826617 -0.9638615808607593
Ni 9.061944573136358 5.90179452218084 9.470713079120436 0.20615773634012233 -0.957384200666532 0.4979689462850068
Ni 6.337598481183316 1.6229168493306676 9.261928516062707 -0.5904718387114346 0.03829221071197922 0.4706206361790411
Ni 7.365542127649016 2.970378840754206 3.2818527890354234 -0.4447928764826598 -1.8888223708912633 -0.7108601446942209
Ni 2.0309616476104964 3.031815028792649 7.02564291027038 -1.264524841879635 -0.47055250194526704 -0.5893791198678882
Ni 0.79189602013599 1.040699110880759 4.057422186328716 -1.0947597852359339 0.8384233711588917 0.9091821870400084
Ni 7.969545418941833 8.728620969532653 12.207238642193756 -0.6361035205076206 0.6558079409150835 -0.9643904567810359
P 8.50883307650173 1.9484366728115408 11.904918342192333 1.2442645489687023 -0.10674089040268069 0.3115583106648247
P 5.565813917249598 7.0531772478037755 2.849939571837045 0.02773577535237159 1.0667843830689305 0.35889514807757544
P 5.0386778601666835 1.1592794078900879 3.4013314497803213 -0.9563457320996884 -0.2122006001000926 0.4761143123037606
P 1.9434942787337468 6.776765497810156 9.53831796954169 0.9133278337772658 -0.6945922607721328 1.5804193180259685
P 2.2765856269766545 7.185414160028062 3.323338241581268 0.651456091704291 0.6077573652647598 0.7100628456039062
P 0.2601910355954457 7.579746601806341 13.211212606403599 0.27602900740996333 1.027200193018405 0.08147825918115
P 5.853541148421324 4.015760219708665 4.793178369673914 -0.9060387563150203 -0.06786143972866378 -0.7176931084556543
P 0.2090539792762551 3.8295564518492182 8.426396358739877 0.9537643445257574 0.15610324288589245 1.0960949591075897
Ni 1.366144612646177 5.2982464513951895 5.215819023847769 -0.9330821335860576 -0.19553316674674068 1.962616631164594
Ni 3.863697989886611 6.237542871751283 1.5130108255364445 -0.33584675089854416 -0.6178643717917747 0.31869209349612854
Ni 3.122320297788644 4.01234142079771 8.966897318304586 0.6816233593162906 -0.19065424138788453 0.597868388285822
Ni 8.364175147581935 8.932838463175639 5.815060151222771 -0.6671593613721606 1.3686617190005652 1.0319014551488166
Ni 8.11316284384525 4.725597633810183 4.426775099542386 0.729079495915725 1.7292491671788994 0.9934385231869277
Ni 2.107364371098801 4.951935128015626 3.1882771041696714 -1.0277236696220429 -0.5061401692418896 -2.4488135245153377
Ni 0.017723871093262088 4.407166243940882 11.819623954471213 0.20467678091922167 -1.0437095035273378 0.17479182043433125
Ni 1.370947653507492 2.7091008500702225 10.092266514496636 -0.3329429469881879 0.13398121417587247 0.30061183895565
Ni 0.1600573883621843 7.626216254394924 4.370238570595349 1.7264690333306005 -0.3989999865182612 -1.4083610944727163
Ni 6.342782420836341 6.862337662942789 0.7418059709832795 -0.07631574114360405 1.1013238116066968 0.8306259866016599
Ni 4.50413750218151 9.06415564417116 9.997154228163842 0.17571510357954898 -0.2997317503435419 -1.2332286028695147
Ni 0.4324724881071814 7.704049670905748 11.033612356156418 -0.09574839594691897 -1.0623255759666286 0.5338787728077387
Ni 4.269373783486294 8.190113689985038 0.023634305514864635 -1.8117556105142476 -0.00046202723808307517 0.7730214487143139
Ni 2.66707191998011 7.96713925340396 11.822710163705507 0.10754050348584061 -0.02703180730681151 -0.06931796966953223
Ni 3.8506916896818897 1.4698141154922362 8.068682226166546 0.3977846260539214 1.0587247459892477 0.6298786226438313
Ni 7.6875595402890475 4.470228219504916 0.49949488208355247 0.5418427648498216 0.050605737972009616 0.781787624942718
Ni 6.85746959058045 3.5374442394656143 11.966364749466651 0.694940645250487 1.745376154647749 2.0182198223511953
Ni 7.082190587474736 7.261240890221585 5.123195585961291 -0.6918882315774084 -0.866412914393282 -1.0326023378705829
Ni 3.503144767782878 3.129631696546584 4.8565552835071895 0.2767286045801492 -0.0742514024154076 0.1285466734238625
Ni 8.209595269648824 8.721198088201529 0.868659203944254 -0.8670752305676293 0.16275597231571973 2.092594123497712
Ni 3.04654001866728 6.923987525913168 5.624577310595971 -0.3832414381324239 0.7991834518216623 0.20101244469375704
Ni 4.018352189535177 3.5083658682936303 2.4824892945390373 1.5045301228968218 1.8328114027432822 -0.10863013700559357
Ni 6.7532519650829075 1.6208637119412077 6.973130902215263 -0.6166677803805121 0.14150066248136922 -0.341654872939889
Ni 0.5808557930141854 2.2506937993548273 0.013404850403851486 -1.6791931310627726 -0.05079574249562865 0.6696589878655628
P 6.740050570375115 5.6391229993320655 10.6157988974014 0.8574585334134716 0.7589387453690026 0.40978422161795874
P 8.204606424498872 1.6974522397181513 5.378156230831552 -0.18265656789438864 -0.8909710633486203 -1.7202621331889405
P 3.269263619458697 6.120532620980954 12.940424223205635 0.027952776459184116 0.38685769472877246 -0.8788192584774348
P 2.365808846381041 4.09823874343546 1.128095874127826 0.019205626394173374 -0.5197402765238275 -0.6133376875660147
P 8.587214615664038 1.3758250160842624 2.372420691992255 0.3326040755915304 0.6641432002536561 -2.1236800462692393
P 8.857550565419167 6.241565534600315 6.008003969652592 -0.2720363413108024 0.2855269195980696 0.4668012624329509
P 5.543944752476803 3.547644894911888 7.762174826520646 -0.8005319954297567 -0.4196791121341676 0.20350924297368178
P 2.754632191001179 0.8205061645006037 0.17676583901803497 -1.5613301626050013 -1.1085570961303426 0.210983696973856
