# total energy = -381172.9144522281 ev
CRYSTAL
PRIMVEC
9.19578886066307 0.00000000000000 0.00000000000000
0.00000000000000 9.19578886066307 0.00000000000000
0.00000000000000 0.00000000000000 13.45896652216357
PRIMCOORD
 96 1
Ni 5.915586423033983 5.749510481278059 5.6827656086062515 -0.47915104224755545 -1.196948537491558 0.1684728201948389
Ni 0.3528994217061848 1.7522851012966014 0.2626197673214237 0.4306916611945873 0.5004942838100219 -0.45011840246063123
Ni 8.25656751764901 7.591132668629966 11.078761469922119 1.2980767096931516 0.23739483997753308 0.24949059479980257
Ni 2.962358920546993 8.904833829389078 9.979594378420426 1.319935714549772 -0.739700723074997 -0.508150257693383
Ni 2.2164977046067236 0.3647721043419032 12.122571753329552 0.7157917776678834 1.6298366921168317 -0.37074047745193567
Ni 2.924904473660399 5.781962419177099 10.791829876752729 -0.4223551163044339 -0.30354186811825146 -0.5181960719651593
Ni 1.7007335105167725 7.219310153183728 4.002386976111446 0.08254526699308365 0.5566515477278801 0.8346998995607173
Ni 2.8185643745205593 2.2256383184553057 -0.10448714774095728 0.0632041434623105 0.404450210999555 1.0190729359255803
Ni 5.0276134903774325 1.0057342012128279 11.89197907847477 -0.7333418707365048 -1.2657420021161878 1.6350285207304165
Ni 7.79276872482499 5.414811364329534 3.8714720515702488 -0.48399422927246966 0.08232595189342595 0.18385418774691561
Ni 1.563881784868286 4.190088653871103 12.419422843640259 0.4286862007287843 -0.5359333413439222 0.9621003751952787
Ni 3.568278625875874 9.027505649047109 0.7653397353105567 1.4659604901537397 2.0561783038728394 -1.069752464558319
Ni 1.5478627211618177 4.682550719699178 1.3936898081439262 1.4043056934564202 -1.8994831930392186 -0.416015033019019
Ni 3.5735018337893494 2.6401109013358712 11.149972737107264 -1.002082829125487 0.33966766730653114 -0.82561979163632
Ni 7.30530916798447 0.5326596164480997 3.8886047252737628 0.5284959112292704 0.6733372080480985 -0.1324164407919139
Ni 6.495877465590232 8.840490896694382 10.735584755481636 -1.5201665438824983 -0.7532108417462899 -0.22640388818366813
Ni 0.15366530548827217 0.29398752174687404 7.476496129033193 1.6444482713824198 -1.2554683881043216 1.1027353472422428
Ni 4.110618648962205 7.20919478574566 4.430341504629242 0.7034000888717499 -0.7259828592682722 0.4065824268512095
Ni 6.40711971421547 0.37821358850938014 7.676011636381656 0.29821377103711866 -0.306252325070879 -0.2539694565067626
Ni 6.570032304699853 2.4612987923965606 10.897146484623606 0.2658826630045808 -0.40586714595173967 0.12643579772844676
Ni 7.045941951083814 1.9370192980814718 13.178817501633805 1.659349356863968 -0.6983887517000875 -2.103028688567475
Ni 7.956858376247621 1.5438809447066508 6.394596889327142 -0.39460494277435915 1.5593591549215595 -1.6100014025584597
Ni 2.3541770512274156 1.4698732382143098 7.897560253167947 0.14237072379114837 -1.2451729197155845 1.4222386237857572
Ni 7.64216009946073 2.9534573972014924 4.008806556119188 -0.6052191722239383 -0.8370270050319972 0.5453749463727963
P 4.840938982202169 7.473472553748069 9.696619733077036 -0.3063114604435886 0.20940015453682 -0.11205510352674251
Ni 2.1477683807593384 8.473992742836002 6.122107282122737 0.9691259145834922 0.28146637637545074 0.02386369399147503
P 1.0173025032465464 6.288659565727109 9.711532543417324 0.16827510236173598 -0.17744597022772665 -0.4218375532380671
Ni 5.872163909358929 7.2459135695458485 7.623548742953543 -1.9481431201387676 -0.3150776366719928 -0.7271581105232962
P 0.6143678762973848 5.657138784991333 2.939639805281091 -0.4220121311427184 1.1191407851834598 0.9481536832071994
P 6.232298577519907 8.615690649066181 13.289786760744848 -0.41507992279925926 0.019648884579179064 -0.9438226599320133
P 3.052744326500424 1.3148966132745208 5.550531088403814 -0.926624550886172 0.10545173927761194 -0.5276065666457816
Ni 4.0787368499551295 4.865804394522657 1.1082221845164797 -1.0708521253804009 -0.899798174721947 0.10988972044430752
Ni 8.507538979576069 3.9567639102291836 2.191106293179456 0.7879325614981914 -0.3863074786522573 -1.8000779170660028
Ni 0.775874430707876 3.1461367553195365 4.207972623501608 0.6825170747751536 1.2544718285190073 -1.6087356484721587
Ni 8.784690851590565 8.623203608336091 13.056893299587333 -0.41699333777188835 0.5805563793699356 0.08869611708582788
Ni 8.041165365949631 1.0121804490074515 9.581034188098801 -0.29834232619518297 -0.2175073570249867 0.23939053025132317
Ni 6.489900203013191 2.5568062525890873 1.7432723089092823 -0.825529545915359 -0.45497958720767445 2.2102974264491677
Ni 4.880260174170515 9.199466895494272 5.512226950652423 0.40238844337451996 -0.8959109238523989 0.774253521349202
Ni 0.7149017545277733 0.8690268494450485 4.780732315210785 -0.017071353659989952 -1.3405788447214202 -0.7416871573774065
Ni 3.6902331740246597 3.609135514537091 5.415470702370724 -0.3713166616703799 -0.06811572183131495 -1.2366031757687026
Ni 5.246270951234153 4.315997391109316 3.736680182563696 2.3049916700999593 1.1431849706168569 0.10153826315581868
Ni 3.5093979915977354 3.4504162036452164 2.7630448009684336 0.16878726611146416 -3.6046465229135083 -1.0985724741138048
Ni 2.761210241146711 5.153319920266884 3.5988868081646115 -1.124002227040819 2.301331961860185 1.4830637254929295
Ni 5.277922855526726 1.2810009365684114 9.485071536371562 -2.0865260629267617 -0.13766740477820807 -0.6187755707521343
Ni 5.066438109762455 4.330958939129077 10.167347552596132 0.13582418092188223 -0.5747937658545456 -1.1162570358777615
Ni 4.502230501432736 2.0451893591487442 6.973144410368611 0.8065854007126882 -0.569088230829336 1.3459869031108689
Ni 6.578621171233632 7.5946270682903885 4.538592488636018 -1.3143803319491814 0.35315361760810793 0.29007802930386173
Ni 7.4282752528770635 7.181828118931395 1.963178557855175 0.9844422332255883 0.001068293363514289 -0.8097743399636314
Ni 1.2821688017180792 1.3093423569721632 10.214910929868786 0.27724231099177415 2.5620634196811296 -0.5832737783010986
Ni 7.9890988110093195 3.971293256185682 9.926350762541865 0.01812781994896233 0.620906243941892 0.274800791429817
Ni 6.327723275615213 3.1477552141096274 5.890989527740033 -0.27047362480937287 1.3353091116820486 0.34955201629977867
Ni 4.0418617377490795 7.606747117638911 11.884643597924454 0.12014199429993501 1.9072618085433735 -0.2808256574676583
Ni 3.192005348756887 9.363059974333579 3.5637864831545136 -0.5217673342561853 1.039744348232003 1.0906619610174764
Ni 6.810456197125581 4.266275762256919 12.285774930733066 1.1113500854944474 0.16758733226609202 -0.10045505739396893
Ni 9.06178754887358 5.47328738391015 11.484898990033717 -0.5493889526281959 -0.3785440326567545 0.15024241322974125
Ni 0.8014092964369928 8.889725148752037 2.4323853939431292 0.5432861821645676 0.26004857282130694 -1.3524627406431997
P 5.782679690686344 6.317920564988867 2.831712513032332 -1.8301045453350804 -0.7738704269781704 0.6650554276552805
Ni 2.6482399784406465 6.369187086322714 13.549410540146887 0.11021085122915214 0.6437499813092848 -0.6146512641711157
P 8.9466562758512 1.6391401186075154 2.3587243686802566 -0.3471575479256731 0.7677049215974068 2.3549407483245766
Ni 4.8089376379435524 5.541713246734392 12.201078039595261 0.059609227022200555 -1.6051638719605 0.9859031340418312
P 3.3891354685476816 3.0771223620261696 8.96449242738109 0.6351262441960158 0.5368175437210884 0.4346622158065611
P 7.831299078975451 8.549526950232634 6.258419214981574 -0.47192238570960016 -0.25352619832175693 -0.5082209630303183
P 8.242185304309793 4.164101355343847 6.0251753942791595 0.2518346695519469 -0.14201256912078122 -0.14925896627054938
Ni 2.0361131158202226 1.8639771493900374 2.224027216296079 -1.1505156999503152 -0.47880291487951726 -0.38306686022777253
Ni 0.16553890770284854 5.016753264064379 8.008690438579142 -0.6120230825196492 -1.8294082905990043 0.8372884862234999
Ni 1.0681000393628102 5.231226641117171 5.696749644299952 1.2504426527549561 -0.917897198315503 -1.5810057866570577
Ni 0.619865118710546 8.480963150579688 9.65198981236142 0.31944851204617886 -1.3831318875922824 -1.168116186640898
Ni 6.563346966402148 6.173831753727871 10.68160087862238 -0.862651904688953 -0.2270564341660025 -1.2985320520630153
Ni 8.423700975091641 6.456776972547807 5.914313725894503 -3.0815481285507254 0.3329640300341104 0.11269325133137367
Ni 6.959299231082468 5.263834907422071 8.154181607598597 0.5324345841620443 -0.776636933979714 0.02747429416086881
Ni 1.3293891760766987 7.466042356575379 11.791696245272616 0.479170325521265 -1.282342072566714 -0.6178677142258843
Ni 5.295302895943045 8.604949968004668 2.6528158028380853 1.5829883643047253 1.409889872412417 0.007677314039599681
Ni 5.251310243376027 1.8590941856540244 4.326855778264653 -0.6093182819939764 0.7135867995967646 -1.8325149545487858
Ni 6.65815554666259 2.777909793208104 8.31115371866026 0.15350282914856792 0.056114583605380776 -0.20967834789887113
Ni 0.24058665788359457 6.418393751014627 0.5055899736049704 -0.30432065526580493 0.030905688439920965 0.07673225985573237
Ni 4.083987645234345 8.908355816415241 7.806106296581513 -0.10327812866506082 -0.05261634064413519 0.28199730917825633
Ni 3.0985761367834543 6.679618517208455 8.282661487323795 0.24760649040321225 -0.08244679374200639 0.02672738869251526
Ni 1.329232847670838 3.8835746289204685 10.052488474915723 0.4521562588262664 0.02558736155080109 -0.8692568115999804
Ni 0.0023219366164657176 2.5899018956887314 8.383912637063428 0.5490038013746351 0.2521262326504367 -0.4711081173384209
Ni 2.4606458914073763 4.190474876991466 7.279510383123106 0.5471441224580771 0.9439288464925744 1.9978664555058239
Ni 3.3984324108021244 7.466235468135559 2.2581316374029554 -2.2709266100954504 -3.209486221856311 0.2605154851553965
Ni 7.735276654622441 7.386112562237478 8.767426678110356 1.5377667734627645 0.8788832789461509 0.14903013808919496
Ni 4.994398302026248 4.364716679006485 7.38065486171521 -1.4723684505626127 0.46055810973671646 1.2324536723767032
Ni 5.002987168560026 6.8812545734034805 0.6717422404061091 1.1417726636503627 1.4987441123426641 -0.015100860197180443
Ni 0.7894400580211838 6.975575776869178 7.316926207697663 1.746016102224593 2.6098707689723954 1.6783942893105608
Ni 4.986774993293376 3.0037307733686927 -0.2689786551245368 -0.17713563807615945 0.8537941971880069 0.5436499932618896
Ni 1.1789276833297204 2.5466908851510186 6.346804536918842 -0.782497249415233 0.4116505854027362 -0.536934786025243
Ni 6.381794512465979 4.804891490968325 1.1943729298287928 0.6640794368952563 0.7786699052493429 0.18580488371538326
P 4.426650315093204 1.7153272269933313 1.7965030506838306 -0.21311642704614264 -0.3346488739357011 -0.20908853683367218
Ni 7.113356277164251 6.534895196535436 12.993878238763598 0.5061540531989606 0.9519563447827413 -0.14389204553168122
P 1.629319016404009 8.463187691254427 0.30397322856596365 -1.2099547199432388 -1.7622636744317068 1.5984970014632855
Ni 8.6775323272671 7.7647215696558 3.9225482200804884 0.9795401679382807 -0.1362998350067201 0.38422385665035114
P 8.663481162316764 3.8055943417615405 13.451415619143454 0.1642194442351236 0.9984220924444484 -0.7294070544584729
P 3.1027786121645433 6.191496863590172 6.034314168970025 -0.4807957769398301 -0.38359547903773294 0.6958310182752403
P -0.25580017051044956 1.2863436897334275 11.652853631396548 -1.0678681030514126 -0.6252706915581747 -0.10461278831608435
Ni 7.494972307448254 0.2946165136857503 1.3609840664800765 -0.2693695931119167 -0.011757654756560397 1.3327333805350725
