# total energy = -340866.33251780045 ev
CRYSTAL
PRIMVEC
9.30477594370947 0.00000000000000 0.00000000000000

0.00000000000000 9.30477594370947 0.00000000000000

0.00000000000000 0.00000000000000 13.61848013478333

PRIMCOORD
 96 1
Ni 7.809675120675557 0.7167022170415049 1.1026829268262988 -0.12949515338006085 0.252456619406662 -0.5583271356580901
Ni 3.5154280406702476 5.956954687022424 13.372094287041577 0.5509696668517544 -0.3215367620337753 -0.25742939003090504
Ni 1.1633854231980756 4.326953366946478 1.6228738618122382 -0.5068605923476819 0.004261346379515241 -0.16471798113809696
Ni 5.825403766745258 0.5700301056098314 12.84132754388001 0.3072645683854773 0.5706005537088044 0.42522343899116444
Ni 2.9463665622213195 7.595172124130818 6.884359830171464 -0.05667971208023142 1.1324081917163271 -1.5783732341302172
Ni 4.993594029222442 5.3639148013338405 7.866129056416511 2.649348258241728 1.1755140217668658 0.5352707680592588
Ni 1.184935283953622 7.565750423047469 9.210723127387523 1.4386893131426128 0.3395951621973829 -1.516893529558181
Ni 7.4266812439229435 1.1517637582223943 10.320669362204226 -0.8634628306260226 0.1473110985155592 -0.3785615161582513
Ni 1.218767448766734 4.884970076519398 11.593793450246329 -0.6807239874304728 1.5034595155404624 1.393190557379865
Ni 2.355773832568447 7.202324489804749 1.5377174841573646 0.7893512962225889 1.4254149646312095 0.4685884362403607
Ni 8.30360983930571 1.4891363192217928 12.417521059508235 -0.09268081276518877 0.8981259292258467 0.5095553655710257
Ni 3.9140260264414493 4.289148062866259 11.399648372677005 -0.052610169996548106 -1.914885129416586 0.5459871260354985
Ni 7.651065912368542 3.5363637862229154 8.204739152597469 0.7622567539986421 -0.5825577260706806 -0.6015615208666931
Ni 9.066713112312568 7.299624530357749 7.323038137706273 -0.5099109491382314 0.25987888001266213 -0.9637682498160048
Ni 3.5025223166340025 4.987890201656315 1.970879920597232 -1.41656214222627 -0.2707955269251659 -0.6641557986591465
Ni 6.72434746167363 6.707840789402326 6.761398148436372 0.03830686599999854 0.7173262120345387 0.010449734578414261
Ni 7.884290117825267 3.498837625416733 10.747296124121343 1.883007563981699 1.2123412178975443 0.28575060557310145
Ni 3.7918915392750834 2.6776167227556673 5.753289893330907 1.5550276174257411 -0.06633703266433737 1.1097454600114889
Ni 8.16372183991068 1.3216503548004466 7.96630706412482 0.22351731066449246 0.08457798115239627 2.371849351154457
Ni 6.073729623327307 2.7382280323245918 11.789572446446341 -0.6152379899125211 -0.24809062912848243 2.329377812253808
Ni 0.5053135289574231 8.872187469412976 0.7888895981846854 1.1232059563917687 -1.3373379691866194 -0.7150209609401298
Ni 9.306171517556088 2.804338464392018 3.424081195674845 1.4525938390388466 0.08452810175106733 -0.16745363490170515
Ni 1.5976579193910243 5.966119891186592 3.5283570266459954 0.17102309742051836 0.4214948251866677 -0.29364697760204267
Ni 2.5788651371776807 3.7607112355653087 3.8518375573742234 -1.370188182947421 0.5155360086344928 0.20649506507488305
P 4.51983206452926 4.856757996290202 3.8772489000872623 1.0769579811678227 -1.0595559836412913 0.433262507245557
P 5.413955885592618 5.175939720598282 12.585490872271242 1.4345899462622582 0.3142826515745233 0.685567174455387
P 1.5821654676820498 2.8408038807568654 5.494811595872184 -1.2248020693687165 -0.36759036185872823 0.9063069223747423
P 3.076270537181676 6.405537928397597 8.482025193383128 -0.05265902095661253 -1.964489165596959 2.489955803081602
P 3.4302428182103903 0.3255201375838481 6.3646918235855505 -2.3412005159203484 1.0382451379786568 0.5166341267946779
P 2.7539531034285964 2.6777376848410825 1.3602260943170033 -0.14123738151765353 -0.5211276437896574 1.3621730259524283
P 8.249409520263802 7.572933709965984 0.05562767164980984 0.5580967648148388 -0.2332643627489273 0.39754139969486374
P 0.4963502384281407 0.7680506223003494 2.611425339138771 -0.6010850954509067 0.13963044204184985 -0.8678655876794086
Ni 8.033296797505457 8.339796112396522 9.254533733769827 0.2917615876538717 -0.990317975280075 -0.9368122900524511
Ni 3.9263455496022193 1.762250098538202 11.585976508095753 -0.6326834390824781 -1.0300744292424067 -0.0037185865021677894
Ni 0.976973544797117 7.318959854472614 11.54216590171345 -1.1412209049119506 1.0581693877064098 1.678629802360135
Ni 0.02619666579065881 7.887304865184851 3.09324710063094 -0.16253614299542973 -0.15821103325751462 -0.815948329984827
Ni 7.844409848741384 8.360620200639577 11.832334404595851 0.23614502673083201 0.7393816491726815 -0.9373025994253082
Ni 1.8686222954973593 3.0177900212712223 10.67957131345241 -0.6838831018847448 -2.474971670967944 -0.8889645744415529
Ni 3.4016027182943405 4.012293763677774 7.915332710853184 -2.245700745649126 -2.0591528131201313 0.24946771198166715
Ni 7.587756217817272 3.4917380814804284 1.585681742457318 1.1976494202133245 -2.004959872017496 -0.7565419630020519
Ni 5.798047725889771 3.792663835666582 9.832910223273322 -1.2825966117796814 0.5945786617909566 -1.6755791884592692
Ni 5.903731369439641 9.078530177580074 2.195816362247841 -0.27740531893219966 -0.16405772184627876 0.40241826817119075
Ni 4.307264461351169 2.6516191791671537 2.884966207664454 1.854169042483452 -0.43325427971544095 0.07025822209561448
Ni 2.9327815895515883 8.134821206272198 12.536423998038849 -0.2928725613298634 -0.9588196475614778 -0.6331092137659871
Ni 7.452967235561293 5.923215569967324 11.556819062645157 1.467742007534195 -0.5397642850542381 0.6151145769607794
Ni 6.915923490644246 3.437416800353105 3.8291757759104352 -1.4708586987863057 2.2154144359607586 1.03797928591178
Ni 0.47468965084056 0.41321951046518557 10.120668789223217 0.9011726864719706 0.6509552408084724 0.6937983041159277
Ni 6.190448730977383 7.158303595489338 0.6373910995449367 0.1731234315929728 -1.3221021260734716 0.40620241780397137
Ni 5.442074918063802 6.17983198178823 10.614161531002813 -1.0457316761636892 -0.7150366446694136 -2.24010988182491
Ni 2.302857572587103 3.1676899594283277 12.997899006286566 -0.4046916375863998 0.6948776532230355 -0.5794284364130795
Ni 3.7243295621826724 5.15386879239787 5.847407700559902 0.15298963695757523 0.7356646053324104 -0.8278383965541936
Ni 8.239518543587142 5.61742341803715 1.0414556410993354 0.2747596537792365 1.0434814466769318 -1.0806595983891258
Ni 3.428288815292141 8.35476749666063 10.29629271056028 0.7545074490705264 0.3429116281651256 -0.6048224510061518
Ni 7.504552912603068 1.3945253588753348 3.3069210416517927 -0.27844224483714625 -2.1211783628933083 0.5132664958740257
Ni 5.334018556684629 7.903225336580681 12.055269388971626 -1.0890979589644663 -1.1319865307978763 0.6245656950713501
Ni 5.791673954465959 4.857716388197724 2.0032512356095578 0.6687470175742547 0.6216654907054197 0.206844735104818
P 8.695554910379064 4.943571554515267 3.002439002154426 0.6649736665747515 -0.7287344538714804 0.511897383440641
P 1.0245953873475866 0.7195085374231426 12.24234655884237 0.601415482207132 -0.5060776914350703 0.27148381124144216
P 5.603289463595149 2.9325675797081607 7.701250290174658 -0.6705704439362387 -0.3675703072540702 -0.4300110901877949
P 7.1526835109054225 7.281573265303449 2.7171322446281434 -0.5879886672782647 -0.13940444207397282 -0.21864352751195892
P 8.567902691162594 5.103362469349033 6.884155125103837 -0.5158458265654278 0.7627802306022798 -0.21888803942259719
P 8.973190810734849 3.906116967010441 12.654849601570861 -0.919496681592139 -1.1895401608426288 1.4071814723423184
P 9.256316528813334 6.114540369991309 10.080507515910137 -2.0330162639340794 0.013235524853667528 0.6959521172341369
P 1.271730232627084 6.070565999554905 0.11503308227490117 -0.45320038382006467 -0.15681209602745896 -0.9346121970773389
Ni 4.537064509313057 3.4053711524938204 0.30889436418228916 0.5853581716339532 0.6776792870668781 -0.8019869827087285
Ni 3.617110630625607 0.4318299925451375 2.3187501296555286 -0.8681723202865501 -1.2774181529025355 0.005094640914088
Ni 4.971551015349433 7.670987437358881 5.293231071960132 -0.7561665819405042 -2.3484610541375037 -0.88697968280104
Ni 2.5903565352921456 1.1672096860523629 4.48302609337009 -0.007945737209637928 -1.1094973485564248 -0.9785037562539664
Ni 0.32716801337823814 0.5804616897605408 4.702039114745663 -0.7702796243031186 0.7949267334278374 0.622444020742657
Ni 8.05991776107265 2.420041919027238 5.74641273353625 0.22275086481211318 0.2890642433273667 -0.04393938169542755
Ni 7.498318712816274 5.948412902836936 4.529493213243632 -0.2592250484787471 0.006475837532330783 0.05092789719811875
Ni 7.494103649378337 8.438408126337489 4.548476816833212 -0.7226221703261555 0.3045461410130497 1.0534838093052823
Ni 1.5512643072463115 5.6688043900112985 6.829000136064728 -0.3544764501845895 -0.3309791383935977 0.10925311530157314
Ni 0.6669216665051603 1.9361656630381676 0.6107273340090582 -0.7856121408951309 1.2543481584569491 0.7441605586185636
Ni 5.161182346177601 0.8904847232475139 9.126574456951918 0.40718020833620844 0.4277081530862311 0.008267639325430922
Ni 1.4016714266906454 2.459196415598629 7.750603751501727 -0.30760189712023794 0.8725419101091553 -0.4796866030360514
Ni 4.956514497654716 7.5983729670064255 8.3732132842089 0.8924797866836629 1.3291924572613496 0.6148644086231861
Ni 4.605370868469563 6.860736865367413 3.1730243873951474 2.6976885972183284 -0.16194067550327595 -2.2491390819067134
Ni 1.2992165403437874 4.814114208793367 9.133451616746573 0.43028748377763315 -0.2753026707669 -0.877517766057192
Ni 6.337510712515127 4.354448979438982 6.1353430572500205 0.14546916021081396 -0.39048012197270815 -0.2042767172673256
Ni 7.392262878234357 5.6131060020654 8.915133662123349 0.17047236712337094 2.013771556771854 0.8470645917736573
Ni 2.642146917401546 0.6381047758488876 0.11128977097008408 0.47955804787798695 1.8200358482451688 0.4357420791343012
Ni 5.38918657240986 0.007340537629555565 6.501966111458027 2.7820709174201506 2.531940889264136 1.4888517929296163
Ni 0.33246987462975386 4.619104717552113 4.984908021012035 -0.4422510838974125 -0.3822034837862127 0.8547460195783152
Ni 1.1605939904577196 0.09185395527656695 7.168958494259276 0.12335793013407143 -0.13073931019980709 0.1359833322075658
Ni 1.2374421337997141 7.798453561059326 5.171822357306258 0.5907338341235697 -0.8610441938822009 0.34118024729631563
Ni 2.957243845132906 6.140928714163472 10.812664965557413 -0.1965433531788099 1.7917789102820045 -1.4466386498966763
Ni 2.7079689014191355 0.9350741393643768 9.119669382829857 0.08556759875917522 0.1796362930108261 -0.39818237571297227
P 4.383424051283876 8.307108435006956 0.49193233087773763 -0.6262356265746054 1.1314941645424899 1.0444222133236463
P 2.974895004827755 7.760443551911482 3.822271632265955 -2.4277253363864704 1.8649982718884721 0.634936496782713
P 0.03727958424745134 2.5121126755799734 9.533031256364803 0.04229156167935943 -0.3319242759156864 -0.8693956511706898
P 5.700924476076993 1.6096424706229517 4.5743245535313255 0.17974093690949045 -0.11043659408671302 -0.39196776226182817
P 3.734611339442983 2.8491781789779327 9.71365277278468 0.6150703539864053 -1.0215987876712276 -0.5029838830010951
P 8.246320334697808 0.23212252000186442 6.351087310886637 0.31087362589297435 -2.502478618138961 -1.7720613772484193
P 6.227128157185658 8.518643208071117 10.275742182725782 -1.5746962994992622 0.2687453292643565 -1.1513173699160042
P 6.2217406919967715 2.177122137185678 0.5062588941788235 0.928474202500401 0.04511051918539328 0.20593456458572276
