# total energy = -381171.5722848692 ev
CRYSTAL
PRIMVEC
9.23769983359032 0.00000000000000 0.00000000000000

0.00000000000000 9.23769983359032 0.00000000000000

0.00000000000000 0.00000000000000 13.52030746746718

PRIMCOORD
 96 1
Ni 7.004504458044845 6.796961053399827 7.064022958784945 1.2079279193211971 -1.4666143216876546 -1.4643520080160393
Ni 3.6787569618551252 1.4693023646153558 9.264290663430266 0.9185754553294502 -1.3076568971824187 -1.5897915032694878
Ni 7.144344759799251 0.868765033866712 9.089675964006135 0.8919180006429219 -0.9800459039301057 0.9440273197436516
Ni 8.13018286013804 1.872805098175437 13.396785894911705 0.48189312376906696 -0.6224805304075473 -0.02405369851509406
Ni 2.1318486800090404 1.2768071731793444 7.422175975779249 0.5992835234657937 -0.8676964090913959 -0.11048595926740973
Ni 0.9193839344806274 4.726081193022117 10.528966889042964 -0.3620375503612991 -0.028812553356318122 0.8852886682518624
Ni 6.231992562516104 9.7932552187817 0.8359536474351175 1.5845374539594002 -3.0475596874204225 1.0134609890554418
Ni 8.863683948802674 8.300830891206159 10.072791714171386 -1.547333334105277 0.07219477699669502 0.9845821012375624
Ni 2.2775733966278655 4.614406638397396 5.3195248939836555 0.03724268640154232 0.3458527130713205 -0.4945714905676837
Ni 1.5867227686053327 8.267963154804905 6.445657790914104 0.04598135182612081 0.607199692989077 -0.9013644907678025
Ni 1.9115202986413322 0.9437511393932827 2.335281308178915 -0.1997225222377399 0.22797174689142027 0.40587023127553323
Ni 0.8886371739865483 4.686654689660523 0.650128075358776 -1.9708534172520897 -0.23883800018196288 -1.6681034489075144
Ni 3.578186122563262 4.141131557159218 7.426096455635542 -0.43739606979795637 -0.3311094933238749 -0.17273982300130894
Ni 6.43944359016168 -0.32211952082219303 7.05150310405065 -0.9536877256515511 1.8970473299042168 0.6207488924284212
Ni 0.36804197478450706 7.059986083909355 1.072348236545676 0.8234716349450657 0.08166749237382064 0.7036934517424526
Ni 4.3587163416435155 8.289117487676988 5.860756191090913 -1.780949166656352 0.26483236736319554 1.2264282921182297
Ni 6.080743701330682 4.828305580603982 8.544712636121444 1.30403601260038 -1.117555957194843 -1.7387110839227473
Ni 0.527755340428745 1.841304541365916 11.53870384290724 0.39883672146751953 -0.052399339537322655 1.3604886962714697
Ni -0.3683264959427866 0.14195943012159326 1.2679084968231533 0.2701910605719476 0.0793586417349859 0.473683591375081
Ni 1.741629758968634 6.992587825116902 10.31846926795581 -2.178548930392977 0.8707128273202166 1.270406497471393
Ni 1.858976261359058 2.7676795671642695 9.317398200409134 -0.6006582923261332 0.6007282263321203 0.36549285589975117
Ni 8.403443262185677 3.8182647064115436 11.992701691901987 -0.4769301233368367 0.6545810104865178 1.4331244174603253
Ni 3.2507281349433494 5.822346758493169 9.343303482362488 0.6315297850940091 -0.49452906736552255 -1.294320842195145
Ni 4.1537040667831935 3.6230905819917307 0.7931609262138785 -0.9016146591053955 0.1826491116952209 0.3359529374591053
P 1.8933589805511508 6.159762986652866 2.4917660976926754 -1.092240618358506 -0.6006624060911914 0.5987554188764656
Ni 1.397941132546866 0.38071979418784624 9.977418928638091 1.0106266049304402 0.4528802814764845 -0.4897506721402727
P 2.6190080242632634 0.17030808371017334 -0.35850035451220374 -0.5660761834758896 0.546560224930149 0.3674612924800317
Ni 7.364165067670031 0.47062293758421586 3.406048974264148 0.2557586871967015 -0.19498989264876096 -0.04991873920731403
P 9.067541511169978 1.3665329527367864 7.781680468275381 0.25237151589202345 1.2815949099880444 0.11755417896810076
P 3.469245927122006 2.3214339959626478 3.1336559922412666 0.6177838962628264 -0.7287928179132417 -0.31028252927619465
P 4.993253950806564 9.374972165310993 10.133849215722181 1.2547880742078454 -1.6071485064906965 0.9010754987724741
Ni 3.2727415739102375 8.312442680035945 11.310128966799398 -0.16517718016270264 1.579086715257474 -0.6248459453159303
Ni 8.730975151405143 8.471580536973661 7.708076322660453 -0.1648323952287742 0.10172441102469579 0.10433099540960743
Ni 2.8841392503600556 5.913079447344522 0.47604639122142106 -2.2928984863808513 -0.14481147202215705 -0.9417292677380942
Ni 8.35490838667916 6.209674279451059 8.76435003753333 0.5801115785230332 -0.6769766045728987 1.5432290821289165
Ni 9.228129686998926 5.594027766673779 6.570883127586885 0.17154040337656906 0.5805314396692712 0.02772651938099096
Ni 2.977495445995545 7.946426532849187 2.3820480879161234 -1.1853541477857392 1.4574496244692514 -0.19803793544646536
Ni 4.941365790220324 9.02192574884581 3.053290774037223 0.6290666682654972 -0.4178016926057966 -0.36948860732270555
Ni 6.33571345748892 7.9558859375919875 4.945390656085987 1.2721337645751447 -0.6863207647919599 -1.9287575165233044
Ni 1.0335415828503338 3.1048925659251942 6.576426671323365 -0.21304880703300083 1.1066344251863327 0.7692619816718815
Ni 1.2562625285035747 2.283236106693624 0.5753664459408481 0.1749669125596148 -0.3862833102825412 -0.9795903044499259
Ni 2.2186276332843016 3.988229147683795 2.2900969464421377 1.5306910975629058 0.6929588389337679 -0.17736600891941065
Ni 5.574998104788848 3.816518781122101 6.152497535646798 0.21693014436527802 1.206400426933077 -1.2314386008486276
Ni 6.087126951992084 2.341525993341154 10.816894911061908 -0.42614337970227256 -0.0189603431525867 -0.5627129234306116
Ni 6.430039611618545 7.538480465615974 9.931126042908016 0.17122467190836319 0.5308615832479696 -0.864715214975885
Ni 0.6538638012161867 6.4466028076183886 4.487484336244876 -0.1342018148271108 -0.4600153498593691 -0.1128421182044121
Ni 8.563052241820547 6.324933061654107 11.57701997473555 -0.8036234898708869 0.6620755190913502 -0.07299567563143557
Ni 5.549465102143242 1.148486283255281 4.900124078819707 -0.158211804588463 0.21899808263790024 0.47741606183431967
Ni 5.979239854344461 2.426115611729654 7.884475745713793 -0.6139791778047554 -0.1477633555616294 0.4924768128221841
Ni 3.6242914829844692 2.516432604083521 5.360422962946351 -0.7623611407869904 0.2624114166265287 0.8329050124438238
Ni 8.70739130344775 2.2349506490855986 2.550930794524916 -0.3114953186373732 -0.7594344540584985 -1.0429024342450104
Ni 2.8641488676809344 6.396562187020977 6.839396275633227 0.6223936271206959 -0.7841427554384559 0.5655483359968777
Ni 7.700075550738833 5.746468291151995 0.385771892287297 -0.27779047018576025 0.5774463729860442 -0.2132048729948909
Ni 5.474353363897431 5.060689160398796 12.957051978400708 0.5890803576805468 -0.03673103687244642 0.24709535509474861
Ni 8.685895175677734 8.472162512070142 5.291415496823629 -1.3283146826420866 -0.5797289983726338 0.3830028397590565
Ni 2.338246609860984 4.003526778791293 12.23005145918677 0.3654892563553254 -0.048940434454444744 0.8962611081029662
P 5.255272072022182 6.040790649072272 5.740655006577146 -0.6487464060826117 0.16285624533900983 0.5516216986134564
Ni 6.493114626837139 4.826735171613478 2.3876054882025186 0.19510404962912206 0.9159729847095966 -0.3339785873415539
P 7.723751775695666 1.0265116931928424 11.30769575663411 1.2873356691265634 -0.473531639178249 0.003511869808000403
Ni 1.2404568238991494 2.8625230324907656 3.9150887346060634 0.18380945055190925 -0.4803116382145599 0.9868400440338037
P 7.471479427921119 4.82510933642331 10.307449615692446 -0.3147937868829869 0.053622413311146366 -0.49042224428600056
P 5.974408537273676 7.09133883751977 2.0809646574067284 0.4981761771998065 0.525843561208088 0.07371121364122143
P 1.3520482392243731 5.996717582638776 12.31132197198534 0.2867003710808805 0.4633382435850149 0.8513513920744692
Ni 2.9154920039704706 1.8676504616066063 11.453268974973852 -0.2269780155195833 -0.7674776360779492 0.22351062579627315
Ni 7.15426604953926 3.1233033019138676 4.38199904058273 0.06906574444941009 0.42836969792963 -0.6731266346991891
Ni 4.2328249668047615 5.8290718040525045 2.0587646169009686 1.9146994957683414 -0.14284457810377332 2.053175255380457
Ni 5.90493179599379 2.4197231233683083 13.323303686936042 -0.5366972160931401 2.013740960644235 -1.1222551624427253
Ni 5.756297203892561 7.708066161190515 12.1373696156472 0.35445279603550567 -0.6323556234294142 -0.15723761360065178
Ni 8.163623333935831 3.6493071744332033 7.677668585754324 -0.565315136940149 0.05633029916061266 -0.40006982254367224
Ni 3.9865571239939053 1.1353225608348798 1.002661799477059 -0.6597882657190701 0.7577496101569079 1.7026626749396223
Ni 3.8114749969526 6.338512480571995 12.072188404841341 -0.8001517292722027 -0.8947865804399686 -1.2239227520875569
Ni 7.847453815647659 8.069657450104028 13.194819289722966 -0.6359438550013048 0.6413619406930825 -0.4465612812369922
Ni 4.353691032873903 7.882400034536345 0.5290892643006789 0.902165389402543 0.29176364453640075 -0.08969756176714874
Ni 4.647911776094795 0.5123043635021747 12.431179281220581 2.029314646712776 0.8242429658934515 -0.9051879782789507
Ni 4.17992989692461 3.6075158198859096 9.626229289861678 -0.30990946220749205 -0.19511639092429622 0.41783434561594485
Ni 2.899362979868 6.780822791597412 4.4215872036933455 1.586932436554138 0.3298856482191028 0.48863404203732613
Ni 8.023893884580755 6.881855515886484 3.172228932128022 -1.2479054881553993 1.5356975496385616 -2.080466744106559
Ni -0.35515445959243586 4.56752531118088 2.7275325232070324 0.6730978383437827 1.036213709370925 1.0864255543386256
Ni 0.49462987219904964 8.553454271578584 3.2861648756990687 0.8375731073434542 0.10742531806421499 -0.1558240210825768
Ni 2.8441122965020926 0.37881959930933645 4.539267187051753 0.028889943561472824 -0.4819044366229765 -0.5324057878066379
Ni 7.633564111141018 1.5834988113248276 6.010628634984658 0.6663404650152911 -0.4213318172462422 0.7670269216937757
Ni 5.1554587241257375 5.445365461472717 10.384934519053907 1.8425335151270523 1.4563113970997499 3.0573663890981995
Ni 4.712021413707135 4.080910991223362 3.6249704539303638 -0.7890792735081249 -0.6095298837841503 1.1942905310434206
Ni 5.0554329091305785 6.863075271900044 8.046259279915514 -1.813275903813516 0.5237774227076786 0.021039080058486346
Ni 0.7546046141870225 1.201981803631802 5.391168799670435 -0.4085112684428061 -1.527464620205808 -0.2557702571609273
Ni 3.0974654551701053 8.369171395392915 8.836129737409289 0.6726975175815705 -0.6043645375331269 -0.9313538380410412
Ni 5.983156639120776 2.460581470221244 2.223198447216663 -0.16519260678167036 -0.4404191728949963 0.5934422341936684
Ni 7.35019766535449 5.6263504787783285 4.894473377763876 -0.5814968889063339 -0.9222773296610697 0.4882064675816043
P 4.421578889763396 3.404424986613968 11.88812261460436 0.7512303209811514 0.6345660008171717 0.49509136762689576
Ni 8.808636494835536 2.959047759207096 9.824450007723069 -1.8133525226877223 -0.8479963595593073 -1.450181372942612
P 7.89331899587032 3.737675012098857 0.9753237502623681 -0.17143267415411118 -1.0412836676946646 -0.1565804396326271
Ni 1.2968622197580748 4.839769566234661 8.399058126022194 0.19831252926409074 0.15748469661445136 -2.010763623183466
P 9.05358334655438 4.110434680244837 5.008475832774521 -0.09887794271483616 -0.03779315958837362 -0.18691740005327165
P 4.466825144089799 1.1376319858209152 7.0612784381315405 -0.4261359235031048 -0.5412570675496806 -0.8575156119036522
P 1.1776497019789345 7.092650590911838 8.25517540677223 0.04966445710466286 -0.18152271140026158 -0.6539076385685771
Ni 0.8998498941787467 8.274669724964351 12.509570402946562 0.18058760118050188 0.01940694377170206 -0.6598720836821281
