# total energy = -381169.9096129875 ev
CRYSTAL
PRIMVEC
9.24894901578048 0.00000000000000 0.00000000000000

0.00000000000000 9.24894901578048 0.00000000000000

0.00000000000000 0.00000000000000 13.53677178268478

PRIMCOORD
 96 1
Ni 3.086892286937753 0.18085580231438 3.5194249453289617 -0.41979146934231576 0.31630302443866176 0.23304376209768896
Ni 4.963911032009888 3.955257628792317 6.841268288622495 1.1397795444797338 0.030007859215999935 1.0402200023168409
Ni 8.188409185044609 2.7939133233436086 2.6644160110043504 -0.8609786307515882 0.5510897373693864 -0.4327667985560611
Ni 1.1968140256047688 3.1643337385327204 2.919340173142924 0.1310763818242517 -1.0473149614904091 1.7517429774060413
Ni 2.0172605616891754 0.44146529352203606 7.127868251958064 -1.1156787947767883 0.8982087187476403 1.5230950303832027
Ni 1.3334487520364477 2.3171577392798604 11.00456993077763 0.9550426970175487 0.8906869564492983 0.29123991082244677
Ni 4.330903700275607 5.930731438026451 8.463460910417503 0.43779304812605896 -0.4343292579471746 2.319798653205805
Ni 4.557928407172783 0.20264170213904795 12.373597540570618 -0.3774577415711112 -1.1866605253019884 -1.1812180141301787
Ni 0.17396626006033833 8.568226532614048 5.838518489674966 0.9313101292872994 -0.6661969974588914 -1.1871194672162781
Ni 9.208614525804533 6.1189753009563885 8.975272786608375 0.6077563368234953 -1.0241390375945782 0.1253207102873971
Ni 1.7544054256174018 7.331235071713862 7.542756689973335 0.22448250279123919 0.1384492772495551 0.18186749633419003
Ni 6.605738248047218 1.1014666083716966 12.711042677201084 2.5573274476580408 -0.33315506299899394 0.08906661305136919
Ni 6.4773350863975185 9.105571982842687 7.997551569072663 0.6038240916486246 0.40608877504424257 -2.3039303187149804
Ni 2.517203261380367 4.796893507478428 8.221301223060516 -1.7428469604679921 -0.8672431236040612 -1.166810837565913
Ni 5.293127378543131 7.055098444600601 6.949358908054008 1.5026136226003992 0.7233428505422639 -1.3055161966903324
Ni 0.870338142717481 2.661579358286785 6.932600737010784 -0.45351071597163184 0.8618414929725158 1.858548659608386
Ni 9.196933102973475 3.552632372512357 9.193363008584885 0.8473006190438633 -0.5834447566613242 -0.2763449959884854
Ni 0.7012867742584283 4.855920301229662 11.075462201448865 -0.19329476433452517 0.0536326977237915 -0.017481444614215056
Ni 2.333500632504309 5.227432092423575 12.92473409894129 0.1182380924090028 0.010544865395381839 -0.858972656065153
Ni 7.791583019908808 3.988109896326692 6.776643105924595 0.3581040196348477 0.9240385353265506 -0.16848567571064532
Ni 9.027640336940479 1.8210348556054758 0.42688062553922185 1.804292983588615 -1.784878069397113 0.34744474014878873
Ni 3.1027079900581866 9.057967641345101 1.0721363406901059 1.379123794874154 0.5660376169284703 0.5748739842731777
Ni 3.2327852115118616 2.3601283572316363 6.2324922788795725 0.3589820513644269 0.3698519041993953 -0.5038189773078806
Ni 2.336201325668734 8.18266558759561 11.870923626182664 0.2901980998214938 -0.30469963587177845 0.2783129183481336
P 5.89366164965996 2.014652358016683 6.406778552581997 0.4171357768870235 -0.28704387046322827 0.1760298066064904
Ni 9.14441756945428 5.0400576307178016 4.113337893718352 0.27880708437573276 -4.076850958639902 -0.6648847064053711
P 0.7802626265245532 0.30403793214449676 2.5981667128281187 -0.27676357158314274 0.952198028479902 0.25203341582631433
Ni 7.0789977293159225 2.6333978100949937 8.517012326246341 -0.8570936938748852 -1.804350319189112 -0.5041768748679317
P 2.789695802511493 8.410346969885506 5.598348251289443 0.23557475604965877 0.05272972629354789 0.09412320163867016
P 6.258356965298458 3.8756796699337124 12.554692890669102 -1.7821262176835888 0.2916736559257557 -2.135506349480206
P 4.221405390776883 7.652784039365913 10.89033338460721 -0.8984609439677623 -0.9722050677294484 0.8747633432405063
Ni 6.511066004105252 6.079019840441608 0.5264668361875544 0.0573073183619013 -0.556005686613765 -0.32038285093499014
Ni 7.806020629599451 3.578011489098597 0.3008165231404926 -2.108299450048111 1.42313233924462 1.0159701286305407
Ni 5.2355526698152355 9.027381366363068 9.773427505347243 0.5609812854514854 0.3619151658508219 1.0163527087809399
Ni 5.326886043098444 1.6263629729862394 4.226748508725815 0.8832186730967112 1.4630224905713385 2.2020878940551816
Ni 5.541452415432331 8.820769090335364 3.4496971173611537 2.097111037531459 0.2482106996461145 -1.190678131101814
Ni 5.283471475585392 5.786540320103898 10.876336024898166 -0.11703738723268231 -0.300911629584256 0.7035396997734077
Ni 4.789272373343201 2.1156138874100496 0.22940908599919294 1.479677582629516 -0.4767681438376757 -0.048305114863291004
Ni 0.044638203491316045 0.5258758283341066 11.886327751063998 0.12595191611349277 -0.9018740834143694 0.3706288915747359
Ni 6.122240180021601 2.091076425200394 10.768353618172215 -1.0509808403777707 0.5400406786440765 -0.23148155981689164
Ni 0.9524475389702743 8.76114111488657 0.5257407936758853 -1.667930927885392 -0.007674485826122267 -0.45623454266069813
Ni 4.136453792437008 7.540612783550343 2.275950895939235 -1.061811355334371 -1.182192462228306 -0.779737941502541
Ni 2.3852577521896587 2.4656958633232344 8.783226680665098 -0.5059509360492189 0.16033322180684 -0.13282138953981643
Ni 4.535092751614683 1.605950542116767 8.151140544270465 0.8950583460441166 -0.2046382143718024 -1.0102237130650666
Ni 4.264662726153649 4.955096783428734 0.8707774678041598 0.883016584388234 -0.10305778512413864 -1.9863165458846954
Ni 2.2956539324055862 6.785991018874199 9.843656626361327 0.5713279187931322 0.1785291759895764 -0.0766381574800293
Ni 7.0583818215642 8.13113969164009 5.320289692533827 0.11431227499203539 -0.29822122723628636 -0.5351046747950398
Ni 5.938223086872973 6.309512903286247 2.817557337061198 1.8783824065048615 -0.8249847291554824 -0.11657870242870888
Ni 6.8159576142602845 3.623303593297875 4.530500648340241 -1.2111834501440175 -0.4645988554649934 -0.48178025234028643
Ni 0.34059440383076306 6.2777150159599024 0.36614925045167473 -0.23634223034330268 2.3419037126349598 -0.5374523490916099
Ni 7.070590434499271 4.2735694642267354 10.152862871315003 -0.04530129503996069 1.1824935384084925 0.14456490322898974
Ni 1.6981810634717187 0.12706761338619535 9.754246109615393 -0.9397970837123879 -0.324767353155931 -0.536349088725102
Ni 6.9703133273462035 7.235193983291296 9.329205100070704 0.2217440208141536 -1.6628776817322006 -1.8280268368704455
Ni 3.796860124908953 8.584560176889305 7.891518840836645 0.34978804356998466 -0.964642939111474 1.6228882858234566
Ni 8.062780708152882 7.758360794406705 1.7978458901881937 -0.7300727130669298 0.43495814978042513 -0.014032566833666157
Ni 4.677933522955024 3.501319202388282 9.50255722990461 0.409468747260069 0.6425153375712354 -0.4596906195300986
P 4.90047248949348 4.850796383376609 4.073525791916067 1.128718658679882 -0.7513925575906285 1.1157770109175493
Ni 3.2338210938215037 5.203292335029228 2.8588039508833543 -1.7980038081457939 0.8220228183136812 1.36471584697894
P 7.874231629899568 5.093701536038572 2.0554642712267572 -0.09061570270604394 -0.1389511565866381 0.11816712996175133
Ni 4.998344869856306 9.160445998406157 5.975361317463493 -0.5239268038013493 0.974246266529193 -0.8191215855064861
P 8.889923483453192 6.9134045429602216 4.298913434806041 -1.0510615730170352 4.870293651323045 1.4372178708034085
P 4.731355453495156 1.5328468476934276 2.2907057445872048 -1.3274873016447848 -1.1172574521178178 -1.1889611484107074
P 1.5863890145730724 3.52503350811974 5.176881035713022 0.8782528444510036 1.133499882118609 -1.7050843970072378
Ni 0.2986948141955642 7.400491203272814 10.961306121136428 -1.4006961217282907 0.1363761967706103 0.49414340189132966
Ni 7.978273059374282 5.5555663119012095 12.220415519137319 -0.506290835887141 0.2797619920898343 -0.9480166434087027
Ni 8.881025994329297 8.437973581125704 8.19234646271617 0.6639981900353596 1.6744101078518323 1.9076796128070823
Ni 8.39532667639569 6.839449945211105 6.857444700761465 -1.5025164349009026 -2.830733158512544 -0.8234911753290914
Ni 5.574008716592522 3.545214715259381 2.1202920059119887 1.1103450412687006 0.2954567771172718 1.290335632295152
Ni 7.983489466719267 0.5524147631491786 3.8642877392124033 0.707045398933821 0.2312200786253889 -0.732770314503751
Ni 2.4756107368583837 0.9958806043817118 12.931867813454033 -1.3981515009295664 3.173623446521431 -1.4180148155123966
Ni 6.459484614454573 5.739509413456292 5.394431119056648 0.5313912304991946 0.38327383403225607 0.21738882916925142
Ni 3.6587548155555494 1.299468112700498 10.262145680297523 -0.30413656427945684 0.640239139942549 1.9655805988889246
Ni 2.979770957381691 2.949869104639958 1.2491649278283246 0.03958110472673184 -0.2118828117493577 1.207835616717707
Ni 6.872672170713209 7.863419608292674 11.408845199593662 -1.1553761133664102 0.09511153369386846 1.8418418883766665
Ni 7.6834905506874565 0.45233003413933065 10.077490409654562 0.7095972188213973 0.4438305125693905 -0.6165304834716995
Ni 3.8822001791149434 3.29671394833551 12.026095096587426 0.579299367034383 -0.08844080654191219 0.1639844454061821
Ni 6.811018675391097 1.2082179799600292 1.5462781717118455 0.0031339176432913767 -0.09815777671935998 1.0236376724781273
Ni 1.9650317455949706 6.754637081109128 4.460149441196809 0.25838018397994855 0.016863094303925796 1.8219682893811913
Ni 4.506698477591447 7.11037016497938 4.499771939540633 -0.8796697794031882 -0.32029029122118385 2.1862421852721767
Ni 0.5555353586069766 4.246164827767176 1.0714676416634348 0.1795848709476004 0.15450453094020486 1.6209872121460018
Ni 5.928354458083789 8.470622371777827 0.5369995395288117 1.3946468302104176 0.30264506733559493 0.7904427295145547
Ni 8.77726203333038 2.617517364330207 4.9583163426429 0.6088104891196224 1.0379042096994706 -1.1165876797443026
Ni 8.335596962505772 2.7737783609499336 11.635884704809547 -0.3011000914459782 0.12625324940399546 -0.13902494724736703
Ni 3.390359558917027 3.1272547012170357 3.566005428150857 1.0711562868843811 -1.6891579555849685 2.0042384204704384
Ni 1.0583665051312157 7.422494453403523 2.5780779951804096 0.033470363843303645 -0.2387575246530146 -1.1156096321017497
Ni 3.315332083061495 5.1240935830875465 5.69619288480469 0.24956952766685406 -0.43188131062731433 -0.6098967802052657
Ni 4.326834162630583 7.112034975834162 13.448092363305 -1.6162478976888035 -0.4620799456978816 -1.6862826909197022
Ni 1.1340691542778543 5.4727142250281995 6.456133720161865 -1.5188560526011905 -1.6966630057127619 -0.8316536565352258
P 8.229557760005317 8.011180820603817 12.976890773231789 0.7717184136321742 -0.20111606015115685 1.1210698838853725
Ni 1.3663565132659823 1.165848543705814 5.095566124195929 0.3527450693157796 0.044021399886272565 -2.4294209789213386
P 6.483800101883591 5.37129024817517 7.896215457236972 0.38071610060740885 0.19244167230561052 0.4457850651926
Ni 8.075479515395195 1.1347165807213808 6.44221775120572 -1.8638667293871898 -0.45592446761944705 -0.003348090536626492
P 2.5482334859236744 6.343641525809289 1.2912763184000484 -0.6712121912852956 1.1641584875447306 -2.2329629863674834
P 9.030082059527492 1.3469892136553456 8.301966858344244 0.29484176924109223 0.37796322045262004 2.1213087178235854
P 1.6231073428702203 3.139463314152108 13.307323356583943 -0.3333414679781872 -1.6421653888855139 -3.846517139274208
Ni 2.957804703047755 4.617611876316737 10.44196837498702 -0.7578452551945076 0.43667718935406086 0.36425692661012105
