# total energy = -340875.99080910865 ev
CRYSTAL
PRIMVEC
9.17212986466045 0.00000000000000 0.00000000000000
0.00000000000000 9.17212986466045 0.00000000000000
0.00000000000000 0.00000000000000 13.42433919002383
PRIMCOORD
 96 1
Ni 5.515926124465617 -0.06904503996172101 0.5942998822726393 -0.9655957899430467 0.24278515775516893 -0.18339884537705187
Ni 2.865391630128933 6.673375502476097 3.0038036518012037 -0.4131929901891916 -0.16046023430300752 -0.27564179927387367
Ni 2.1641639782361244 2.112607437775581 4.333040596658804 1.1191520980373693 -0.6122033168512553 0.2874657884919953
Ni 7.400321805756802 7.979349175038719 8.572876763999355 -1.8207480438208448 -1.8223195020730225 0.7130684651994493
Ni 8.32444137896818 4.969202995621706 5.634597888820829 0.042983445540061456 0.3538442159172293 -0.5018785657520582
Ni 6.683235541792071 6.198488492630048 10.292574934621324 1.1238312486805935 3.692142191933332 -3.976396158356248
Ni 7.881913642337714 7.584837536844644 5.805260952579449 -0.07870789552486444 -0.452409255377337 -0.10182931203367625
Ni 3.37566471595733 4.530344110829742 0.6943320448623448 0.1604599771926914 0.8838491075918584 -0.4733406062133654
Ni 5.775020441300599 5.49740759481078 4.860885648367704 0.29809138652664147 0.673936275084678 1.4779585430558804
Ni 7.81448931767565 9.098174715319374 1.3159841348039731 0.25298935198168043 0.5160913669173305 1.174544715875061
Ni 2.746043879822476 2.2271214757848115 6.588746097117381 -1.6892541148432003 -0.500208634248803 -0.15461765947930145
Ni 0.31383725511726435 7.04338838251858 7.521817668814701 1.3664202312645564 0.364744664879817 -0.4194232873696196
Ni 3.147498820120916 8.664204575602215 6.714854624149236 -0.05533296824434986 -0.10202445876361785 0.40491249534795426
Ni 6.603493047082239 6.65478359578449 1.5428861111820231 -0.1886492951427138 1.6007801410705076 0.9870593591334613
Ni 1.4554335243335799 5.962434565340856 1.1757239290180574 -0.2555033766527858 -0.1285603002706173 0.1309668528295809
Ni 0.9802621784700468 4.57351732483931 7.5309604475962475 -0.34396809445409793 -0.09563809562129981 0.4529322177603426
Ni 0.46602489823014875 5.170320281278767 3.2476832400619196 -0.010019846129847259 0.25721136048282794 0.8463732221335875
Ni 6.908117815233025 2.9233870055660467 7.97334601621797 1.1527972968956404 0.38554000435861346 1.020430478394739
Ni 4.587275519233691 2.951875640092011 4.539319039639677 -0.4356765160036884 0.45934120661047995 0.31479095866950946
Ni 2.4829229980947387 2.709593836806963 13.096449091548182 -2.885368072248605 -2.4044596809903105 -0.07985023665942377
Ni 7.761217588980607 8.489337924849632 11.136777742660541 -1.2438583146692193 0.0944762141027147 0.20476419842670543
Ni 6.5313725920668935 5.8068385588700036 7.174114159589189 1.4683012224717746 -1.5908788227963957 1.0603224294936706
Ni 6.203129590205752 7.184804276633622 12.42054752389655 -0.5558632474986297 0.7924757007841836 0.7750369364824459
Ni 9.017918581352152 6.265958677940092 10.91834989681647 -1.115996326017207 0.4151120615887754 0.2544011447275425
P 5.48918019456294 7.975249233109193 9.892663663733934 -0.44130363238247866 0.10550470400273441 1.0890879316621371
P 1.3707197353825784 3.076745012415413 11.057198511857521 0.47201391698214196 0.2337575003352619 -1.0968086973451627
P 0.7136944104400369 7.996959663863526 1.456809343773018 -0.20577258508656174 -1.6934267581636513 0.4480772036608864
P 7.753852368914815 1.6081769984999974 3.0463045487113654 -0.6121642360832038 -0.4169743116084948 -0.03916484312491964
P 7.6019343864120605 5.960086500164215 3.6731003689305735 0.6079931354246497 -0.2277398333862723 -0.7971039435848143
P 1.1254845063675358 3.7228023047867542 1.3304054741681632 -0.22855615863998058 0.7125321330800052 0.3456215708971209
P 4.834482756111928 8.055010072078218 2.581836160873701 0.3331401506006585 -0.5313176969487817 -0.18632758898807264
P 3.9061990360638523 0.7706138950755103 5.083260261577044 0.23439359125736406 1.6305005509530757 -0.1191464631558851
Ni 0.3158230211748534 2.802452476839438 3.3988546112155387 -1.4229618751050266 1.1266383791120853 -0.5963061860050246
Ni 3.7291585905969584 3.5237670925480433 11.6028705146497 1.468972023286554 1.3935481978296 -3.7943049760470267
Ni 7.30931593590277 0.6474633798384466 7.257680515127698 1.0009893389509923 0.3671216497524258 -0.6302504041609532
Ni 3.340819795621161 4.3605496477438885 6.509851107182244 0.26598036492470967 1.5124907725047951 -0.41183596194066496
Ni 5.738827217913781 5.05609057928702 11.65564144506879 -3.1409447253414875 -3.757076173602555 0.7769904606643909
Ni 0.29029423286959966 7.641347027287164 3.696714016576129 -0.5944038267759892 -1.2073519922130689 -0.40274865492741607
Ni 5.413821977800117 0.7910851711213894 8.855499427674648 -0.6372180937280381 -1.5529082570898933 1.243674223682871
Ni 7.206111133685721 1.586888485707092 10.079879669774911 0.6206159663949827 -0.25728669380545366 0.17645532417968318
Ni 7.311581451913045 2.9551134018394896 12.435864063109335 -0.2758181769507379 0.8627300662250561 -1.583738097986556
Ni 6.824999976831773 3.7773489594956766 3.839884539082936 1.027674304441346 0.08115404307251184 -2.819604138478918
Ni 5.916078622361388 -0.009748139334898721 5.267120185398752 0.30953536669752496 1.7236091952843027 0.9780980361751155
Ni 0.0851989946066435 2.071947387275387 0.31574414086032554 -1.0303474803981352 0.39250178038842726 0.508802289455085
Ni 5.8926805197613445 4.734130486199313 0.45848265606314914 -2.3908271778085406 -0.6197695592342874 -0.047173058141376824
Ni 1.7298911582422876 6.694902490638506 12.35823115820664 0.4469073517225013 0.3235067412759525 -0.43135706269272805
Ni 0.5732397555066806 4.284173324595882 12.552804129396774 -0.5964316558392954 1.0869184348146441 0.9025657101647552
Ni 6.750072850159973 2.389037079547483 1.1693272858376298 1.0850469288235443 -0.6957834528667566 2.654564255225028
Ni 4.871639053106353 1.9449317366264618 7.045308109243075 0.855765719092081 0.10807220761959452 -1.381990832009304
Ni 1.1288323336701687 0.6507882768170887 7.254217118992154 -1.0856328832340014 -0.5919216837840838 0.4692031870062242
Ni 4.360283655985597 6.877565451547904 0.6488116828890961 -0.6971726199047994 -0.4621151698111912 -0.3495651289259012
Ni 0.14587905237658091 8.80784012507955 9.234428534897647 1.2224243131651593 0.8589284330907788 0.11165966786053674
Ni 2.3469003161822926 1.9562960051962206 1.8298315995360306 0.80236210665996 -0.1844763947119468 0.7686698566138375
Ni 4.8745649624475575 4.4368984545031065 8.616572789395908 0.25336550437417654 0.008944867898113627 -1.2074712913997527
Ni 4.303746649154288 6.49151968897117 7.476859558385703 -0.832210043259328 0.4517366547903446 -0.6122038310718876
Ni 8.556129372569554 0.5720106901407827 4.827002884426183 0.4879107907180565 -0.685081235957904 -0.13969471962088198
P 8.284120697263045 5.767554327809248 8.74445337186576 -0.19405426820836905 -0.7770704219727068 0.5512524881994958
P 3.6971386861764355 5.690719398181429 12.268757951208144 0.06362631860139364 0.30715992448681295 -0.31913175213670847
P 4.912629300272012 3.2020821633482233 2.092706668190589 -0.5504896418915423 -0.12495587074881061 0.6186943238922378
P 0.9790881458817263 8.332604574308844 5.678200358495501 -0.3399630870597629 0.3371402728989871 0.2193624079558545
P 5.611252067359484 3.1233944635419606 10.022624485196218 -0.44623912201088306 -1.456197240119389 1.575591557620022
P 1.184965766799243 3.9811811955132286 5.374555173785595 1.3533019487150435 1.067681440961903 -0.9094130721038919
P 5.859816779417967 3.7573812333646317 6.377353274673637 -0.5838782446543169 1.6211587047268599 -1.1338966033363955
P 2.3545315280063757 6.323403725601431 8.287784045823791 -0.8106893955787328 -0.3156970154235466 -0.5480141837678562
Ni 4.375830415651248 7.528584866030817 4.9259536529364905 -0.36901321034818385 -1.0127145978077203 -0.5479535057332499
Ni 6.929589770617856 2.137546458147795 5.318897774182566 -1.2959313812153745 -0.35850279773516325 0.3172597319249762
Ni 2.4672203122259515 8.794081930685172 3.9826524051004677 -0.49625196359390017 0.526963533745144 1.1135604628822047
Ni 2.8024249604506495 4.077323457941162 2.8986506892579094 -0.9143398199815479 -0.3945216390319335 1.0149262607470584
Ni 2.9244601447288088 8.674926795100236 1.7076835980638376 0.303716960243535 0.7031193244065376 -1.5968463532337402
Ni 4.7897411079414 5.283761180125236 2.601529640329818 1.4273916287416064 0.3219391396785165 -0.08423216777720333
Ni 1.6013437619507882 5.083808754926899 10.032706490048419 -0.14925948049118165 -0.5162448617760593 0.4145816430066021
Ni 2.785107979772922 3.2408068945036077 9.00585172765532 -0.24025005003814107 -0.563583756071339 0.04900754024695431
Ni 6.836822851881344 7.975973831347298 3.5925947530383326 0.23398967095072604 -0.002273883635841245 -0.9668574302642897
Ni 3.766388264628153 6.142116584131471 9.90249068338336 1.2245475301557491 -0.43295320353525435 0.5941109781259187
Ni 8.38550024569044 7.251852543982239 -0.012654787203951603 1.1944944195241105 -1.0637749068186455 -0.7935792182610075
Ni 3.867327550834928 7.813874784992701 11.509316627193831 0.34035518029185896 1.5353363096444008 1.086848243698341
Ni 2.6387116192871125 8.372567542959723 9.424677764196105 -0.05338124383461774 -0.299644075725742 -0.6413292876829342
Ni 1.8193194218057638 6.374767651340454 5.292183029520516 0.04437312679873648 -0.9918788920092918 0.7429035462830108
Ni 7.472121236236279 4.077149187478834 10.276331093106359 1.9149658620558503 -0.0873822833704108 -0.6412912353561472
Ni 2.427064728853552 1.2867672331880657 10.842717433378718 1.8732553696909415 -1.0427533102616557 -0.2625194029593027
Ni 4.823668815317944 2.621091958332708 13.380964882772142 -0.2710138135835591 -0.3476740825507755 0.8115118914800282
Ni 0.09245873518207852 1.1178166060250676 11.107982759006061 -0.4928917888724157 2.2383119093842225 1.320701646181519
Ni 5.150765300979554 1.125631260441076 11.739194959625864 1.270634554321799 -0.7328567035699701 -2.142852505432632
Ni 9.001482125115666 2.5976204786958945 6.079882767607929 0.2353148175200528 -0.6014244810681965 0.6503281487474347
Ni 7.806491220667717 4.703834942142886 1.380115664940981 3.66841373796814 -0.6742252670800066 1.154213717627193
Ni 1.3482663621309485 0.20387259338777552 0.012602506065252955 0.5408562325668362 -0.43168719233863717 -1.9382657131240557
Ni 0.655899904641081 0.5544176283622079 2.6131681555745048 -0.18219788309041524 0.9383991749235968 0.34862487649981894
Ni 4.8389587553549 1.1400498481663872 2.9061278093047758 0.13328495943979624 -0.5682729340168923 0.2637388771887006
P 3.4540038748389352 0.5582213105057744 12.835989961829277 -0.1645529163151424 -0.17444857816229958 1.297403851995843
P 5.9410084706040065 7.7752050866148945 6.925831031909311 -0.34948131096284324 1.583995465413001 -0.899881735574689
P 3.671429206918136 5.37383149276045 4.513275694864073 -0.3458218598333851 -0.3132835208860475 0.781425356507293
P 3.178867503340105 1.1194675893523933 8.452769561362327 -0.27339954020691626 -0.20704502404108216 0.5622804638788832
P 0.8350976349890141 8.331678189219623 11.238480150049723 0.7498025873956893 -0.40034724457477505 -0.06632083471442127
P 7.681429233622794 5.220574379336642 12.564442644641462 0.6185102329058896 0.7723221086544441 0.12970007030201536
P 9.139605224705653 2.225287049865561 8.168710542192262 -0.992339633695794 0.1266527988352593 1.3513111435372598
P 7.236470882649321 0.916601178581327 12.929209066554886 0.09398719028143813 -1.1489005329443955 -1.242278628886925
