# total energy = -340861.63897681254 ev
CRYSTAL
PRIMVEC
9.39765649374368 0.00000000000000 0.00000000000000
0.00000000000000 9.39765649374368 0.00000000000000
0.00000000000000 0.00000000000000 13.75442020827161
PRIMCOORD
 96 1
Ni 0.4757826715037834 5.0329055171502555 2.9153043348019234 0.8009569987823173 -0.3225397493769929 0.418180416101454
Ni 7.207062735814147 0.7670771298303751 3.13413722326182 0.19980839708332684 1.4856227444693575 0.15477783920624955
Ni 2.086373709711956 1.2551603938689182 8.746820818019383 -0.221602867250599 0.6705622164061227 -0.010204708447143716
Ni 4.146875671201593 3.996390998377767 0.8142768593787211 -1.1244845659938763 0.9914839705637183 0.54207930634066
Ni 0.5026327157631322 7.532127672614005 6.007229164796394 0.26378052905991345 0.7707030849937824 -0.010225020162117874
Ni 4.543936054107947 5.898937150161361 12.830906987378404 0.9182126726733928 -0.19986933222824932 0.26015784470566167
Ni 9.317879749967167 2.573764366469719 13.107219701783448 -0.41704321717321724 -0.15990719001301493 0.7319277639977976
Ni 8.095319826342791 7.97807466440249 3.441521409206077 -0.5899930993028033 -2.3960578300798603 0.4599680415612013
Ni 8.184907685334206 4.905990166717121 12.239329212325421 0.7884159288925132 -0.18950547249542202 0.9302585480943333
Ni 3.4190929623090964 3.1106148891534056 5.089080008613717 1.9495207172125844 -0.2340477778821711 0.6063347738856203
Ni 3.6198926877963062 1.6697568037214578 1.805913809513047 0.11823680685742219 -1.634342036186353 0.06618868001193118
Ni 3.920016244362952 9.36128752513567 0.2083845740125394 1.0375324281823486 -0.46299808663677683 -0.524409914085355
Ni 8.514859403490988 3.0906918574674935 10.777949464491337 0.6335979804769475 -0.5629965161093013 -2.2956608796173366
Ni 1.8858559139184148 5.160591475412748 10.16591956969399 -0.5607128622814472 0.3677988783251085 -0.11066079428237717
Ni 3.0164409738116484 1.2404342662029633 10.888865304808778 -1.2977807757192876 0.25263813928984874 0.5633011918339137
Ni 1.413012829353949 2.8782202426624055 11.29533650088979 0.5899036249127906 0.14956518465705854 -0.2902726618131711
Ni 7.081087151026575 3.820776992191616 3.5428770136112178 0.345055928201638 -1.2450474498813138 0.38322678284440453
Ni 2.5207521864035733 7.128404351280617 13.263277184885455 0.5363498600560506 1.5326975864699732 0.6918483794784085
Ni 6.966294777421191 4.368444217455719 7.132712236999873 -0.8299652130892092 -0.5535891067524724 0.19733165340806014
Ni 8.142561845345188 0.15087373580108834 5.329988931853508 -0.4117326035935812 0.15102814235583023 1.6009711740353914
Ni 6.6642728942505105 0.4063678218599998 9.258361572336797 0.11848388987122176 -1.6807532764610407 -1.3158538311709145
Ni 4.320412795311051 5.436779200986933 7.699903093550524 0.5592681594151206 -1.2584434115722456 0.2498135253568601
Ni 2.2411437138795436 4.8830410896525 12.68274447546476 2.410032547092398 -2.0589913478416024 -1.4965093094748743
Ni 7.494734397577098 0.7447952863741026 11.43882179918547 2.4393701197142503 1.5187940890150036 -0.576280377702401
P 1.9605860780534965 5.947278694969065 5.595436075864566 0.6622950913013238 -0.30695886421960034 -0.6181065697095677
P 7.066783917901123 2.4587746420787666 5.242249591886913 -0.0248517689363572 -0.3188363323834767 0.15339252882294874
P 0.3067432657739837 0.6531361838998692 11.070588727456727 -0.055119309571647006 1.918045786532755 1.4567124891929106
P 7.558271952873537 7.71494028364516 9.802294168925437 -0.5266827692799317 1.707576310191156 0.9336027819762179
P 9.339315804342434 3.3224098726936893 1.806505861869751 0.135397892017741 -0.326762786319405 -1.2060183610033102
P 7.176294808578451 2.7894875704084514 12.32338279143012 0.3069670917497165 -1.7249122303664421 2.9425548058722417
P 6.87823873643204 6.234207941872022 13.543179804056544 0.17326175694304996 1.0156842219590057 0.3932898235073614
P 7.357556806294428 5.9264440906069575 4.182540717216312 -0.6841525534960475 0.6780515828046323 0.4805816040464949
Ni 6.313054279534663 8.634256628759625 12.431094030896197 -0.37286395155284174 -1.2390727203551177 3.7941573947255685
Ni 2.2520355977116058 0.9215933972736613 6.230147214517548 0.9991561423969954 0.3102498762660464 -0.15362315677651608
Ni 7.431892268858373 1.839074380082344 7.32215207536353 -1.3608447940593078 -1.453546432760103 0.13106121231560008
Ni 6.57840650721552 6.287924946172339 11.436029755452509 0.03540409053090677 1.3324392463334211 -1.2722481786658217
Ni 2.2022280184968257 2.9386659689849464 0.5709846904617852 -2.346082526602998 -0.3683539794976301 -1.5758283562211763
Ni 2.8724782745680226 4.975025351040099 3.419362675049373 1.0864551220249805 2.0230655804792703 0.1225536890652212
Ni 1.986119510643413 0.9022144898965295 3.9181799422915238 0.7067468938567958 -0.9257665737612507 -0.47870109919433046
Ni 8.197303194199169 0.3395486049292582 13.857303049445127 -0.047988354953820575 -0.6741823296572131 -0.6069045303461612
Ni 5.293934822861526 8.099802508472122 10.618591524442115 -1.2946694837838153 1.6958219978687052 -1.2020712034301038
Ni 7.465554674282401 2.475502470569768 1.1447492077031425 0.27518080047705507 -0.411598134898246 0.27334323304768404
Ni 4.311391045113657 7.85068003349012 6.6992274774371845 0.5216742603217467 -0.011298969952586993 -1.226428806338862
Ni 0.4745816510087553 4.984037703581036 0.16978839894931252 -0.5346534461902341 0.5927711762685727 2.1801633260679485
Ni 1.6145079814188743 8.510451902613301 10.680045619302344 1.811576918844538 -0.8166564117954451 0.055503175273627
Ni 7.2343911207870875 6.810246691975638 6.575356027930026 -0.396864171122181 -0.05594591923800042 -1.939116491160125
Ni 5.390824660918957 2.09046169027015 13.650147688896983 0.42486579854142953 -0.8374754054233254 -0.5414450151907707
Ni 1.0148059323600087 7.164030866903868 3.6089810688856865 0.5487153235999389 1.2508910531462845 1.0009340602330246
Ni 5.1877131119436655 9.046080729957758 2.742934399624252 -2.0203867480955267 -1.6980429167794238 -0.9694395891691691
Ni 8.986903687256724 8.009678983062736 11.776562295012669 -2.240516373234709 0.2256166163956824 0.06402946757708329
Ni 6.433973925149113 2.6713026428225883 9.438586068780074 -0.43155400919488257 0.1766684686317538 -0.737285428765285
Ni 8.898575114230363 5.530530221788188 7.502045774299569 0.6502481874391189 0.14301375669178595 1.9135964925121496
Ni -0.07712562676561888 7.854006803875408 1.2778500956153644 0.2561582366279653 -0.2313373209295435 0.050945894920247745
Ni 5.2320794480706425 1.2009923020587305 11.053519764036386 0.5997545495649412 0.726034281331498 0.27835765554313996
Ni 5.932543169646654 4.008730121303994 11.311180949673965 -0.12319723618649105 1.315893169049282 1.196830523856455
Ni 2.223034429889566 8.533400979677923 1.5979060815243777 0.5449275744227324 1.2853206955790637 0.9577073883339056
P 3.766411549595861 7.303924380902211 8.619523922734151 -1.7451059317054978 0.4585840167294812 1.488149110435637
P 4.15336005415597 1.3351814385885132 8.855796982044385 2.1611178794007233 0.9279260433064147 0.3774739395210273
P 0.18869836326930892 3.8330221385532877 8.963576824402589 0.2034233681280948 0.7664206555683446 0.1803148071350895
P 6.32689702749379 0.3881899349778961 1.1279349207727491 -0.8275712589357359 0.7932256915763306 -0.8698188547510374
P 0.8876415440308013 0.030849686846860215 7.548287882655087 -0.04454513360022651 -1.646470444018771 -1.1555326935489325
P 4.20385366229201 3.311217263855047 2.906941360322068 0.9483902246980377 0.8756843123928788 1.043697676452796
P -0.02660288589456603 0.17761476724555197 3.476787054821432 1.491453749328838 -0.2753247822540871 0.06279379539776928
P 1.8087951309823398 6.476037835444462 1.7277206089740698 -0.7085752053147861 -1.3294845345804716 -0.8292694725737655
Ni 9.185335203317118 5.382629904489658 5.24788912552593 -1.0344373341967925 -0.29375213572133924 -0.850810946189967
Ni 4.051959340999842 3.906981694859008 10.214114511060988 -2.240555711113077 -2.4638819888126857 -1.159442827236616
Ni 5.965322195363853 7.5410084579645655 8.381626948388387 -0.19516524188436066 0.005344295031048861 -0.5832940900160728
Ni 9.128836492705938 1.0414764813810553 9.018759863109983 -1.5440266383295473 0.9566288105577462 0.3600572867064767
Ni 1.1762012843288079 -0.06894590658664818 13.172415943444303 0.23719300837937213 0.5864442056092803 -0.39078479769732055
Ni 4.422057847535026 6.104661247631315 10.230853616739735 -0.05747495428801715 -1.0740549485884148 0.18463965976268845
Ni 6.02281705755933 8.207170733477568 4.787404898966249 0.17129100636992436 -0.3204856950614416 0.10555355496279885
Ni 5.285458136738558 5.341515157496325 5.454507879890459 0.9233139984557001 -0.28827440043621966 -0.3157690063120626
Ni 1.5425783189075672 7.345527806031237 8.681955373865764 0.9972869503987407 -0.5593080115141207 -0.6604984044122174
Ni 8.853579135120858 6.130758539608569 9.993672743815887 1.1891462678383198 -1.3930272923291234 0.3581114758340155
Ni 1.3893025421164225 3.675846334333061 5.129463617934803 -0.6630036873325742 1.3287178316177761 -0.025961457060768193
Ni 1.6094238492763844 4.5488134378084135 7.428046747836734 0.9665846362188772 -0.18989705150688585 0.09929446142696448
Ni 9.173907653067086 2.17997436800992 4.310786775803561 -0.39856161342926194 0.4524989868776658 -0.8131126603082449
Ni 9.056032848144257 3.088342443353589 6.485772867766839 0.45430852928257887 0.9953249415763633 0.8277831178362259
Ni 5.738143248205722 5.519863881711061 2.7048203243371987 -1.8945469320798665 0.428467656960075 -0.07178108649804413
Ni 4.834784123752897 1.5092166384901198 4.059437996007222 0.5132181591345936 0.07610799600817214 0.8055816420385223
Ni 4.979254296445126 1.7120932460540212 6.677633542433464 -0.47235613081290906 0.6322185836309177 0.26485139352658904
Ni 0.5137867942103063 1.134917379519274 1.6212611373478818 0.4199848163000445 0.3069858608027939 -0.1428893152987797
Ni 8.828233655660055 7.938031250245098 8.0035460724598 -1.830189648849719 0.7224823023141815 0.8551262857358694
Ni 6.189061600259228 4.36458178065246 0.3808052565350708 1.9559176218778633 -0.03420158558237336 -0.764649936821167
Ni 1.9237472647474703 3.0425100728195353 2.9436251122965764 -1.1038882298997634 -1.4572681045860645 -0.6243980591452343
Ni 6.879112718482413 7.666448376334166 1.4522875152132717 -0.5593931150287592 0.02427789871075819 -0.9716975319654103
Ni 7.938942822921292 5.428819385969025 1.8682494045488127 -0.535589070630626 0.5445488509270751 -1.1212094947870304
Ni 3.86714502914364 6.879996098189242 4.446349849707155 -0.6450769276508245 -1.264446680343532 -0.9491780107066558
P 0.9283503122652514 6.433024761847095 12.087136985323609 -0.794821832418857 -1.2635601639735208 -1.6266053296637275
P 3.5907599527838876 2.651999856462747 12.56744086934819 -1.157775466836522 0.8202405296022777 -0.6616885680655766
P 4.119894999517511 6.7778623678295755 1.8959367799983573 0.0019188142892676632 0.3697644866919116 0.06691116000025252
P 3.44366783394054 3.3357169542348455 7.658337259047322 0.3657113996684605 -0.21923822367316434 -0.2484325858489334
P 6.10741476097281 9.268720609047826 6.67339707890327 1.2309634609844218 -0.8176941090313402 1.1489565829933115
P 6.240043886530961 4.832594469798738 9.225130519344082 -0.8369159333754296 0.33157486299606764 -0.2693914474887877
P 3.622279692536033 8.83802601368681 11.878605807870361 0.3320140074160153 -0.9947420724896998 0.5901733336344094
P 3.7518733750590183 8.847780781087742 4.883080559809614 -0.8072310047164872 3.55344094657397 -0.7916408635877141
