# total energy = -340891.42055670195 ev
CRYSTAL
PRIMVEC
9.06529629263831 0.00000000000000 0.00000000000000
0.00000000000000 9.06529629263831 0.00000000000000
0.00000000000000 0.00000000000000 13.26797745847067
PRIMCOORD
 96 1
Ni 6.377036951870543 2.0282058982407603 11.287147628223645 -0.5437098999655474 -0.5533481943862599 0.6308157897461201
Ni 4.804697599936466 0.43154526332924953 5.776386748070407 -0.8092999714303739 -0.7641714545228516 1.2452834771515198
Ni 2.7378735401973766 1.6027715510302956 4.6629508166453455 0.2211056158992063 -0.42280685912987176 1.0565418794053159
Ni 3.53696126314449 4.292671544126931 4.9216236024335895 0.1711565376745891 -0.6351925786575771 -0.47494420325505954
Ni 5.014069679271068 4.537090058286074 2.375763912548045 0.6537132631695838 0.02517598504499535 0.4741703012035124
Ni 7.377872840109983 6.371389272383816 2.6879065344784476 -0.6329202376836325 -0.021598037885749898 -0.36635134724530455
Ni 5.187942058974812 4.445068237307309 11.938273400855401 1.2411118622723336 0.06463804769535965 -1.1992589307922894
Ni 5.351180846322326 7.962647897333623 12.035806921878997 1.0460785179801468 -0.11991805121458703 1.1525720682587117
Ni 1.8591109295956123 6.33528219791249 0.44266656861707815 -0.43246495104492616 -0.07258198513278467 -0.049053820103857455
Ni 2.9404103862526974 1.5380634672802787 0.3902537460032545 -0.986019347904721 0.6826589996696566 -1.3315853829735582
Ni 0.34162659105180226 0.033152694463741535 4.922657952721607 1.5972196774127587 1.0732527644020935 -1.016966173995223
Ni 8.618531137372496 2.414994888064517 1.4568637968171725 0.13827881310996185 -0.03556735558164842 0.36460042599246884
Ni 7.152310141893687 0.5703177229613081 5.058588442018051 -0.7077069437772198 0.12000546872207073 -1.3881321690203512
Ni 0.6068898471239158 7.652215896782268 2.67449261580026 0.7587883358340674 -0.8777231971997786 0.12206955033995105
Ni 7.50505894476293 4.002328239791607 3.722264981263585 1.35269516836898 0.44386008025574525 0.18716036930201316
Ni 7.696055668849384 3.9016581263082872 12.621958997584233 -0.4595355820094731 -0.8308465872528982 -0.5420258273949052
Ni 7.935180050070728 8.793427895538521 7.218933722715206 0.005301871828887643 0.33600744484612455 -0.3590118761610978
Ni 6.917673082254897 0.8666223660293321 0.2998373889684697 -0.48920045606375756 -1.2591890314890186 0.7367910056273698
Ni 1.8932055083268835 6.440194869982951 9.190330129720852 0.04100729565029712 0.6867218568851206 0.28467022802472913
Ni 0.02982119813730118 5.062650601212276 1.5429061484709845 -0.09250623486053745 -1.0813422262784476 0.11008949515993943
Ni 6.55065550328275 1.970876965537607 6.909909562652274 -0.2577942295694915 0.0910533044640948 1.2482024505705278
Ni 3.4495718084863 4.253772358448685 0.40315456892068924 -0.19924789659416653 0.1313157515285674 0.17833968568658962
Ni 5.984835980259345 5.557679226784869 4.854646475063143 -0.1949821793392771 0.35617414960198657 0.04178428302563771
Ni 5.39897308750054 2.655352149559046 9.067826250517175 -0.7791956958458258 1.67380127062324 0.21539725266051937
P 0.04729908906893927 5.467624575065527 12.60266804742732 1.5513918204453667 1.3499803405409783 -0.6034975615471413
P 4.171323490179365 6.138447423120655 12.527213055119494 -2.171170892761351 0.5000497400734355 0.5920093584018837
P 2.2689710980609763 8.3176086324577 1.4709811824747658 0.8778052153906238 0.3627687721003688 -0.432768598328274
P 6.384416102917407 7.640041204084554 5.893675362412585 -1.1889966296343328 1.144958517577512 -0.19654489584070667
P 4.757965998405037 0.918377954673994 12.455923566381735 -0.6364889288714974 1.294194858140242 0.41373832116970033
P 3.9188459277638814 6.30695314751759 8.12455317962095 0.5383298666005567 0.49286659206143507 0.10545893836646354
P 4.760576803689432 0.962707252731935 3.715855816902242 0.5435880296757025 0.4625535429001905 -0.37567288175654656
P 0.3047480598801234 5.709450414532528 3.6768487542000923 -0.2501914775215691 0.12719761559513576 -0.9749934291078628
Ni 1.5645069360808952 1.0938820876804844 2.4916999847081693 -0.4524169686868208 0.11166892383191736 0.509254289390839
Ni 2.104372516294507 6.369141078944477 4.880917703237358 -0.03296462785147871 1.2023023456043036 -0.9933310510747859
Ni 6.123453423327642 5.8166384759307075 9.150380276221561 0.11955501144821344 -0.33508853257628096 0.10379157796636962
Ni 8.53208447351145 2.248610442961153 10.260511907208562 0.6521873134433608 0.9506620514513499 0.14038428948873888
Ni 2.5676726054248116 5.065424581826945 6.9658206830412635 -1.2291837433761799 0.14067173882217066 0.4067004404863125
Ni 0.49217033770395013 9.128934505175412 9.42266551067316 -1.8055155431418066 0.47743225978423587 -0.8509842385430376
Ni 1.4315824989799566 1.1164818709235207 11.593306248181031 1.057342263819424 0.3950312316785003 -0.5700302830276311
Ni 4.132650936904278 6.809886711312377 1.5425217799152267 -0.40935227628686277 0.4702228865199902 0.05284773992865092
Ni 5.623239448370765 7.981041383174025 7.907621549846567 -0.7792255206424967 -0.048883870184896455 0.3295892000246066
Ni 5.429495939558023 2.752006336858385 4.894782167133026 -0.5534736642205307 0.525623731887798 -0.2547518431987419
Ni 0.8202062368031011 7.391271347784755 6.879340477584548 0.3957418845922797 -0.7219572830486469 -0.013104912813074203
Ni 5.237574555266678 4.753360827972842 7.183614422477262 -0.007692740658567397 -0.8614586557118002 -0.4023233944645394
Ni 8.220410527390781 7.2198103368506255 8.983508118186599 -0.24074807272048218 0.7445521376300274 1.5211412490909415
Ni 4.255938964222887 0.603524809201808 10.270383108160562 0.7120454232515736 -1.3333126500773103 0.89322977747581
Ni 8.212822874533009 7.188081800408336 4.970993205137791 0.6696471607910209 -0.6438654238412266 -1.5700426027773347
Ni 7.456523349302355 6.181108706691345 6.933871859903103 -0.09860617711068825 -2.2584169076642135 0.7274355325543987
Ni 2.418303721150641 5.257545402633069 2.5995017666541034 -0.7583473916419068 -0.37251556707448746 0.21242042942038256
Ni 2.2998928231480185 5.254173112474059 11.403786260833563 0.6358551519422404 -0.3480432929647361 0.7457847244855479
Ni 1.0245053764253877 3.1358491054410718 3.875098621717253 0.9264098637722045 1.5793196572038866 -0.6975192046109406
Ni 3.829307997923742 2.4346031235858514 2.4622577159489505 0.32073714895061534 0.7723442201416312 0.3829280206570631
Ni 1.0131465603790482 3.0748487278067396 8.278354993700914 0.05496915714702791 2.294175810431378 -1.230789911521035
Ni 3.7420182615229414 2.719008658958404 7.051584730103996 -0.15759114028532858 0.09177886977620968 -0.467291314695492
Ni 4.058107006857152 6.915207321708524 6.069329979334773 1.0913708141590428 0.8428621236565355 -0.590686525825402
Ni 0.6433976076840262 7.290601234301435 11.49386266926361 0.3464592363070678 0.10279604682231973 -0.39288410342851043
P 0.18896609775414733 5.630990276558811 8.121488203000624 0.7865523933212132 -1.4542185191264632 -0.7291352888543249
P 8.488018069041173 1.7707605535480269 8.125070808029765 -1.7233682829180899 -1.789404239402241 -0.84980127397853
P 1.794420976437848 3.1662359780566587 10.32460898999966 0.2542803028789621 0.712564014759205 1.1649434453398713
P 4.136956952564303 6.059878501593421 3.7367005588152136 -0.11192680547899435 0.5063083193886376 0.25001072896933074
P 6.73759097470459 4.026985845255329 10.53361936401882 0.5631124728618754 0.3885055147448406 -1.0133288343529516
P 6.405139369862285 7.682403332883074 10.206590619319309 -0.2605586796885061 1.8899778246519447 -1.6538410254512288
P 2.4386371803620857 8.544857475753503 5.602841625556825 -0.6165399965533962 -0.0465981594745133 1.2535503451460024
P 6.993694655570621 4.029487866986207 1.4314020995870416 -0.5652475169270073 0.20293100187270857 1.1341719684849692
Ni 5.500450012339107 2.727792930904855 0.25193636423673954 -0.9766453628889891 0.4668220883685573 1.1665573267942104
Ni 1.204360851572535 0.7083948743804743 7.094493496258936 0.11177279639963332 1.5639755706476484 -0.319934707653978
Ni 6.7266129010955575 0.7261501633735793 9.122397520138687 0.46372930837584647 -1.0601735626206321 0.9580267193465373
Ni 2.5366602273765055 1.5460318625753564 9.112327789201517 0.4521022656598794 -0.267372617286546 -0.15784285128481848
Ni 6.4202874796894465 2.2061214000168645 2.7291699493864505 -0.19811558276193622 -1.1830108443645433 -0.9036759125097986
Ni 4.256419424917584 6.506788535327253 10.236217820119506 -0.8326836404616368 1.6519759472180324 1.786754974704852
Ni 8.144107929895139 7.3709922803500705 0.2482640127759477 -0.922276044109489 -0.9931618724867735 0.7474698254974547
Ni 7.526199215329621 4.148071005615231 8.514392641591229 1.0087764390955787 -1.3103699252382077 -1.2411519714816495
Ni 2.974124222546661 8.136493081148988 12.578586088267624 0.08638546667478027 0.7559002156529949 -0.6427325957883641
Ni 0.2985845650438055 4.831866292427192 10.252723004776785 -1.2794997180219125 -0.37632337085635187 0.018287999675910438
Ni 8.617044428807771 2.5386545925243067 5.803399517467759 1.2308143370010673 -0.6486219646896054 0.6019348450457118
Ni 3.622437940320017 2.957679775373429 11.482333425650094 -1.020429964174107 -1.6903632887469793 -0.46855321212705114
Ni 1.0381305165033192 3.302759337719765 12.963397937006219 0.7158164602582318 0.4775273906012034 -0.42557516590362837
Ni 2.9717037884809208 8.37534550348654 8.031133489979497 0.5917257657231938 -0.2506599325175554 -0.017211735892596162
Ni 5.545296032276251 7.922606484343454 3.9219743614570914 0.5169915101340968 -0.3148233545693417 -1.1055255083928701
Ni 3.209867248312869 8.346871408353618 3.57059804442138 -0.6417131533849142 -0.4240510159496181 -0.3157795478350239
Ni 3.5339606501266623 4.496740425227609 9.153086267115281 -0.08784482482912613 -2.134807266530652 0.9220999235429409
Ni 7.264048981947303 6.231239794270162 11.42975198852832 0.4715539466265879 -1.6325715745494915 0.5888047354216569
Ni 0.49268252693508996 9.11633374355976 0.4171024335407195 0.637591932127689 0.5220159599318815 0.014337499668594662
Ni 4.447978197363873 0.28386343066419606 1.562025764531108 0.9963929778295614 -0.9802233100482343 0.05566438344183962
Ni 6.092178151691671 5.818641906374634 0.40831362894620543 0.4347051532293546 0.43697929397551194 0.20369461951161047
Ni 7.8180110976374175 8.85758299622483 11.604040465324264 -0.03935587608980319 -0.21152748529246795 -1.186467692564892
Ni 0.5110696670682028 4.851021263142209 5.577247575003248 -1.794143296749123 0.29877452863659515 1.5245669869430387
Ni 7.792274721934658 8.885848589546846 2.5547228299082945 -1.0059698228847191 1.0487645494527422 0.0490677040609284
P 8.522148908956948 1.8184349458765976 3.6688740131977258 -1.4586210190695332 -2.2912519519163634 -0.48917243103929947
P 1.9615759717119532 3.254269068739821 1.80693924385875 -0.8474636269842889 -0.27350315566431604 -1.0604270733923349
P 4.5612400071667185 0.9445132034063138 8.007383320658025 0.4955647077188885 0.011483318049251191 0.3978393905512567
P 8.606528685301186 1.6619860653277334 12.4120466266005 -0.7089351597573661 0.5758355768554986 0.781071315601984
P 6.083656773332886 7.888239946728392 1.2477401065964324 2.012293943785063 -0.14740160134683647 0.7036348305903752
P 1.749846915384495 3.177776100025525 6.085503374153826 1.3299825572628128 -1.1818255658071903 -0.27811520051503075
P 7.014019049485939 3.9232969881619284 6.014148615283957 -0.6902010736829726 1.3763418612536424 0.08202024772754907
P 2.1698874113997704 8.478073439190547 10.304043459207382 2.258051039684363 -0.7472700507818227 0.6131060311711828
