# total energy = -340886.814865762 ev
CRYSTAL
PRIMVEC
9.10852884375166 0.00000000000000 0.00000000000000

0.00000000000000 9.10852884375166 0.00000000000000

0.00000000000000 0.00000000000000 13.33125266703931

PRIMCOORD
 96 1
Ni 6.717667543281919 2.226169992591079 12.022056661681235 -0.26949506294618747 -0.38745933286851336 -0.06436113988488916
Ni 4.553617717420125 0.5589366749549242 6.234747006663641 0.6372150084042445 -0.5014890436231234 0.06239861684187963
Ni 2.716418340665913 2.0707967075370965 4.910567300099103 0.03311452316578167 -0.8990427846131612 0.5024151549818185
Ni 3.1486180344055934 4.46849851535485 4.793598305218241 0.39288744586262014 -0.8513110257548371 0.19979785556036558
Ni 3.5919938930392386 3.112757756339142 2.5008094435008683 1.0701895520957376 -0.5798094739015821 1.7494251279061417
Ni 5.323552552238281 4.674159988167247 2.977348544809683 -0.3299237005458899 0.2971452205632883 -0.12346617357716157
Ni 5.421514779976326 3.090614922714671 0.8209999800871288 0.2330761579975212 0.537824644829364 -0.508480387339292
Ni 6.115812391257826 8.345826183021892 12.64296048008083 -0.918045036747277 0.9112282709357598 0.18418817404756666
Ni 2.8023390932696306 5.632614044509747 11.912967455104992 -0.8711512004092158 -0.944406043239309 -0.6714556747546694
Ni 0.8734942535320293 7.598808406780111 11.093761855200512 0.24220357422008612 0.12822888507312755 1.2365550961395866
Ni 0.8456212444105794 0.10421067852635804 4.684908963058337 0.31810639619598763 0.5852550703971856 1.0749507209298068
Ni 8.812947976356892 2.5994283961687064 1.7615913005098638 0.06342782943734238 1.6794553835852237 -0.6062303870972721
Ni 1.7776933578037102 1.5988656109714412 2.7725141264164965 -0.4254702648946479 -1.3731025283807383 -0.2260004820976624
Ni 1.850579805628893 7.0799228440136535 0.4162524814362155 1.054636691962803 -1.2418338280400225 0.5189486338604675
Ni 7.707637109431358 4.352619811376847 4.075644022818076 0.19069486481783288 -1.2030680201257344 -0.36946006807761533
Ni 7.661593496115151 4.567499115381333 12.773086744879649 -1.030029434937084 -1.71280336291805 1.5167891427698328
Ni 7.845713298206908 0.16151972031922052 7.266065650362094 0.2854703553285212 0.10077978772323934 -0.451319621857584
Ni 7.575608983809511 0.7135266265281563 0.8021517013462327 -1.1315173044709417 1.0935307979248392 -0.547194001859406
Ni 2.0913182230269913 6.651129740062353 9.140119956532734 -0.6203339163781897 -0.048336225211542565 1.318182222193775
Ni 9.10553213994606 5.395008961034652 1.4821552983098047 0.24200097129097675 -1.6341006095995083 -0.12537367501251956
Ni 6.3668252291941405 2.4864735299502487 7.383514664713137 0.2631819762439661 -1.4196420667031744 0.1888778662137521
Ni 3.8361844428699463 4.915763715805709 0.9454206624168504 0.580839200717677 0.556185663835055 -1.737276665469066
Ni 6.19109438216949 6.071207925499277 4.708624839614502 -1.1756392344908206 -0.3211035311510986 2.527440173180305
Ni 5.452501995110202 3.2688050725277242 9.639735515672728 1.1028667306137845 -1.1696691329503146 0.12104393728891412
P 0.2650226661542493 6.000334462549045 12.710549407529218 1.200997767860267 1.3157761838554436 -0.5036302583358424
P 4.317306045041152 6.7261293665797925 12.999304345591556 -0.8241709750049354 -0.2787626042910425 -0.6847107399923628
P 2.3833103322411735 8.956061181584245 1.528761818708692 1.2005087440389905 -0.20572142013365213 1.1332147467780227
P 6.485181453018239 8.192684487535162 5.876109613589511 -0.8367449550152042 0.3226767891754894 0.20622484213263192
P 4.891954021402432 1.304286679565013 13.093422774156615 -0.11040882617257114 -0.2516837457963794 -1.9054448099392927
P 4.122583915372724 6.657751640533349 8.346017462127657 0.7867912488048966 -0.7650170903525986 -0.2580433694658201
P 4.628289436899111 1.3938963863513352 3.9462236690048194 -0.017454448031021554 0.3583271913892474 -0.10891141569143824
P 0.2897869343805811 5.870619903254065 3.777943598576145 0.1712185012607761 -1.3343138376483148 -0.043391993832389786
Ni 1.046041669725025 7.6842737329415325 2.833171463413125 -0.2617105339047622 0.6621390253394338 -1.3932224390590653
Ni 1.7552772683138607 6.887951490056699 4.927017303194864 1.4131155784385663 -0.902761114005013 1.1050809646562838
Ni 6.009488534039211 5.878526106292338 9.237571195802522 0.3356181798275058 0.5912022891195561 0.3400654169655821
Ni 8.775347969280867 2.668780734801665 10.402603042959322 1.9689875676879445 -1.165463065288767 0.16848464726938078
Ni 2.679182674743725 5.364604691746916 7.223646320673684 -0.806158854698231 1.017706651705673 -0.8573248360490848
Ni 0.7953567388271641 0.4853160797047589 9.475628062308378 -0.5098253314029607 -0.1456859042073104 0.06877803800566219
Ni 1.8070046036299334 1.6118270475192087 11.491792724680431 -0.861701882070858 0.5984718261977758 1.3700714548638986
Ni 4.314965153127746 7.249733147288445 1.9910624677255386 -0.40036267119374275 -0.011434467089186759 -0.8370452598644423
Ni 5.6573345917976186 8.312716680666913 8.571169364964588 -0.6779801061367484 0.1593960547045513 -1.4606460199193618
Ni 6.595522171457911 1.3251178850356695 4.920138542210413 1.4457683314765812 -1.5171357274759742 1.2505678654789107
Ni 0.7490380479398084 7.617453565327743 7.049646094129761 0.12011705459927055 1.0164797212771073 -0.10606134783715283
Ni 4.9044509229790565 4.6358495158412385 7.376315283513308 2.0333268531959625 1.0476008681619442 -0.7084813600493992
Ni 8.332363777387597 7.829135775707305 9.315079311164133 -0.15377947984872226 -0.7584906020879906 -0.17359882856749456
Ni 4.829050521192395 0.523492656656732 10.622715196785798 -0.13723263123363463 0.6407348486320449 0.6508485400272791
Ni 8.309765517320828 7.398056431015674 5.00191309248346 0.4209029572389396 0.7538191647542501 0.6616250618174928
Ni 7.2648259795861625 6.718660372926125 7.328416262871182 0.32473855680052466 -0.7817200049295763 -0.6703565281532197
Ni 2.2566289130518906 5.437673310149018 2.477039826624513 -0.05634701133116102 1.674665161285432 1.9192254086631528
Ni 3.753087334208469 4.692841580830262 9.432647647243057 -1.2334885413991208 0.6669729563929675 1.1033886645555255
Ni 0.9916182098705552 3.718228994315071 3.738803339272272 -0.3198053811649654 -0.5573596295384982 0.4289757069447451
Ni 1.0065744142355826 0.0925353662516368 -0.027987776584908693 -1.1773644447120433 0.943224364226382 -0.6447640243960959
Ni 1.4412607363502044 3.7983658311016186 8.60376423543977 -1.4924667639743843 0.08087867792393813 -0.9361782560128781
Ni 5.290898476325599 3.2331360735670374 5.289240724075638 -1.4126437810084704 0.21551732317815145 -1.3677044972936188
Ni 4.221702926274204 7.008011008774987 6.084676707103762 0.48350160590676733 0.9447104618536053 0.45556811272129283
Ni 8.4656124458748 7.6229460082218425 0.5961377284674976 -0.09428646668941182 -0.38856465011755015 -0.10205094112617909
P 0.23404729210787348 6.0071567506546515 8.308543152749705 -1.2339515970784685 -0.9743151720939156 0.1241544578934378
P 8.587183980381512 2.0000963066349384 8.388010512666076 -0.008276381076179295 -0.06371013656445157 -1.9558667140352703
P 2.1093257845554074 3.7182745369593 10.583028425751168 0.1932759952814478 0.3215491033289494 2.0008147395008704
P 3.85227010481187 6.195630429534766 4.060832644061699 1.50209091732771 2.220210828908138 -1.7141009986835514
P 7.283079471393418 3.953128844722924 10.71307453549614 -2.6171246223213314 2.1488218356421895 -0.7008541825214446
P 6.546035534237939 8.081569544143585 10.483270906977587 0.08750466788088801 -0.03379663683447083 0.8920673817365927
P 2.5589592025062107 8.757750291550519 6.055774434222721 -1.2569519146283836 0.38401302619112576 0.30473820241919775
P 6.999567402534804 4.475858206662366 1.6244132126785236 0.5256610128836366 -0.9168345613789436 0.9514976599787678
Ni 2.648386738715614 1.9656933931838367 0.5044549205158404 0.897590368437351 -1.256540795232894 -0.9523178418872179
Ni 1.483087100810744 1.3280143972086773 7.39928517155699 0.08523078424504676 0.6067232675732905 -1.28157794070718
Ni 6.997672828534848 1.0251558130812928 9.559694318439062 -0.1725253929976577 0.5111129398661327 -0.16204300540909514
Ni 3.0395342929466596 2.0077930135097546 9.570799436808029 -0.30208328129485396 -0.22589660952994645 -0.9001414169939789
Ni 6.499445409190974 2.3883746742795138 2.879083913913952 0.7425747021886825 0.908165572850036 -0.3807508105000862
Ni 4.079582550691058 7.29417365952777 10.569390225510148 0.4986924547145928 -0.5517811070094562 -0.10110734626598716
Ni 7.578059178069068 6.4654068368937105 11.597710341512519 -1.2195516196030545 2.5695494436455295 -0.9290629851243355
Ni 7.761304561391616 4.252562622004236 8.202666524297424 0.8990396992893678 0.4362449869126487 0.5212911659507151
Ni 3.2825134084408583 8.720705904734094 12.538696061234283 0.9107217636129864 0.277368037936361 0.7843075631510945
Ni 0.11707647552124317 5.280104869643164 10.562324739684355 0.7789434706257036 -0.4981136993929874 -2.446092268929432
Ni 8.701004156840334 2.484059769806076 6.085103897106636 0.14064294246676423 0.522678533216545 -0.32816840841767997
Ni 4.03840289177858 2.897359266190439 11.805771000822936 0.10777241699098858 0.6024719484961044 0.0011199725370561358
Ni 0.6486110522960524 3.933554616233007 12.331955227753642 3.035828000805791 -2.4474081595273787 1.6355563682094285
Ni 3.0176282810721826 8.669106088821865 8.272189192419804 0.997505751277766 0.6229803528621013 -0.33400378415253446
Ni 5.725156697584461 8.212513754832766 3.737976284853061 0.5475439289996571 0.7392476946979785 0.39945275778496364
Ni 3.4321756459084387 8.44868879927905 4.0619256675232105 -0.823250262962879 0.9638199289895466 -0.6222061937002381
Ni 3.744798572958667 2.68706155219546 7.094786141384453 -1.041936213676999 0.2292675828847084 0.17029881765998411
Ni 5.507645028743501 5.151428682636621 11.409259433954517 -0.8760373248569235 -0.4586086993198295 1.0206281962278423
Ni 8.038058101846547 -0.03467343675782599 3.0224612664778365 -0.5584991424595801 -2.7207030558356307 0.007296276551097112
Ni 5.090428864955386 0.7956800916011949 1.8258082505794844 -0.5796780905300404 -1.2867774826302485 0.25506988865979296
Ni 6.213310084024729 6.133100379007415 0.3890780964772489 -0.06430946071134731 0.6351072180326223 1.2726387292360213
Ni 8.283988380686829 0.3902066432012605 11.606242300482506 0.20433636686066745 -1.1614428883857806 -0.6316686246647185
Ni 0.1514138075646541 5.157331009328788 5.995837581857806 -0.304844646090075 -0.2591713124226762 0.6360101894628659
Ni 7.528353936156793 6.498798703642914 2.9287691170627657 -0.6154894438016948 0.2043646489954416 -1.8924514830034178
P 8.791497390924711 1.610378791432705 3.6930238732925953 0.6373335362599798 4.304819363097212 2.2715205349257075
P 1.9073441573967684 3.7109968224113974 1.3711059363259177 -1.5888833896329217 0.11275907157230257 -0.18306948706209117
P 4.692613867609114 1.343517113304461 8.460439712343193 1.9847240045865948 -0.5871597436190662 -0.10415590328432385
P 8.920975128469697 1.9276926108385901 12.968189611053836 0.32609044284272876 0.5601209943337193 -1.069706698922048
P 6.6444440798894355 8.090304623306839 1.7293835425106328 -1.959460602034116 -0.5585438796545865 -0.9821588365080506
P 1.8637871724555006 3.6955851916040725 6.276220871057843 -1.5580851733051424 -2.5134824254486325 -0.18391897954658004
P 6.916625138863706 4.229162811399026 6.115832430021288 0.9282500023047368 1.0416387370412383 0.467823275939562
P 2.5522006741025254 8.913797607739099 10.45708752995706 0.2896198587205206 0.04260935003009436 0.26819074231246715
