# total energy = -340891.2342093357 ev
CRYSTAL
PRIMVEC
9.09035261879036 0.00000000000000 0.00000000000000

0.00000000000000 9.09035261879036 0.00000000000000

0.00000000000000 0.00000000000000 13.30464992452486

PRIMCOORD
 96 1
Ni 6.336830302177857 1.9182280391238011 11.590146017578668 0.46669610431365427 0.5158414556900536 -0.7566170392143614
Ni 4.556284744551221 0.32038129843749424 5.888238669722401 0.2746213284291594 -0.6828502897448562 0.3854533581820781
Ni 2.8317357593544403 1.6100196319429327 4.96384525217281 -0.9037021377620436 -0.3335633541810062 -1.3693682581492868
Ni 3.4430437955172195 4.018363125470618 5.271142806016426 1.104775260490407 1.1556769324362806 -1.4084888782998322
Ni 5.159565999308878 4.4869253537006095 2.6409865260920546 0.3682632195560367 0.2072795086493914 -0.048225153554975
Ni 7.504567915451626 6.026285674361522 2.3606436859771716 -1.5361636906417029 0.5853381170292952 2.396206954063215
Ni 5.312102117064223 4.466790222542797 11.793201770281888 -0.2613881175683369 0.2772266272624903 -1.1081734875386786
Ni 5.992424110676263 7.44358073940749 12.542479543086117 -0.8059716783880894 1.5222545367597784 -1.0543582414904358
Ni 1.8387965375179485 6.720970425187712 0.2563697620609857 0.11889706614924041 -0.44489546349879505 0.0659056015538736
Ni 2.673136376370084 1.651962519149319 0.4064360309966568 0.16440482077305235 -0.43137583174580546 0.9219292022930317
Ni 0.5538697337999116 9.186801308982668 4.751051004657237 0.9071674706028248 -1.2955909671568202 -0.15664111766723346
Ni 8.781062508035584 2.5168004911998563 1.2333699595308372 0.27038697863283756 -0.7385609530435989 1.1100686476788624
Ni 6.741532802920881 0.7311597909032648 4.82439924225821 0.014577640703858766 0.1497346203553873 -1.077974595357795
Ni 0.7587844636235698 7.586944691321646 2.29945561313909 0.20310172312261798 -0.2922048458388774 0.3179048217081428
Ni 7.845237972007009 3.9542761391669723 4.042311659572314 -0.5603215403802996 -0.6480684061789805 -1.3694543901051899
Ni 7.598825782257657 3.6811201318707645 12.811499439918755 1.3061543444949633 0.888928836107611 -1.29107559578497
Ni 8.115930493730408 8.80641550162436 6.554296081929095 -0.4048366478046964 -0.4241934550647533 0.8675107754431511
Ni 6.826727588117729 0.6398771965252048 0.309287432042463 -0.2036642804943073 -0.5769475789727547 0.8098512159481536
Ni 2.0542651667882073 6.426043023253599 9.337336640115966 -0.5396264739247932 0.9918860910981433 -0.7804892178462687
Ni 9.208436348330565 5.082616163981167 1.2947834731150645 1.2034254034651533 -1.5876898835454527 -0.2611855146392276
Ni 6.449177970791582 1.8956657838038506 7.164207839922195 0.05572660413834274 0.5239424875306331 -1.1227110190332212
Ni 3.4280628943217004 4.461654173285838 0.5386915719515146 0.25632510122313273 0.06955476827068667 0.5749410900656873
Ni 5.836969989714751 5.499872441757573 4.8764606010184375 0.8760936320161556 0.5498517511972273 -0.04159453561233482
Ni 5.409823408236449 2.847507521232004 9.222730018864445 -0.4795570194367224 0.5094463507969872 1.0742894331967239
P 0.2284651064785315 5.567850099002773 12.487239287998174 0.18942088320141573 -0.003375601340452251 -1.4135346682538559
P 4.1766716171696245 6.163459096109326 12.610772635568868 -0.7488834180155295 0.2783550844399787 0.05169177194733679
P 2.4027620169900343 8.802043041991444 1.4060484807261282 -0.5518209591084561 -0.7659522005723582 -0.5993771116208645
P 6.195148065507129 7.779823794213953 5.801599427486739 -0.2567583321058094 -0.017272671037518637 0.47441249912130556
P 4.723874486323423 1.0722434585050036 12.816581856094977 -0.22348440054402804 0.40822613310221956 -0.9015979469348473
P 4.063942153743878 6.102490100770524 8.317415433492739 -0.3160819095667911 -0.1082462713036136 -0.8534105885963432
P 4.675750159303353 1.2918936500021667 3.6588987647758335 0.24221848661842157 -0.9003342497310752 0.32576468407219383
P 0.1388724086613009 5.941563587503368 3.6796002249048114 0.708285184878193 -0.610986927945651 -0.016523194466003803
Ni 1.4157951568558826 1.3429632512864056 2.7517742901880906 -0.03105198420979813 -0.09148447846424244 -0.5621287687923674
Ni 2.023585226536462 6.315058907539951 4.855758231854193 -0.5645625750448406 -0.04901216823264462 0.7770938190114746
Ni 5.976206921518006 5.717077328387263 9.260674968967804 -0.2869546531835316 -0.9219322876168252 0.7010459868172765
Ni 8.689849909373061 2.0683097616590063 10.171617391675763 -0.1827614689033691 0.7924155369702095 0.20155443324015607
Ni 2.275778880582143 5.168747255502734 7.143360025115276 -0.18472219217416574 -0.1708310360143703 0.2982898756906927
Ni 1.0321368225373884 0.23433383816046538 9.001553557154462 -1.316884586428274 -0.5527614686448545 1.9979140209143076
Ni 1.4864908295485715 1.0568353107341268 11.466652667559709 -0.1650306272825093 0.23352070173410752 0.18801628954440522
Ni 4.110321133051849 6.802838141308369 1.4395227953877658 0.12217316579735088 0.3681732309453917 0.6255797381581613
Ni 5.761756411746472 8.053707029723535 8.024806071488758 -1.4348156891198194 -0.1479127366553001 -0.4284393748253008
Ni 5.643227303319063 2.967881971250853 4.862596904165716 -0.6261654354583023 -0.2390416315523367 -0.21596829467264095
Ni 0.9652863690229184 7.294726214482354 7.04674139372158 -0.5183205133581654 0.44739354733030046 -0.10972259873882394
Ni 4.856175479041617 4.16926297974587 7.246683700636288 0.596488991439792 0.9911484416011703 0.037337817218509886
Ni 8.218778743806926 7.640368693946686 8.779645322054769 0.1918904277878308 -0.47496502919066586 0.520779002200987
Ni 4.708311802557205 0.41602635306053576 10.499817302442302 -0.7391263386287658 -0.49581513316679776 0.6591172077939746
Ni 7.857355412112364 7.519257925361796 4.504741535893023 0.48030469623602445 -0.8743280554753007 -0.524320182585026
Ni 6.7962203645666595 6.0347760637526715 7.175783495008588 1.0690310130112621 0.3874598470891456 -1.1635262532773702
Ni 2.1777394270665655 5.684706582539422 2.664735072435072 0.5674152140022872 -1.2426028449955633 -1.4612252894615996
Ni 2.6177215865109305 5.289112615168915 11.312704818035149 -0.8984252056338204 0.47891398653608486 1.9655888264190406
Ni 1.2164255421592065 3.5959798887899206 3.899326775364379 -0.5401967446059665 0.11860087506506027 0.7663792608074478
Ni 3.4546521758732136 2.988707969211371 2.7907300875080407 0.03893807182609423 -0.5591375473745275 0.18383361892162534
Ni 1.0587988269102386 3.108673353360196 8.270117419530115 -0.08579694116116192 -0.0731856801550546 0.0158387668044695
Ni 3.2931711510933597 2.2501713571186865 7.2110404278282605 0.44431285152244776 0.8224149115457771 0.39478980509165557
Ni 4.02648990075508 6.866770591616674 6.026740191994881 1.3407613930458715 -0.34642966862071306 0.9577158729743377
Ni 0.7241165856567308 7.5002318172293805 11.3639407727732 0.6617978399499312 -0.6817066630587163 -0.405191974261586
P 0.04140473832848899 5.679915966683816 8.164105726725417 0.44672994560437257 0.4869191162287485 -1.0248435198607704
P 8.37855078228535 1.3027111696761156 7.964376134063119 0.6231312766176688 0.2620674030235487 1.6571348657111522
P 1.6939599484717085 3.2727178575921956 10.61594019451871 -0.2078873174367194 -0.6703986942450648 -1.085788692085575
P 4.046834110024238 5.896275450515459 3.8394695301567734 -1.3373168861406968 0.6540279661965253 -0.30178246222498345
P 6.947611097885939 3.8170754463611662 10.445986052017773 0.6473739512151173 0.07822941322654915 -0.12360527025818711
P 6.538072529523973 7.6838205796958245 10.248571772179808 -0.5251797023718439 0.2928113690746248 0.3582734553331765
P 2.4045619068181368 8.282793007289236 5.762856344419201 0.15200053357142854 1.8009418077281951 -0.15886357923984898
P 7.023197380313573 3.8594819415535784 1.7204510542144154 1.390699158416579 1.5163201735532146 -0.034014923492863995
Ni 5.529588804626597 3.091928923747244 0.40494339508870525 -2.00390957637611 -1.2844480631661233 0.217393971375574
Ni 1.3295004389863063 0.9014593668055536 6.95605694454902 -0.3288860033099949 0.5164135261434396 -2.0926314044935506
Ni 6.781103108081133 0.6123543357547722 9.37747691038845 0.6287365386195881 0.8054590004177289 -0.3110320058477095
Ni 2.924075561747694 1.7883632609204125 9.570340559681222 0.13066423398749757 -0.3795531906475592 -0.37694532071106696
Ni 6.488675553130496 1.9467081140300881 2.379842510810264 -0.09086638526426931 -0.7891587205958087 1.8029647516954947
Ni 4.2640480870065955 7.039341846650492 10.407762028087532 0.31650357048524197 -0.03424298034327006 0.3457475549520239
Ni 8.140701704748485 7.038787335137793 0.3215494087552273 0.4451644008894656 1.1087363020206842 -0.7278145131603724
Ni 7.713746020676194 3.914405852368704 8.316803652758237 -0.4410856028344017 -0.4061445679828425 -0.7362603299348804
Ni 3.1998768616700515 8.307573308659979 12.42056973250178 0.7379408029610968 0.7547090235583712 0.21339513462882603
Ni 0.04037116523023018 4.796533675192224 10.059459711432783 1.0933783315073748 -0.6588834945166137 1.5666418046259019
Ni 8.568811863609508 2.3663369738526288 6.074903607531422 0.6926541632091555 1.2918047606415108 -0.9449850556712306
Ni 3.5651181414848314 2.846353046443272 11.844038658537846 0.9471602089456783 -0.5643080358318733 -0.8804107713342708
Ni 1.4910814576454994 3.5531461470221504 12.74320725647127 -2.1164807003073225 0.4549898716203196 0.49624527872568086
Ni 3.0919743755105795 8.720311681160794 7.97471368311624 0.9761635381565641 -0.6140154303593296 0.0637751854744321
Ni 5.49878159943751 7.711800685205417 3.5913638077055245 -0.2730203024906266 0.16052399766140743 0.03548662294238404
Ni 3.093792446044016 8.435901817262613 3.4422592980820417 -0.13264346920105544 0.11697953741155337 0.9743961618434961
Ni 3.2688544577086427 4.239449592689197 9.381800282116961 0.8005175972520536 -0.4658232147903978 -1.1561248186069768
Ni 7.380948209530593 5.864377403006311 11.215500767929687 0.5517924198633658 0.49766504189134286 1.4205833475705212
Ni 0.460674529220676 -0.04301282171531381 0.18199522364388765 0.5475272168291087 -0.05626833557442567 0.815700218529763
Ni 4.59460967139607 0.1610337794286284 1.5103039173955262 0.16915364831194737 0.47882708324923345 0.5450815835020935
Ni 6.045493589547282 5.535870238319621 0.5607374952399689 -0.0739680668470339 -0.3209973445905375 -0.16967583936400457
Ni 7.989256429313202 8.948324997111767 11.472613211803582 -0.43740686843123383 -0.5659332301401221 -0.38485300559391783
Ni 8.85505797874646 5.307538760025296 5.711007699911385 0.6393580228891763 -0.012844974283468199 1.4697880914299462
Ni 8.095277212470567 8.945961505418298 2.517758614370977 -1.2005272559817517 1.3331992644278974 -0.0716101081378186
P 8.598700943179209 1.6834787718464455 3.881072438173407 -0.8919930768552315 0.9040723766172687 -1.093790479344129
P 1.6472809875257195 3.4892227870665136 1.7414188616765418 0.8019054787385158 -0.256273679159907 -0.7820028262773177
P 4.778498415500532 1.107914002371033 8.164611150333712 0.2514019528899025 -1.7774180135746418 0.9785816606797534
P 8.528077993307857 1.6063925812287265 12.566987133876845 0.13726348447157005 0.9127794174729634 -0.8878255757411032
P 6.361101543799238 7.788459629247778 1.5135637178619783 0.08431238619583545 -0.010986838028806884 -0.06529162211895852
P 1.7030139397282236 3.2617185308649033 6.090722639242855 -1.4441457082714937 -0.4208795602001719 0.3565934965275923
P 6.974436728606799 4.152954887060942 6.173770283139714 -0.38206001622981295 -1.5382164594056735 0.20476959774334413
P 2.5640066926005414 8.50292498747776 10.250288030763372 -0.20073527977297043 -0.09101216681351422 0.7221190054374919
