# total energy = -381165.8400607328 ev
CRYSTAL
PRIMVEC
9.27333573071797 0.00000000000000 0.00000000000000

0.00000000000000 9.27333573071797 0.00000000000000

0.00000000000000 0.00000000000000 13.57246420504695

PRIMCOORD
 96 1
Ni 3.41437732662838 8.747407829388331 11.669917224743092 -0.14955155781030371 0.7510979091683451 -0.6109522180529736
Ni 3.0136672135601277 2.0000823377536663 10.81760678642691 -2.3912349547699203 -1.218306948562676 0.5029275758418629
Ni 1.832225686515592 1.2713279709123142 12.688394712515366 0.5601297360844676 -0.9833641696700612 1.2941714611014745
Ni 4.345930273986027 4.224477395069664 3.5758149748286665 0.383127795372695 0.6900352375290696 -0.2025283671176512
Ni 1.9200998165157017 5.629424861462307 5.304810814600039 -1.1845043981909344 -0.02165511637593045 -0.963644579753947
Ni 3.5662096536114745 2.5320008789953623 8.789201826486 2.150958422369218 2.713965480001481 -0.274700775516843
Ni 4.777400041888635 3.4297617907134565 10.951268939251898 -1.3702190361853563 1.0528839709377544 0.17171652394311718
Ni 0.7220553090625339 0.3134619332343521 6.76446168885155 -1.28452931002602 0.3874881292239198 -0.700637181414632
Ni 6.878441186450153 4.639199518525229 10.349655715503994 0.8952313812868712 -1.7798672464460827 -0.8990546116877032
Ni 0.33204755283610604 3.512071919236143 9.977566826035611 -0.6559601502222316 0.2593021815735857 0.9936292990414952
Ni 5.2051048354581875 7.967214268888198 2.4411704095435813 0.9527793549046688 -0.5434088237853609 0.04736460532689262
Ni 2.542424108429736 4.317359126399456 10.231072934016405 -0.9150288756287726 -0.026470792597018924 0.25218768201599145
Ni 0.583149084845074 3.1207000553141664 7.733346304121971 -0.43072997063169044 -0.274340821074263 -0.9937375424845855
Ni 3.2434697479135184 0.006833521147855752 2.863748903085267 -1.559996274284926 -0.8601237389504607 1.1232900314651426
Ni 7.207477687153393 0.6376475519828587 7.371165046617717 0.9081609448643456 -0.4172489054261201 -0.6834424148029004
Ni 2.3163865484094024 5.476155167430878 12.746607150639331 -0.8254719532045461 1.557712363346756 0.7004217229697163
Ni 2.269927136072915 4.532621070225179 7.304184669498913 1.9620473889246857 -0.16457245669916817 0.8878201764244645
Ni 0.17123678213560917 6.225848726498935 10.21728348368819 -0.1161956080576773 -0.508198594432815 -0.8427628790745098
Ni -0.017837261403040497 5.281582035765375 12.393654716918965 -0.4066325633628546 1.1551791668642557 -0.005864429200576997
Ni 6.121041485335865 5.63177101541862 1.9856789925957756 -0.2183501646412562 1.1136399099698884 0.24399460468223785
Ni 0.7899305630856243 0.7616227782356523 3.676156177472524 0.02527137297227906 0.7431223471620363 2.265567402666066
Ni 8.250987617572598 7.709044600335743 7.239118308888342 -0.43331084398498926 0.2283664112266777 0.2969205061469919
Ni 6.161278489353434 1.6906218489151612 0.03280628004446912 1.640050142314724 2.2845316024733946 -0.5264932789769449
Ni 4.0610533983419375 8.956846118334353 0.4540086105540723 0.46148370687477946 -0.23587737489174218 0.18008829294658016
P 8.395948402731074 4.743914026330342 8.013414027822407 -0.5843896370730967 0.19774997189240137 0.4187632851881175
Ni 8.415765521326497 1.5211330905770428 0.45917293125870096 1.014065198298344 -0.08258049110639326 -1.57399644521876
P 6.597069631736841 6.54569535142863 4.289278538276479 -0.32548520515856205 0.16577727564054673 -0.3085868867413266
Ni 2.304117925151683 2.6186416553346437 3.726768189578328 0.720438018190643 0.6269725047406299 -0.7819786579076017
P 2.542516841787693 6.317005617370723 8.677772496231215 -0.15942665083217059 0.33830703951357866 -0.28546675578409547
P 6.362750982850942 9.097068228901222 9.1426837676803 -0.8509333307004442 -0.4876253982671538 -0.8003918703074668
P 7.652134138557496 6.346504098536865 0.5776045573728215 -1.2440881712918381 -0.9904223620684233 -0.6559822617094185
Ni 2.8206056356293248 1.43769161508728 7.002631554093407 0.6017306994547056 -0.24562648385870603 -3.7434377568835147
Ni 8.33473511314362 5.625196220339465 3.0020254678021985 0.6534772358993778 -0.21575309333804132 -0.05150639540940807
Ni 1.0806867336241903 7.626511911753959 3.6509929807908756 0.476774828705895 -0.30152175236442913 -0.2104208824918505
Ni 7.968568175914372 7.951245584647993 2.5917981302068136 -0.8553252891205527 0.21447165552245642 -1.740483602442138
Ni 4.538500365119657 7.911945187545791 5.085399053005737 -1.5184680731341527 -0.19352204985398286 -1.0382075998725024
Ni 0.8978573544103691 0.4587853058224404 10.741723079610649 0.030571959249586056 -0.492940382722164 -0.023686030763030174
Ni 6.093536771365801 4.038250265620297 5.391973679744618 -1.5445496007125528 0.6170958690568662 -1.0784726180401363
Ni 5.4057241820624915 6.965193242818982 13.171818344213417 1.0357162009092162 0.9004062406195913 0.7177105919571509
Ni 5.2046411686684015 0.7497445624149325 10.666328077590821 0.2618208342303813 0.8834220473567689 -0.8034126594116615
Ni 4.579089755897463 5.364235277712503 9.672864485793882 0.5500458694859043 1.057543581196953 -1.3408521529874649
Ni 3.3119718794363986 6.483786561656497 3.504966689349473 0.47256927526497966 -0.3542923591982414 0.8180072693963847
Ni 4.358885124092628 1.305722773378588 4.863353664045454 -0.9015318695836022 0.38937557605461975 -1.2898296391930109
Ni 2.6425668616875653 8.18606499366686 6.896535319254734 0.6929938059367613 -1.4399746076129396 0.04959092355425007
Ni 8.523030196475428 1.6295105660214586 8.959523330378572 0.5294940134764816 -0.6831459666084041 0.6690738047860542
Ni 1.3034137127654573 4.700301528083136 1.3144118890191645 0.9849695664839682 -0.7795006286807543 0.16463262051314229
Ni 4.3761520753442325 1.531491406660846 12.554380172930141 -1.93911880515297 0.021665657898891716 0.7710671532014204
Ni 6.873702511858547 6.680817127307862 9.166123051237525 0.2841526649583622 -0.7396680700648488 -1.9357789421464593
Ni 0.6736429322074711 2.760532966344741 5.3376291499810415 0.8456373724088274 0.7372826005518076 0.60186722503257
Ni 0.6703008219866987 6.167083597561545 7.435484903696735 -0.11592538511542617 0.2112760314032942 -0.05404870221528756
Ni 5.108606503168072 0.1416492769458296 6.600438634631422 -0.42657326815083957 -2.6880492743563513 0.47517226010546554
Ni 6.295788225070149 9.145391581732646 4.5536029197965435 1.727467135577812 0.667897782200082 -1.1107170798961388
Ni 8.330756852087262 7.799264884292167 4.822459180519971 -0.22485222742583214 0.3903261128933471 1.6882768385315956
Ni 3.2624893596305116 3.549378549142268 13.028086276047873 0.42177096166618977 -1.323848419340617 1.065823561817558
Ni 0.3787054145586213 6.707107034288689 0.8542485654974821 1.1013374384534516 0.752489390199233 0.4126597433935409
Ni 6.322634532198718 2.399280897087218 9.198086385058167 0.38549603849455544 0.19296977689493863 0.9165710233049117
P 6.643000463932973 9.187446159566173 0.8814908440645276 0.46355755868467263 -2.055828890953221 0.901331580647338
Ni 1.0229045782811463 3.2059034646051137 12.3942250270704 -0.5689882149163621 2.029796471445201 -0.11906933006104654
P 3.958944697895419 3.2157146538769705 1.8152489906743927 0.24791013768656012 -0.039280028546545255 -1.638204604465553
Ni 1.0703098708687955 8.16706392862146 8.748077364232781 0.44519371146550424 0.1836022196371096 0.36720829592896115
P 0.9891867293279593 4.526092641825002 3.563817132976182 -0.3514515473153367 -0.4008609509864 0.4382666453283678
P 6.199716466226635 2.276937777934469 4.3041946989038715 1.1120314278321881 -1.4965198509978357 -1.39560765146179
P 2.4308936988147796 7.419948356904609 1.876637546308387 -0.8472872493074247 1.202405189730755 -1.409425788291805
Ni 5.581092235295087 4.131039263592132 -0.12043559397957256 -1.2927966922411347 0.3594952435554196 0.22950412437554668
Ni 7.783453846760488 3.8532379431601664 13.335489011673312 1.0048627058634694 -0.7270418966604059 0.1753525780338077
Ni 7.165061449223834 6.4907693835106635 11.421324130066859 1.0018861397336487 1.016408758829856 2.560445424461732
Ni 3.7787266900416685 5.894308425130854 1.3014579662461427 0.33629592262082086 -1.3106666305430201 -1.2242888771777238
Ni 2.7767891239946136 6.620911378067601 10.815516576538558 -0.2942727841114996 1.0504874456811197 -0.4757101348868065
Ni 5.094121552655178 7.425660731754763 7.597702439437441 -0.5188943835837645 -0.3198416337195395 1.2090162672893696
Ni 8.178943071775759 8.383995072890409 9.936496149130006 1.0448868116648908 0.7434594187864808 0.8993490029996705
Ni 8.151679464536382 3.354990884192679 3.9056118890671545 0.05014525339582332 0.07773036210294355 1.3049371842584105
Ni 8.257052379182989 5.393919225594558 5.672842619657803 1.0626557056125379 0.10157168749691539 -0.9959831439856525
Ni 1.6814505198132081 1.408387873972849 8.785877335603239 -1.9411584612908184 -0.6107213329890901 1.9354740093115315
Ni 8.87104921555248 8.645058022211124 13.26089522586623 -0.7270555235071607 -0.34480550275372873 -1.0934567501537942
Ni 6.730948780619449 3.4403148468489695 2.061114797293105 -1.0095256585567776 -1.1292783878380939 -0.34304018332318986
Ni 1.9486245974232936 8.410693006646246 13.431853807927968 -0.5185768523433456 -1.917132787800182 0.4642872377618456
Ni 6.42622696637255 5.615338664388629 7.004965652713186 -0.2521555432264754 0.11566338970329114 1.617052138757654
Ni 5.075537787720583 1.125959158978827 2.037402877663485 0.3482692929326131 1.8490078099974867 1.2308922414268542
Ni 8.546788482784029 1.8486023975308086 11.673513424364666 -0.9223716891470888 -0.2637787292877006 -0.4577571499528117
Ni 7.629507199215974 1.1162221563933357 2.5059520787452247 -0.5211189020389089 -0.1463055400691803 1.943900028591697
Ni 6.789111142730117 8.828670070966103 12.176848762683255 -0.5345696282271761 0.6394145871587246 0.42507457211812594
Ni 7.74544244333389 3.0655237073297155 6.496378824333486 0.6001085904702502 0.004306083574521616 1.940647583092671
Ni 8.170309596149956 1.269983337221937 5.178858513155601 -0.42961668296285366 -1.4559650695039248 -0.7017700094674947
Ni 3.7189507675025477 0.1168764877011806 8.780515492846162 0.7793903283551351 -0.7782204764167501 0.46653695302797066
Ni 5.306369662347297 2.0113123474022663 7.31045529916397 -0.3841618930641642 4.191200514627775 -0.6951956986840866
Ni 0.5914765403896182 9.265110346855211 1.6853879781920649 0.4932211471873763 -0.4937826761178012 -0.8387077351685298
Ni 3.5745185624844273 3.3709595684328844 5.643159599109327 -0.14307829138113423 0.3413969912928121 0.6945243836486749
Ni 5.305340322073974 7.681372966321357 10.558576552312614 -1.113117204697199 -0.4282180028431142 -0.057609680093668514
P 0.7166276256213071 7.7460081168174275 11.599502931379135 0.6742172966602066 -0.3214814833158076 -0.010614542291052687
Ni 4.2775579691642855 5.775266613521374 5.542234176310341 0.7850719521209447 -0.9529503332648942 1.1033356998304031
P 2.5205854026308483 9.302825003536347 5.04939069011101 -0.8915495615599097 0.08524004021642739 -0.2893110692308501
Ni 9.13171341143398 3.0290145843020215 1.8679104099910482 1.0059752222013578 0.3652969378388612 0.2574761841084404
P 4.4613647579709745 5.513934737462585 12.090052194302608 -1.2064577625335737 -1.0680563078028187 -1.2663094445838838
P 4.574462361335405 4.335238117813577 7.3869631014792825 0.49317640999236995 -0.3430165291741061 0.04549335644610874
P 6.576733206336858 2.734289426042893 11.397666923118436 2.5056503309987237 -1.107858527401421 1.557916508937762
Ni 2.369810235928464 1.797079743849866 1.4991868140829248 -0.08368760812764298 0.1046806654395423 -0.9542004036219114
