# total energy = -381176.31230534986 ev
CRYSTAL
PRIMVEC
9.10924528499620 0.00000000000000 0.00000000000000
0.00000000000000 9.10924528499620 0.00000000000000
0.00000000000000 0.00000000000000 13.33230125122473
PRIMCOORD
 96 1
Ni 0.3777831778556975 4.2335673235113545 6.9015987895849085 -0.7720827389501284 0.48741688180077347 0.6397102640222725
Ni 5.847361230049793 7.873895043481753 2.318313873146987 -2.173090478381567 -2.0114187402689616 -0.44549478764569084
Ni 7.9772758689802 0.19174779280792958 11.776168222790712 -1.0992443033698487 0.49116092222423796 -0.31107622882208363
Ni 8.615642673994353 6.231015316534775 8.651476623359564 1.7448508782718983 0.2869469398740478 -0.5040130955965577
Ni 0.4299354293442607 8.858923289606917 8.047724039758007 -1.5439847293480184 0.5850851204782246 0.3090214031755839
Ni 1.3140815159709978 8.797800253295826 10.114923346289816 1.1410252439613768 0.14799886861120318 1.4728559317219923
Ni 7.229834960122679 2.078019268160767 10.563621999209872 0.011721402201986265 0.8707827613262035 -1.4933558514475571
Ni 7.805903636175348 8.840914311546259 2.963610992024847 2.6667078325660976 0.8577940623760194 -0.12466765008443047
Ni 4.428186350454196 5.62147016381396 8.376031262409523 -0.23380455152311347 0.8612488536938393 2.4346354332427427
Ni -0.04186973533536506 2.6725979307684486 4.975721226366647 0.8440088356664689 0.352128004557071 -0.8499966778187877
Ni 0.4999882588737964 1.9322075778132801 10.419113841872237 -0.3738741379849109 0.20052470642406112 0.00746596935974198
Ni 8.584653021307268 0.5647240218914418 0.9595843020083021 -0.0869595940106954 0.5943629462357247 -0.8343206618444275
Ni 6.063122815454339 2.648130497753309 7.856538287388289 0.27045614130787615 0.9204392480110665 2.036932825379666
Ni 6.498626726482201 8.251382170863515 4.590644275757702 -1.5190496566692355 0.09691439123056213 1.376064696332856
Ni 2.2088007036776576 6.622348496851388 9.083270338755607 0.6353756412026605 0.5018533689410777 -1.2205630915867045
Ni 7.817007806259285 7.320517497600609 0.9979597308266873 -0.9763167759049768 -0.10164522104732818 -0.6241242366585573
Ni 2.339527483722437 1.913050834838284 4.298027076394838 0.29561567129263927 -0.07964480551683703 -0.5698544195713992
Ni 0.6921031542694067 6.095433308717444 10.825322419848467 0.13416787626538185 -3.7280995838645475e-05 -0.8304269832169763
Ni 4.045953306244107 1.829564601188336 6.810765949558672 0.034078172630631634 0.008591855434069075 -0.3598127747958384
Ni 3.638414778446505 0.9043230650811434 0.6181898265597456 0.47590193918263846 -0.5623848506672314 -0.22812421330888452
Ni 7.049572103854396 0.4299946394390479 8.778934095247555 0.7321553066275713 -0.5033687771443396 0.11141592728084683
Ni 8.945470229695097 5.487609803368135 13.005807034349816 -0.332581192773395 -0.9206521353528209 -0.33940695744597676
Ni 4.93510674504077 6.290243629812675 11.527614265043947 -0.4303890423525039 1.1861661021640733 -1.4588768438340811
Ni 5.991697222650275 4.14422384510015 9.92319195012352 -1.0643027542976573 0.013994257396562996 -0.8022386937082183
P 8.432492186949522 3.058082975569158 8.944800700161732 -0.532167960764219 0.3197393038137203 -1.1542867369569734
Ni 0.022492548622853412 5.684506141648945 2.054800712683369 0.7729833963875268 0.1283507553629725 0.7824643392947686
P 3.7425789990452127 7.999010528389777 10.201490326717767 -0.24557274780263516 -0.8048442496518654 -0.5982393984719955
Ni 8.012036749242961 6.553209324630646 5.591740319759041 0.5701920054164761 -1.052848746824445 1.6315541890285707
P 8.750286429540438 4.768917672841136 4.235525811262009 -1.460890017609368 -0.3387657243175521 -0.2686085465761761
P 4.597718515697969 2.9663346563850577 4.829266423297318 0.10361802850298284 -1.181468439578088 0.527563372112672
P 2.471811944722387 5.418734799262596 6.993285165900615 -1.739262071330211 -0.932750975498884 2.781313984649468
Ni 5.64356008379226 8.50184998105871 13.064428671887281 0.333545099348561 -0.26531342076467207 0.6864056111962823
Ni 8.282052999963284 2.426475230606098 2.698898143948387 0.026300328457425675 -0.2189302055144423 -0.4560859328979757
Ni 6.766238136429629 3.293028631684756 5.700665031978638 0.11651056819493483 0.7389124228457468 1.53445442126008
Ni 6.20215722726003 3.798364017580104 3.578015927140888 0.31532574812705694 0.11558085729181386 -1.2901605401698684
Ni 1.1719135237642613 4.294817889257372 9.24488474793953 0.033131235336330035 -0.11590353073855524 0.32900813071015594
Ni 8.763212448694752 8.856855490912041 5.684413227346355 -0.5654220948316585 0.6554245894337357 -0.8677938539012087
Ni 8.156728002412166 4.744495786052755 10.835788031833237 -1.1725263998934516 -2.1753527920531828 -1.2336716039442044
Ni 1.9755311487068048 5.926784740272804 0.5071918500980603 -1.9857483320860507 -0.7189066691477812 0.7978138251676453
Ni 2.4371421569131457 2.699925666824078 12.80292865464643 -0.07385905207299537 -0.42737416678558005 1.1159204784739492
Ni 2.540504763920888 6.3860273446876565 3.020352481321685 -1.2119982327358287 0.6312688181231386 -2.324334079182313
Ni 1.6673471599621197 1.003274064564972 6.216012389440234 -0.20890161763384668 -0.4781398273742218 0.16635731651373284
Ni 0.9874604146341145 7.891266374367782 1.5535726855171823 0.8307869376595564 0.5949177902979302 0.3789674933474183
Ni 3.5817370538671294 6.650377644799112 5.8250955016362 0.05341209707255318 -0.055584422133523624 0.9014166841619766
Ni 3.145294890568023 4.931909399922262 10.650135235090248 -0.13301370805628057 -0.9908789899898678 -0.47525813495105246
Ni 1.8325342151730477 1.5822485898848895 1.9411300836354433 -1.9290310818996648 -0.1433351445869467 -0.3208590192404603
Ni 5.898846684778599 8.74748078197206 10.62791049828074 0.10261452693913295 -0.8360304454466828 0.8375288843690802
Ni 5.811151979776083 6.094331090029868 5.38576935125869 -0.7538333058216372 -0.5567906444089057 -0.29143814287618197
Ni 2.7270621087273184 2.480256215163577 10.460523560317334 0.9385105036904804 -0.38957277966709036 0.643610370407627
Ni 5.938262389416168 1.6703167739468314 12.31667349406512 -0.6650297166236676 -0.9578572836482083 1.1603771661254274
Ni 6.560861090726222 6.437512799416463 9.458614971630608 -0.5764734675498135 0.4926079390834097 1.0694282484496807
Ni 6.5252166136643295 4.012212661460756 12.270410369696545 0.002644122491066414 0.5521027520149331 0.572451233764298
Ni 3.2808040244225376 8.795741563846303 2.549722409292452 -0.4289857342470741 -0.40356832261523407 0.36419059214855987
Ni 2.7027950791099196 9.088530927946316 7.989595212394078 1.3402795683134465 -0.7918514369366233 0.7471042146279198
Ni 7.228750959925805 6.219856490978726 3.3607394742343244 -0.21939737495884795 -0.768540787235141 -0.35251829801695417
Ni 4.568851317177872 0.7019138115133776 4.171410387852825 1.2466947556767496 -0.0730902922277709 1.5173198184623222
P 6.556734602581822 7.799290324049886 6.779395530415879 0.04657707642859075 -0.5584312653361221 0.36222755488491815
Ni 3.5547736876255747 7.423260675924424 0.6436756732052257 1.6442706081539744 0.6298773370922506 -0.444781306518434
P 2.9501475273947735 4.286036576738163 1.5615186802376242 0.34259306848344223 -0.661155578380242 0.5157990324878923
Ni 8.93510390848466 2.247105080382298 12.642488427188363 -0.21660310004316244 0.8333922364928873 0.032410555120221604
P 1.655805746101292 0.2903098275152331 12.66079345572296 0.9805740085194339 1.8419822706092728 0.913202363942995
P 1.1493681415183672 4.004570004610532 11.729971595913208 -0.8603931905617634 0.2893704617138758 -0.788237751443436
P 0.7727199756335136 0.5557268202573934 3.7258844850888284 -0.8408965152897324 -0.49864668907832194 -0.35299575187400495
Ni 4.742100054525211 3.1251725675857283 0.6017922740018328 1.1391573375147026 -0.8513994717035853 0.9714825877411268
Ni 4.581185235384313 4.437432234486351 6.6815631462612615 0.9879857276024726 -1.8782793052680942 -2.620862749207525
Ni 3.766308583186851 3.359489685772047 8.685527893409413 0.33130515427444873 0.10978944742101736 -0.4285280778843652
Ni 0.843179077505743 7.090436178502913 6.781834986321112 1.8891810397822626 -1.2157505006894094 -0.4018138018179725
Ni 4.948424461745214 7.813801351895425 8.398896379167267 0.2566462320079773 1.144288745203997 -0.14967137121761964
Ni 5.182404537853513 5.41443523545651 2.264797967629248 -1.4175463605164105 0.9006468958754876 -1.130684267046685
Ni 3.945478330012909 2.2175820161968667 2.667287240728305 0.4914391155862891 2.019342880212045 -0.5018402563149551
Ni 4.487970327698561 1.024143345666121 9.439348917711389 -0.13581775316397898 0.8794409512218339 -0.9979240697621072
Ni 7.093660851357477 6.825393575744715 11.960274269672954 1.6876469182570808 0.06781490276144449 -0.30203134501099593
Ni 7.044762422308605 4.906148454067155 7.424225345007188 -0.6746227596287414 0.044327875383097855 0.49543178168544993
Ni 6.4049654657742074 0.8458945435451373 6.630247123496 0.22208546331397236 -0.4768090243779401 -1.7685325381595542
Ni 6.96192294507864 1.5642851580509889 4.329838383012661 -0.5820818148755266 -1.421210953852191 -0.07284192366239067
Ni 0.4580256092358422 3.6409289301636227 1.2148044055035718 0.560478634783454 -0.603264876711045 -1.6965938430377232
Ni 0.37956767902013006 7.818328646835307 12.412772388829277 -0.25960608596724966 -1.0775951005311892 1.5950959462015368
Ni 2.106995777625086 8.112894313778938 4.72320747966542 0.6230492584268237 1.537793770045958 0.3417194076292373
Ni 3.8331066793521607 4.927464088190546 12.951757327054457 0.24639935746898858 0.44894186565402683 0.18243930967726
Ni 1.5698964531877448 4.06592077205542 3.21901783504983 0.37275108012406133 -1.6707329161105615 -0.5443634743891463
Ni 2.4921802173291834 3.5024592915697483 5.999588561898606 -0.08927718640027851 -1.0396931832790934 0.17117042163166005
Ni 0.2651036347020557 7.171772630249818 3.873113574013067 -0.10196789449406955 0.38015302901508724 -0.6804367952073572
Ni 1.5449462301689554 5.3722685387226745 4.9706819918379885 -0.39348471312698685 2.201713798545214 1.4572087121030388
Ni 1.6413767014639196 2.133931816130585 8.267653104911037 -0.07700813922493834 -0.10033524398665301 -0.29175104613091046
Ni 8.642369199856757 1.737224181056364 7.002991066823039 -0.9553239757033934 0.8494366915502596 1.703011573638609
Ni 2.4222940869895866 6.904798867477022 11.71353305175121 3.2964974950405486 1.7602330171549234 0.7304858893449484
Ni 4.4298988885803485 8.684745409233686 6.2831138234757615 -0.1737600367357072 -0.00494140316567536 -0.48764699553370855
Ni 3.73348797218404 0.33745017221119394 11.740930928996049 -0.6289399128796459 0.24535986046088062 -0.34059506421680696
P 5.7229562662792155 6.314938793961613 0.30782963910049715 -0.16785652676707866 0.415789033051142 0.37454879545443237
Ni 5.861343921664923 0.9073491563870368 1.8500968402114657 -0.041722576549766854 1.8594670576575976 -0.4233894711062192
P 4.225050179107351 7.2753265314099504 3.9136169225456507 1.8381546693330666 0.8110670906331259 -0.668727477190229
Ni 3.8100511793665617 4.860839067686921 4.095709826205127 0.7862364047426911 -1.459896543347847 0.85113284830576
P 4.630584672927539 3.2924911862089954 11.55081278018157 -1.0804811638297327 0.034097455904341274 -0.7963750358385897
P 7.047686490066557 2.4568363453639024 0.8646686982153546 0.4235771616369931 -0.19347782687960874 -0.6317984653743636
P 8.50461008240033 7.757752165245329 10.305322059861133 -1.2835921429237314 0.2614752779655045 -1.2020920293657105
Ni 7.1248326889515985 4.6158003677214445 1.1257332935283884 0.5495545316717826 0.31035374883376227 0.723403014356238
