# total energy = -340863.76154366706 ev
CRYSTAL
PRIMVEC
9.27530084968787 0.00000000000000 0.00000000000000
0.00000000000000 9.27530084968787 0.00000000000000
0.00000000000000 0.00000000000000 13.57534035529601
PRIMCOORD
 96 1
Ni 5.125725909827354 3.6750410652870134 1.9938241887514843 -0.46655983584610616 -0.7578663382404303 -0.36248826474547247
Ni 5.707519141886795 8.299529729032386 3.1142239256038557 -0.3135977096923567 -0.12187080406558366 0.3032377066142713
Ni 5.501755872695777 4.4389733758311305 5.972022889971915 -0.20092914095133138 -1.2126109266191631 -0.44791882370615116
Ni 6.197227189284841 6.98367992976025 10.979056487748702 -3.4017240056812317 -1.5846007030971676 -1.259462082644747
Ni 7.2131508673632885 4.671022847009498 9.983155401141705 -0.6831691065368556 0.7039420774181488 0.40969449011762993
Ni 3.7592886209154854 7.251402207164215 4.535833485257202 0.7849541955961578 0.47598884246948997 0.06707416794067803
Ni 7.0528087453607125 3.4617648025851433 0.7927228437017497 1.966284052713852 -0.01971341926852734 -1.6340268189387792
Ni 4.701353080071824 6.4674352472578285 6.830907380602373 -2.388641225900815 0.7233181679519156 0.4519140609084733
Ni 8.592601403060002 4.778607059024763 12.285533595733535 0.7148738938393043 2.1146511032977515 0.12497258291935898
Ni 7.301025065538357 2.3730856663596365 9.278649941738356 -0.599523921611374 1.0395016360935776 -1.1559157879199642
Ni 2.4407768103623435 7.861364527239034 0.02454151793871785 -0.022195305150116616 -0.22447761769523278 -0.017998236349633517
Ni 6.413434446986005 8.406984086838822 7.288409729150568 2.489779168294422 -1.5983445350458214 0.04184136151581826
Ni 0.15567479072521737 1.8220678817927929 10.283469229901755 -0.368127722419437 -1.073527615330035 -0.5288095858149473
Ni 1.6177886607026828 8.044542439394345 3.7046830710425422 -0.07838316519559403 1.2490398588701586 0.3986269194495586
Ni 2.422087079591522 0.6337070896893612 2.3345644153103566 0.6936291255279151 0.28000033335288554 0.4373369344252468
Ni 9.154257957450236 4.745253077956835 1.4520594440938077 1.2796724961543509 -1.4491285061980657 -1.4362920165550297
Ni 9.284297672292379 6.592438473857511 4.489201911336456 -2.8145686329375397 0.2174991294948706 -0.24685084318411035
Ni 4.740791658353478 8.73554306107942 13.389602310765468 -0.22815043856112965 2.1865067517874732 0.3967173611316716
Ni 5.199817011265231 4.441802342523488 8.233226170004029 -1.7192540036394004 -0.30218895363478276 0.9151080656061401
Ni 8.642289188538559 1.4754591725248887 5.813341046782231 2.6512179644606144 -0.5070763079029139 0.7101484633391769
Ni 1.3158405239715059 0.8506322556593411 0.2128996854962645 -0.4782737818489247 0.24535986046088062 -0.5683390113681372
Ni 1.938018414976931 0.09213527128480285 9.506091443563403 -0.5558802167794942 0.4937603075202981 -0.812655003945536
Ni 6.765061093895108 8.638848052004576 0.981811904948994 0.9923553174250782 1.345195003337193 0.7331706352659632
Ni 3.4126984622488425 1.7684844700493507 0.32345663136366215 1.3001515899443092 -0.329553975911297 -0.07326255613957705
P 7.131073732082395 8.646231191306597 9.437495030219141 -0.5197395051928791 0.13209402445548862 0.1920099840848306
P 0.010008049380504388 4.669075033877054 9.69681110266152 1.1953017459167543 0.37776961638457524 -0.9245147036320207
P 2.5629325196684074 2.218364376539253 4.057790983462365 -0.12659314924191745 0.8551525109881143 0.14403577019839708
P 7.281611861318343 2.5484630506845454 6.976381195693968 -2.592123215180987 -0.6872437908268616 0.6695862256460985
P 4.243848876463502 6.608670249961202 9.701522027851842 -0.32653370102773444 -0.6574369918780741 0.8407743878895715
P 7.20103732473962 6.66029657327157 3.053569024659583 -1.1483433748893448 -0.038578631604146464 1.231085331274267
P 5.09091570656041 8.839129618522863 5.831042958035885 -1.77371433947081 0.4680865569032777 -1.8856300892062106
P 4.397160320588022 0.6478621259818429 11.659058457945916 -0.20205605546692298 0.24889101354259066 -0.2780241834631212
Ni 1.780069320537071 2.765393781834904 6.237203735003074 0.7234477515512444 1.181930981036803 -1.0213887285429506
Ni 2.8820028613638202 8.128047970972363 11.17257264998697 1.3630279177535558 -0.977275026053188 0.5828415758596865
Ni 6.810500791684812 2.0431724982269572 2.9177610003552203 -0.15104716851922373 -0.7299225606423106 -1.4150729592752533
Ni 5.781331984305752 1.9316833846461763 13.260500328817088 0.3949996071096165 -1.3610070306687851 0.13257044987127492
Ni 6.183703800965308 4.613553084301801 12.161414305283955 -1.0845399072801385 -0.36784670084390847 0.6713296906997664
Ni 8.269041815859339 0.9615518657813983 12.987880692680122 -0.7247489868611712 0.5313153829559365 -0.07155868607459288
Ni 6.485262375069996 1.5275399855661604 5.089205341124113 -2.6486247498121416 0.32341058201772044 1.5205488669225815
Ni 0.5622854197729944 2.76711898775221 12.340784706530375 -1.1040802913059116 -0.6457603268710943 1.181388992490404
Ni 7.434635771123311 8.71699245981806 5.017839323011529 -0.05264590833048998 -1.2561209340866561 -0.9094536955338401
Ni 4.207953463022768 3.0214013545423195 11.911817820372468 0.8481169442975717 -0.34544750721310186 -0.3709101702605806
Ni 2.0211807604316134 0.5947758703522055 5.829060826291108 -2.0502745367938946 -1.0020923422071837 -3.316854461430346
Ni 6.372344865192091 6.177804709764195 0.9855220252012662 2.7331680210718607 -1.2141810993197606 -0.294491584990525
Ni 4.32122343432464 0.775253742493926 4.015694104019958 -0.28333839658718296 -0.3377195424412248 -0.07433470615783326
Ni 7.956074621978915 3.4636013121100175 4.944885373430974 -0.2745405957898949 1.4108630349589637 0.4970685459579245
Ni 2.363337325396791 3.4859733372312194 10.892363962873981 -2.283968273770757 1.0799052367216047 -2.537299582472888
Ni 1.7809875752995081 6.376750632991665 2.00051631815652 -1.6616718343495576 -2.59850726433046 -0.48769250405966336
Ni 3.498504268383269 5.5225047202066095 11.518608145675898 -0.3764917781134161 0.5668773392209463 -0.31522547510376675
Ni 1.7820913360745592 4.202082197723548 8.118420208917717 -0.34830528837687114 1.4052531449713541 1.0515071451948859
Ni 8.544944908419565 6.832882092106645 9.037918789169673 -0.6333699236265414 0.06886031330682335 -1.9215895380199552
Ni -0.03058437629960627 8.077525408437046 13.334540416101495 0.5122136291294791 -0.15243839243979554 -0.4094844309893528
Ni 5.447384060398727 1.082603814312411 7.749170490810321 1.533176840099237 2.4668927506145515 -0.5954746912426647
Ni 8.12951346847201 7.912990850549403 11.270572693860553 2.382815620357974 1.4822517711145955 -2.584810483569658
Ni 4.697188470088648 6.602947389472072 13.240680866429448 -1.0385582983437016 -1.6187508666163153 -1.07618047957185
Ni 0.7823623328972794 4.062062259402793 3.694746441476894 0.6293636306806257 0.8964742525550367 0.41671025931383077
P 0.08709878304234328 9.534452530301836 4.397378290152843 1.4746515901698345 -2.2883939136422784 -2.258719269395981
P 5.260551679794927 1.1109584083404016 1.8076791079244179 -0.8037412463956738 -1.025610479933782 -1.101732617009341
P 4.384777794246063 4.3007528458327275 0.06954156647852794 -0.04625311743026873 0.6641581126519917 -0.14847529402698945
P 1.8257872773456956 2.194489752715881 8.958842213642805 0.6709702504778187 0.23085755307964756 0.19885580336207043
P 3.165947639570846 7.8080686498151435 2.1125396890536288 2.6979115118624115 1.4560064642648216 0.2951870683956529
P 6.936190390531165 7.562672021029226 12.780490535758481 -1.7693748315551912 -0.6496457779684295 4.010467903228976
P 5.306093405891569 3.3839357549931024 10.024533444785233 0.0757945785328114 -0.5300938518440096 0.8770613952460636
P 0.7578384380297599 8.75214584920834 11.266202172203375 1.1875987208455419 1.119811328887923 0.6324286427591947
Ni 9.242688673663146 2.8069193027584607 7.677805400227802 0.625043148928401 0.6099677426525173 1.472242980728342
Ni 3.2764442959841444 0.15956392427966173 7.467604827215065 3.8920786299540904 1.228034460263085 1.0270125024876313
Ni 0.12662454914992566 9.114596771953446 1.9456315817345937 -0.513259039674858 0.6424654581699063 1.0797887657483987
Ni 9.043547969122432 2.0754134432192033 3.2249441167623534 0.9192282584221008 -0.627076634418662 -0.23939644378859418
Ni 2.1917813649317224 3.1128558187608304 1.7763332294430327 -1.2234897783151961 -0.5566158093939382 1.55322990209537
Ni 8.41228028349894 0.5856628874825617 8.082553548908939 -1.8651026586768205 3.517796200787168 4.466234505114322
Ni 4.7431568600143015 6.048961508703411 2.505165947340528 -0.7143342192857505 1.3415229538022444 0.38043970701757057
Ni 6.13263399569278 6.520341562055231 8.624821014860798 0.9564159232159917 0.0667797766287108 0.6866076999047594
Ni 7.390912003950283 4.531837685745505 7.6273050984139985 1.600671126296469 1.7149345503284399 -0.9463683091720024
Ni 2.255910793492248 6.539634187367046 8.79462116091648 0.351204207191221 -0.5235105421995371 1.2939770857024813
Ni 8.59244372294928 6.942098757032908 1.5413444154948024 0.6973014321731797 -0.36407437828566974 0.6358983464753499
Ni 2.1688342711714186 6.454199393257848 6.3815904848607525 0.25740445033024056 -0.1606679794384394 -0.3220666663953163
Ni 2.016728616128887 4.023569761785469 13.328730367786438 1.9230974900240492 1.81324042258989 -0.16955216930194672
Ni 6.310395132279774 6.496309258121137 5.311026010766965 1.987489483146874 0.8592490496549912 -1.5185084394537849
Ni 2.231349797422206 1.3213964290492837 11.56838868416076 0.9260586510803729 -1.3893601278901813 0.5043923333128475
Ni 0.37266673885973817 4.879299722671432 6.148013371668512 -0.5587562527757086 -0.5435440638116446 0.2680673293607254
Ni 4.845463425970709 8.60579088055683 9.109460110464175 0.02948566816394277 -0.38569375632765834 1.7611845824349153
Ni 6.56218244320023 1.0671975399648506 10.936945695355348 -0.7366930465969248 -1.1154849335984272 0.8190202840419313
Ni 4.144306350095038 2.100141394700598 6.076023125823484 -0.5600929693092611 0.9195110797698423 -0.646475350660248
Ni 0.7513420174680312 6.438255151473707 10.698698468295559 1.7165579448644759 -0.3155070108999276 1.921343740557736
Ni 3.363103429776593 4.429234310168916 3.29983938676491 -0.9729961961721759 -0.5804085409381617 1.547180867687813
Ni 8.931919726032191 8.505932993966923 6.8130830353803935 3.6300981302173927 -2.6752132989339477 -3.507279360416244
Ni 7.36701882952565 4.382032305259382 2.8227207049128884 0.21767704983363154 1.9605049841382298 1.1445782514199578
Ni 4.032344196182092 1.6226210923312676 9.566148087616996 -0.4917031678809532 0.27509415430051976 0.7800194772987018
P 1.1939166971812092 6.033026542219901 12.927701614658204 0.13982276055831402 -0.013824307477601999 0.4969924413043505
P 5.83280990280603 3.5255695956235953 4.133976447782649 -1.05935749447724 0.21782231716224423 -0.2189554023254229
P 8.33036082832877 6.609208217397781 6.545540698808663 -1.5761523152194983 -2.748572271442073 0.17558397731832343
P 1.7311142838083386 8.247040802763365 7.69538487751313 -2.8775560324033536 -1.1530731762648465 -1.249844357049325
P 7.796604378235623 2.979245113175876 11.556754674579699 -1.0242501092511456 -1.8697530129646383 0.22881918249338012
P 9.210076716645672 2.3609442978340756 1.0454979741393733 -0.34872823484690263 0.1463091396136061 -0.30871029969306835
P 3.4506251665276957 4.4103590733854805 6.864397708589571 0.5488508207365386 0.11886132781529853 -0.8517625114699588
P 1.9502896377113217 5.874251946023911 4.237474889870098 1.1521676337314415 -0.7863071100796264 0.14394192493301014
