# total energy = -340858.63457948476 ev
CRYSTAL
PRIMVEC
9.41088499232253 0.00000000000000 0.00000000000000

0.00000000000000 9.41088499232253 0.00000000000000

0.00000000000000 0.00000000000000 13.77378145309915

PRIMCOORD
 96 1
Ni 1.382120189302044 0.018739894956947657 13.879150357434092 -0.623913663309648 -1.4609445249963873 1.1629127880630874
Ni 1.8413619579979157 6.875535989643055 1.0807290739943487 0.07980884189852708 1.2800293652731374 2.0594554319622147
Ni 6.171611215432877 0.05997556900548758 13.623688124438397 0.8802580478064904 0.43244669621248105 1.8865644280950218
Ni 2.166300989320915 8.221612490055877 11.685000677731717 -0.4383833734118902 -0.5082263623469571 0.581408957178218
Ni 0.42342864648492157 0.9645215859677423 7.985307995303469 -0.1468776105225664 -0.6258281067235416 -1.2916558937684723
Ni 8.888110175307194 7.608323947619094 10.714404365607841 1.6305326897425918 0.6549257954204464 -0.7869866526451543
Ni 8.78696198518151 4.841326179760556 12.394103320773972 -0.10177531886728923 0.8055340766300385 0.9674770661261596
Ni 2.4612663524684115 0.8172195933826815 9.841462923161691 -0.4757237617335613 -0.228119071102562 1.1997636383428496
Ni 2.174751963895986 3.3594129677479847 3.214318768743449 -0.02866728602770547 -0.5274289034173368 1.6275450678691779
Ni 3.849061305321422 0.5454718241930441 8.013627229926302 0.7790666264671293 0.11262383154601893 -0.41855836826616305
Ni 1.9257399513610416 5.68360037181942 11.195136830895732 -0.7432701855938103 -0.9048403651315449 -1.2994825889017427
Ni 4.145824147470966 3.4944309323677443 2.0120462350253168 -2.0802541138751205 0.38279560884425684 0.9155317834071199
Ni 5.018429621328777 8.55413669454982 6.256657381618753 -0.14956081378168434 -0.21098215431195924 -0.8192372851487438
Ni 0.13603998671202358 5.471234344802657 2.961982831687441 -0.8856663633062554 0.6410287257233799 1.086896066217141
Ni 0.5336009340716692 3.701771546886637 1.621945296068409 -1.3735876955472732 -0.9943435514997006 -1.032680499406686
Ni 3.245353043639008 6.604126071218724 13.129815240665906 0.921380271768097 0.4175949759116292 -1.0282183498702742
Ni 4.676513353777016 0.10639099406306883 2.4212795028364775 2.0148676180495104 0.06424132647757323 -2.15223806041259
Ni 9.170879031718284 3.5159630368530035 8.27134807528059 0.44979084391788343 -1.093244377032672 -1.398459004867656
Ni 6.882057732828494 6.334099552864032 10.734872099019112 -0.3679294903657019 0.19514081640432845 -1.2457743007450093
Ni 6.343924516623914 6.780533107309712 8.209862059260294 -2.0457460527959217 1.329307642682975 -1.7335087137862015
Ni 8.653835608412072 2.636346453798726 11.379044342194215 -2.7971584078808926 -0.6101402636746396 0.6767729732025248
Ni 4.65817153924827 1.8065416841362643 0.3784624976907712 -0.859192742495759 -1.0982261465179795 2.301056082490979
Ni 5.426316191521126 4.601565067011018 8.982460883321993 1.1228724843117501 1.0292002541675696 1.1006733225068914
Ni 0.5585661293419905 0.5908238192651208 11.98598618390335 -0.37018974715478825 0.09066275389389547 -2.628535692371751
P 2.266385749461094 5.488757412351411 2.8181016957371665 -0.005006709185972022 0.9299227620214693 -1.0374545237565616
P 3.3118127122906245 9.316088984606198 0.8454578943959978 0.6858304554191027 -0.9971730505286956 -0.46956262722817194
P 5.7965309897491 2.528318906864159 2.3082792443590745 3.1264768707426156 -1.8210684032747413 0.9371722444950312
P 3.10779414011583 2.831132947957769 13.144236480575527 -0.20089648794118303 2.201579844070512 -0.804215357818615
P 7.629056126894018 0.1165142828719819 4.2989627708260265 -1.968017233354875 0.8272344444216077 -1.013275612517513
P 0.8062615590895714 6.734052747146821 12.682429304675686 -0.7919200853910298 0.7844188919179782 0.10520671314634139
P 4.852496900050768 0.7771264007521967 10.768466134587745 -0.9706999439388314 2.708959799256773 -1.0380564190066188
P 8.38898507671249 9.125612675698138 0.18881246447056305 0.2074052355939783 -0.30368559278496726 -0.3610672160282298
Ni 4.118720799167844 4.641674258145709 0.22673738923679784 0.36258211001085944 0.24214186774421526 -2.1332530346696554
Ni 5.930222019608186 4.841674382499173 6.672101833416047 0.3244642200932154 -2.6080779387380306 -0.47608911549278005
Ni 8.895827100865722 6.582452803461053 0.8329574160796651 -0.6846505761783886 -0.29787438541982897 0.0012269304285656287
Ni 6.073822711190601 2.5642496651354527 12.803569978528854 2.7116088068438464 0.9680915597817069 -2.3321047242666673
Ni 3.284925814338533 0.7661693075475696 12.386775064758819 -0.03858068848667549 0.04685347001842898 -0.24087302833412066
Ni 1.5393760747691236 4.936752551911136 13.652516487930397 0.6907533466420168 -0.9796337560933517 -0.1527929475657369
Ni 7.782340618963904 1.5116327862977321 1.3481007817392108 -0.7831600798102125 0.4301514724204011 0.5114757225221901
Ni 0.5685661355596636 6.690677978976996 5.74811575166568 -0.08356419517590125 0.5514206383462439 1.3299691875263742
Ni 2.258010061964643 4.941147435125566 5.045074659540802 -0.8573582603901816 -0.11469305537022181 -0.05783208051711975
Ni 5.9894353069426485 1.6953050254755293 5.300839923027942 0.09320968868546527 -0.0786680434258645 -1.0117275513041026
Ni 5.703833774198487 7.31629478053777 3.5485670473377846 -0.1961772280886428 -0.7583124246389134 0.8758648038348013
Ni 2.8650027224518455 7.839577620484596 7.3236851483927845 0.13117048419995472 -0.8351737538733424 -0.5587562527757086
Ni 4.42534624861658 2.7032296122675783 9.04904383456485 -0.9073682737597211 -3.3053050660298493 1.9835289558372289
Ni 6.5814270170148585 0.8319090435098845 7.440982416882411 -0.0777038797403823 -0.0076963402029931955 -0.05621177130487739
Ni 0.9165185446397663 2.673293587631386 13.10233733914665 1.5866575856261964 -0.3514790581191624 -0.562564056557573
Ni 2.0774057712406018 2.4505003002257824 5.907298986345427 -1.5001453635655648 -0.3360673515497825 -0.713207561880475
Ni 6.1788481858652045 4.127303526130499 4.175150346770339 0.19437359922100073 -0.9157618971400551 1.034725811971489
Ni 1.3452483425480035 5.588437504444009 8.105292071411341 0.016565103447532762 -0.16044609323562048 0.48072095783783664
Ni 1.3988056881011544 7.5015480483665815 3.805048479160295 1.087135435921457 -1.4398532515437268 -0.3396257583250022
Ni 7.707147649192392 7.444395744809336 12.630681672274859 -0.49052328864023903 0.48384227707563765 1.676868596694654
Ni 4.146821701262679 6.288607335608026 10.930307944231252 1.111919327734356 0.5059828177284188 -0.9605291740534165
Ni 1.9567394059827388 9.411637698259536 5.834036189052029 0.22225309924008824 0.5345004655521375 -0.8905465742166921
Ni 6.26248271932696 9.181409811840227 9.52930763778833 -0.7691408827129851 -0.8829355946386536 0.24022819566127016
Ni 6.9195601088659755 2.216743331996172 9.41822249437332 0.6374551494395085 0.8935048855140677 0.29908203257468496
P 6.956441366504844 6.209113591470358 1.9858482138425966 0.016817328667654906 2.3477252044127437 0.681322026025788
P 8.460479568746806 3.058142311766081 0.0085413190694148 -2.6151988660535284 1.4510419211706944 -0.18789107682045061
P 0.41054326297914506 3.781152360406375 5.294544982166845 0.26291355307392783 -1.6547956760550149 -1.1213797018163074
P 5.775347088002458 6.342456418590828 12.522240046407882 -1.991870128713073 0.4588313568535969 1.4135261836134236
P 0.7867603235500812 8.338881525891022 7.283767939308572 -0.7332307990799373 -0.9410857206168244 0.38482523767977594
P 3.4791570662927556 6.553457867307608 5.540365763656793 0.9753826941264814 1.5527449920391516 0.37654165751474505
P 4.156740773870836 3.1575871317379915 7.137849346793151 -0.32644654063056683 0.3285347906181632 -2.144150912529082
P 8.14398210111405 6.487628727939431 8.925272818402403 3.8941977331796225 -1.087269904616792 0.88694317313615
Ni 1.2707141347144149 3.0199999955603314 10.781675252531587 2.7688204801681477 0.4325474834564034 -1.5580995714828456
Ni 5.287590338279342 8.560376111190434 11.909500158556543 -0.4968705710145056 -2.560029419970236 -0.7084816171597154
Ni 6.666708455321422 4.834070387558574 0.12468669525615973 -0.2616519127526849 0.5197906701457887 -1.623040495130605
Ni 2.258433551781879 1.912865860917058 1.208247504495095 2.0552102835326154 0.28681067140649963 -0.5414259890273772
Ni 5.1194742917213585 6.853354534104701 0.8426553328943763 0.47815936775824747 0.6532208969141975 0.5549201668590701
Ni 8.51416866668754 2.5570691600120905 3.5812792829980826 0.33954913945079584 0.20083298169309927 0.28987079838906205
Ni 4.328320026045329 5.210750463663022 3.51413261975406 -1.0887264345576606 1.494465282461652 0.7101237807488286
Ni 7.592071349522048 8.411797061534285 6.10546304706905 0.01318050324601601 0.3474609380987048 0.5116682981489703
Ni 0.11343033591401888 8.612691219946358 2.1446192517668994 -0.6814986608129683 -0.24642969648629173 -2.3546167893262546
Ni 8.192937523986567 7.337883350331993 3.9995065334388595 0.06573899406902226 -0.38098760910124063 -0.3439112730742335
Ni 2.4430939338665607 0.046190504910204634 3.0720214847096385 -0.18468671095053998 1.0098866414406222 -0.24689789437196188
Ni 0.26330432332242826 0.1242227386341653 4.111570408875929 1.0638564107888582 0.6462442084860484 0.7985203643163666
Ni 4.247706386613193 3.6498328735238115 11.286704740267046 -0.5154048823732672 0.07772779099978228 0.3521750557449225
Ni 7.24027365290144 4.213949542737046 2.1844385876489043 2.0386531505048824 -2.402837057785223 0.3934083513630966
Ni 8.47297722379769 4.922175091313379 6.32204138613459 -0.9588985804285293 0.03517783345271361 1.273330355986407
Ni 8.829593293449964 4.5658789917452385 10.107930244874632 -0.5242769880519164 2.274512784784812 -0.029511636305871752
Ni 1.921476820534196 2.5222018317263015 8.126393157371501 2.3318933795868095 1.9393954558531241 1.5259533257676043
Ni 8.22145250501381 8.620972798594535 8.342242152862912 0.7738426590640286 -0.26233634041421916 0.7572973531108377
Ni 3.9653139655952008 3.2549897897023405 5.0503221689206015 1.901578385005351 -0.06845022235259825 -0.6948023199004099
Ni 6.83663139176628 8.769523615596203 2.140459640673156 1.734699648770509 -0.13457231079265208 0.09292635311709158
Ni 4.100727187377714 5.825516515017718 7.592741404521764 -1.672159878365075 0.056329013609032016 -0.18073749649480486
Ni 1.8068616542203983 7.802856347887795 9.505038847995241 0.12942753336691903 -0.23985204326877402 -1.1611130158501877
Ni 8.799431407577913 1.473038747620264 5.760732924953874 -0.592188050071593 1.059355180484395 1.4806062650913727
Ni 7.591102028384817 0.5086065650583828 11.728746234763744 -0.4873901423278961 -0.7361975950177451 -0.4802162502872762
P 4.274790913146661 0.39042373230648986 4.346991221543036 -0.4144368898986217 0.0596454795767747 3.5903295920702036
P 9.1664653267342 0.9110404685816941 9.911199461910234 -1.121011262733295 -0.08441137366754495 2.0138983121577057
P 7.506121738392734 2.7848031619521176 7.1383443593350755 -0.6498694639434615 0.37177406092277265 0.08204338765600064
P 4.468532799089855 7.841121005596301 8.827231161358268 -0.6781695964397352 -0.05979151823633574 0.25195474006957896
P 0.8552358037317427 1.6339648781700582 2.586096093173949 -2.268863814029151 -0.7272794665925087 1.8001771616480287
P 6.369522123354642 4.3124438633413815 10.867402766778971 0.774231666972331 -2.755670315939435 0.6778299537121294
P 6.899072612596567 6.443736361104095 5.874159496513961 0.16991675173021706 0.8638564665200154 -1.766818640792241
P 2.822183196486842 4.248365148551116 9.480218580351263 -0.7808484009579003 0.7861757267080848 0.24585608337100884
