# total energy = -381165.49824602285 ev
CRYSTAL
PRIMVEC
9.26945078521374 0.00000000000000 0.00000000000000
0.00000000000000 9.26945078521374 0.00000000000000
0.00000000000000 0.00000000000000 13.56677819460955
PRIMCOORD
 96 1
Ni 7.560840560201529 8.970742531809972 1.9271882957632525 0.46885685941039895 -0.15080162816732093 -0.9783734013236891
Ni 3.226556703970524 5.606413983918814 0.6079841902670241 1.1668571174228162 2.2349075116883643 -0.051995676341000774
Ni 6.0864788292831165 0.433250412172029 4.51351795258096 -1.4651480215547734 -2.1539082490261614 0.20572167724396825
Ni 8.718743248433375 1.805818744637987 13.240483203675817 -1.4571377496557871 0.26347045401866237 0.8976813854892605
Ni 6.2670384570655315 5.607841479307616 7.034943843406077 0.642540534382216 -1.233676746150527 1.955404429686871
Ni 1.8484211394882348 8.53973161889726 3.7138786021912806 2.13290336463972 -1.9198057066466547 -0.723802820897818
Ni 0.5049171693053387 9.15377710289635 0.735047964881521 -0.3760361786332363 -0.6977912273254047 -0.5650315442614591
Ni 2.2755388831587573 3.8889794505291104 3.164600623261305 -0.37690649705333157 0.2604195830074806 -0.9332752234334701
Ni 8.77634361431663 3.5886492518459012 11.693490692764122 -1.2033320724203984 0.2525224396475909 -0.7089881244824886
Ni 7.3003597295473055 7.589223617867208 10.823982858653002 1.046754718111565 0.5106285440305464 -2.7896867820941953
Ni 6.538614820059997 4.470998982785902 2.6868049393981637 -0.25539076233432145 0.36742426859450916 1.3158142361822305
Ni 5.29132681991759 4.828234338559119 12.460163242177975 -0.9553705126706127 0.956434949379385 -0.3886554100591435
Ni 3.1759455038220574 8.156152484585226 5.624867606126792 0.09836577896510802 1.5317953863706781 0.5426585758828977
Ni 5.704948243548521 0.5565665479183894 11.257997073552549 -0.4510666253065135 -0.7593308386010987 0.5360366996910059
Ni 3.038034618142774 1.3619603732260486 1.8145700329273948 -2.370185590298789 -0.12366183452773542 1.4839065331091992
Ni 3.296837678242626 6.8853478883298775 8.977639003038995 -0.43891147800121827 -2.155712906335068 0.5196749705035308
Ni 5.330017506624494 9.016552156559738 1.84167668724867 -1.0744578404537883 -0.12602982053927972 0.6251133400447041
Ni 2.666227686063076 8.313621910981224 1.2293099007490094 0.6822149701537025 -0.8485458043048741 0.16520443385621225
Ni 2.794609576549571 8.800407108013593 7.990004998559374 -0.09788575400489594 0.5304941726062218 -0.09427926760056021
Ni 0.0713896005610681 3.0424376071666788 2.1643082570742234 0.045097920779902975 -0.5191424950388285 -0.3739353302401495
Ni 1.1031573131261965 2.6253123312177764 9.878662969110698 1.1832067624254332 1.8634952049803841 -0.7578467978564045
Ni 9.11623582806095 9.036639055959322 9.725005140791815 -0.03318677116461381 -0.8945181572699303 0.05996635325130319
Ni 8.968462246968118 5.839318199107527 7.031579959791813 -1.8181286039201268 -1.5379842887902093 1.705635384414701
Ni 1.0027691633811606 5.324613416938312 11.263424336865171 0.5459719565268467 -0.17516180217924027 -0.6535124600126874
P 7.673686851521572 1.4924000817405587 11.096308193254062 1.8566000205224478 -0.7009333724988122 -0.6751434080189018
Ni 5.603216023469872 6.885106882614886 9.205207722475793 1.327359517817669 -0.8376857216619186 0.3992825507556865
P 4.410460201069852 8.297771150495167 13.511370846492438 0.4855448615890412 0.2649714640442211 -0.7571783110344702
Ni 7.033816678215956 3.0986382860128607 7.780166884185578 -0.2478515165344828 0.9098571016198459 -1.3262991948739544
P 1.6195676742015137 6.424359572252304 6.508661517466635 2.360140033137329 0.6270784341908748 0.5867913045360539
P 5.000970550054847 2.9776348781853725 7.105260968535427 -0.806596970676914 -0.9104834223499352 -1.5176617751827735
P -0.22336131582006044 7.8378858990362135 2.7660086867953417 1.807871702078809 -1.6629769263142262 0.32482288898421474
Ni 4.594968614797916 1.389054977261574 0.36305657073534775 2.967106527069677 0.8160609443032913 -2.2354741828251115
Ni 3.0861801444378534 6.689901522921375 11.5073545635148 0.40741417872388547 -1.6610203168084876 0.5757666712907761
Ni 2.8999383434519572 1.3772735055786616 10.48058030397531 -0.03134740396302989 -0.658862154360375 -0.30545374042898366
Ni 5.4400922322221215 3.7820748770286956 0.8742537928063616 1.378096382050904 -0.1545065878227339 -0.934412679472023
Ni 4.569644475822529 4.012652460122672 8.891178202785362 0.16966864027515297 -0.14662101442707007 0.8272730109690267
Ni 7.541124438825011 7.043568140222584 5.68791192033371 -2.6246826371742475 1.1975596887129958 -0.257187449223428
Ni 2.648801118978988 1.911750025827855 7.8754874253003635 0.5554449290142885 2.6096134015459507 0.06498977460782356
Ni 0.3791529716616871 2.935755500480103 6.739921332123052 0.690935637856152 -2.4402178124265266 1.4261428439361696
Ni 7.164617895302955 8.164281792740942 13.008748793149877 0.29185106204388445 1.0949307635961594 1.1847054584581467
Ni 4.496777324839544 1.264241825247086 8.915720000132081 0.629236361074142 -0.057138653994520956 -0.014360639597046233
Ni 8.669791279938128 1.765783987597469 8.828051390468314 -2.059610212372524 -0.2863566145882165 -0.6952296372458155
Ni 8.390011453183334 4.267256459111305 5.6072575039212875 -3.528528499603007 0.03192255974020954 -1.602812083898872
Ni 4.133785640258234 4.467569286072544 4.443187850220802 0.20188584843764587 -1.3644579653318631 0.5390124944898782
Ni 0.7484265628987887 6.751673141564119 8.96880707052957 0.35750469548795205 -1.1118175120491691 3.127485514512788
Ni 6.369808855608764 -0.0185398280983422 8.772061128150222 1.3638938652982768 -0.3375393081096187 -0.6864673176721533
Ni 4.253074199729042 6.048909746095986 2.7346825785715785 0.30676885969598133 0.24261623627747247 -0.8681761769412919
Ni 1.247807089374699 0.4696061242786776 5.612656958882182 0.1918238362159535 1.3826364360131027 0.9525806086303013
Ni 2.115529627304759 8.39261616879537 10.554057384806237 -0.257655389998782 1.4005050887634076 -1.1406326365086485
Ni 1.2085138883803124 4.7510939708603015 5.1817767452226 0.9401143578424906 1.0853027535880921 -0.34699299732335076
Ni 2.8105715704425487 0.49610655653224023 12.646082466283806 0.6315030456211318 -0.8764255614342776 0.9389288221748215
Ni 4.494256034282698 2.7694152098822573 11.171603940288126 -1.779431444460245 1.926736115217901 1.2326974129563932
Ni 1.7331833299194181 6.3000098927666475 2.3850259255898254 -1.3829359695313923 -0.0030932942133430597 -0.25550491931468255
Ni 5.3378038451088745 7.122905367708065 11.802784930623197 -0.4680880995651745 0.7427713915805207 0.4308855223729483
Ni 8.530721712936764 5.5366706377801576 3.5080291324006128 0.17874797686860183 0.13813894509798788 -0.4022532033482363
Ni 2.695268874719696 3.1677976567651887 5.92846528613827 1.006037442897861 -0.3348139387586556 -0.36642436657508504
P 1.5295798480034706 1.8559942806093515 0.30479158524574745 0.1409427330953702 0.3451009225069605 0.9140348871466194
Ni 4.95704262377214 6.342056120582297 5.36092556262725 -0.3157831473794497 1.493036006214293 -0.9878006081748602
P 3.0867548503736053 4.8657663439439425 10.16208661688717 -1.259295475159896 0.023149698643585938 0.4722502013626641
Ni 2.8004864082151624 6.3351225715509685 4.479777152481982 -1.4162119579757029 -0.7350958773131341 -0.12680706502493644
P 4.323800107628823 8.280631936378954 3.626657706990365 -0.7689570488369531 -0.2550405780837543 0.7899184815799687
P 1.5468210260760253 6.498487368513713 13.050209191689081 -0.6670297777728319 -0.14631505315087703 0.9882418094773365
P 1.052536843527153 0.7637990197350923 7.831489978138331 -2.929196639397781 -0.9921727691006267 -0.17933547394095567
Ni 1.7284559101253305 3.136698650080554 12.141614865331432 0.5504898990018584 0.5714559597305642 -1.0510569450313447
Ni 0.8954826885169878 1.1402165765316123 11.568961185937281 -2.0970359613191496 -2.376422058126804 -0.09892627945426834
Ni 7.592606967327683 5.912333661299739 12.3456864545015 0.14227739274639367 -1.3759443687049078 0.29255065921407036
Ni 7.005035034175483 1.7003694748781044 2.900075531320492 0.8104153159817399 2.061631870788243 0.8271621964227754
Ni 3.6139455824695577 5.258744701140692 7.235760001533627 -0.0419604035921858 0.6596859358132509 -1.7635785365883887
Ni 8.67105192521655 4.076695094156693 9.175876400016122 -0.04313359796468056 1.316918782100319 0.2321922127306711
Ni 3.475682457668362 1.4599570047223107 4.306868529205528 -0.39844977044174607 -0.8110750610529257 -0.3992470695320608
Ni 1.240354451111079 4.430704681129239 0.6180943800109678 -1.128950829295346 0.3502102187090678 0.06305270548611078
Ni 6.531690540479246 2.847334211429512 12.329338851464536 0.20678842794558577 -0.4340364092971041 1.5534291625903698
Ni 0.26939248043860825 7.258155921071853 4.948075357284296 2.564644035924112 -0.5298395697413585 -0.5801457741950783
Ni 5.591443821237536 2.634211003771353 4.634845791178631 0.11028207078671975 1.421420498759836 1.2872276827937896
Ni 4.510662961803354 0.7943576174511089 6.546106390016039 0.4888939805669322 0.43461413617744504 -0.472689860003244
Ni 6.201623944346167 2.4916375844520187 9.827542876125575 2.657123274201456 -1.2654717791739367 -0.7430714393194429
Ni 0.18189999033579723 7.994335685868782 7.347875860148231 -0.29403007197307424 3.5116121834636425 -1.7621310055085846
Ni 3.4044467299868657 3.5726223717988868 -0.0681712473208579 0.4651621841676311 -1.9503401277900865 0.13218118485265626
Ni 6.26886453882913 7.153401860105219 3.4606548243935094 0.8510045502580118 0.23500037160342754 -0.5926246233883794
Ni 7.767614194214688 2.0223253017566205 5.636535063567613 -0.3556609574109939 -1.0747167505421298 -0.1880402008038052
Ni 7.8926590824935925 4.221585876120189 0.8199190543612577 -0.21437009694758566 -0.6077671354567726 -1.601828379829364
Ni 5.628289887279689 6.658923019094237 0.7775215143687535 0.26909011419828494 -0.5332660789244043 -0.13220046812636588
Ni 0.22156396935324948 7.6594582448864275 11.673968302904656 0.06536027057336485 -0.22152007772880558 1.5627177869811475
Ni 1.4310455883737634 4.489352494927654 7.929889830734677 1.6688917491367647 0.4132639526364431 1.2516752396104764
Ni 4.417301055595414 3.03434537681327 2.6041835455733784 -0.34848732248069014 -0.4748966378465757 0.6668875957680127
Ni 8.174014715846416 6.496512975540888 1.0025466965673213 0.5774240043885411 1.124093758313361 1.1642965557844915
Ni 0.6676164197166791 2.690189215803696 4.347636499786659 -0.43798022443620055 -1.2364296263053158 0.7111275394229947
Ni 6.363533437568377 4.659539607514806 10.328577999529415 0.9649003065379187 1.506555895077599 0.4013954833336313
P 7.827559731093833 6.091317482484124 9.123604114324323 -0.7729885385938494 0.16050882815275583 -0.024476644985125588
Ni 0.7445028044696961 0.8374559279072071 2.9155684910142914 -1.1169532906138375 1.9417215328831399 -1.4201102645888446
P 4.332874899743356 8.518393343669828 10.046470613734826 0.0825465525446643 0.2993432566558715 -0.06903360565989401
Ni 4.825833550859768 7.653627760473718 7.1622551123509695 0.8715702902245055 0.8826951964930734 0.9115375746460623
P 7.089257262114854 9.248065954161955 6.377050150399238 -0.1675117418331502 -0.4814627210998676 0.9136291670677684
P 6.479475725381019 5.0007573526915845 4.81565013245627 0.6930961358425806 -0.25827759696381325 -0.5599456450981195
P 6.901495271234388 1.6977276814637616 0.865719409660447 -0.9959384067906459 0.4774361164389777 -1.2212632029775226
Ni 8.449428631379611 -0.02055871443393489 4.499272660934777 -0.9694244196605175 0.12936377000851912 -0.37833037398405167
