# total energy = -340876.76595245337 ev
CRYSTAL
PRIMVEC
9.18613070707833 0.00000000000000 0.00000000000000

0.00000000000000 9.18613070707833 0.00000000000000

0.00000000000000 0.00000000000000 13.44483083812691

PRIMCOORD
 96 1
Ni 3.8770798947762275 5.049698647762974 0.005853402397185724 0.16846690665756794 -0.6471320104076403 -1.0432528756058936
Ni 2.910239652617098 4.463099908156746 2.0726546978246994 -1.2365604954562253 0.1484218150812347 1.3923158680843957
Ni 8.735018066956572 3.4252233183242997 0.5708188045185234 -2.009502497082855 -0.035729335080809436 -1.0326295915640926
Ni 6.307592250801628 0.8145635929788593 6.570824496646442 -0.6943212664989332 1.111253669125899 1.2994962157484975
Ni 7.755381544917845 8.308928586744608 4.094918876425039 -0.0531272188422827 -0.13277742367575843 -0.8888393617175983
Ni 3.6886631707199244 4.541485160283528 9.166847041546692 0.030368070768896086 -1.00119734119674 0.24318419296580054
Ni 8.70288498223379 0.9057249154979926 6.018014182491138 -0.6576853604434544 -0.813740780810547 -0.9779687096861028
Ni -0.22371534937241408 4.013806262132964 11.080880229808608 -0.172386039206316 1.612151873242559 -0.4797012583240706
Ni 4.397694658520898 6.930430275494011 9.264711483540442 -0.3992190445076028 -0.4123671518537866 -0.5768308508892325
Ni 1.5085831062075148 5.450416035349346 12.046151480866923 1.504596457358383 -0.3415042062946377 1.8697758957827733
Ni 1.4808593641568137 0.7407420105176793 9.750836920071938 -0.18575217610057687 2.025789921388969 0.9760462958524093
Ni 8.440097345108413 5.8416808945824465 13.293737326796535 0.8717099011261633 -2.335063806894991 -0.5535898780834207
Ni 2.545421663285909 2.975130478941203 10.846953577698104 -0.6438078311304137 -0.1511520695282042 0.2319083629416651
Ni 1.4064608926960367 0.16544037428254152 7.229581210468197 1.1509543301496308 -0.48348463662590285 -0.3811269628925823
Ni 8.981610555892626 9.341927341246068 11.255582060928631 -1.6798253653301325 0.6644833572018943 0.41775926940363534
Ni 2.932938581247741 2.1924262239942327 8.408316089186341 -1.0582562909932614 0.3826500844053281 0.08715268385810797
Ni 0.0681059720224968 4.69606017933162 6.64135652575164 0.3531793286397208 -0.9353580741044277 0.516612015307491
Ni 5.925632941832729 6.325615438973753 4.482425689643248 0.28396394598632385 -0.01573823667086322 -0.8173763206806053
Ni 1.7423333846111368 5.0477144435605386 4.791724543054615 -0.38996230179602515 -0.2702882482714442 0.48994324776705306
Ni 7.75179895399678 1.5225735830608007 3.805760614281453 -0.7828631173950841 1.2307549445180417 0.7220935515161951
Ni 0.637342006244355 2.88671397223544 9.056491299208162 0.9375460828946822 1.7687371979711926 0.699575315809021
Ni 3.5777773886476885 0.277766541627657 4.278427450919484 0.2800738669032983 0.021889343873923592 2.163119483211785
Ni 3.4713652521614997 8.6442499108257 2.290084896663287 -0.5703005059698824 -1.7349405611367215 -1.668730540968552
Ni 7.530082506635708 7.958450147228246 6.435744283887283 0.7548663750718418 -0.636990036877632 0.5138604207042827
P 3.301431022805664 8.746353752076043 10.482517731398495 1.8036849176909708 1.0297527842369298 1.7587870287370162
P 7.06769862455419 4.197234917291477 12.142295360605507 -0.3775294753493111 1.038405060595289 0.49509933804669576
P 7.299584118452745 2.4701505094212823 1.9338237879551021 -0.6598707981305474 0.45093421349370727 -0.3272353550804493
P 3.6326553326539464 0.05394555175372437 6.717211917520316 -0.7558346525223821 0.6147152846398316 -0.08411338281115192
P 4.313209815697738 2.4462941283392183 13.379138945450263 -1.6707329161105615 0.17634759495722532 0.1536619804342515
P 6.301869291458491 7.8549959447845765 8.314283182252016 0.23004431314973284 -0.21668820355780102 0.18949133142803493
P 0.01451224906948212 3.6262801580405646 4.495157666608878 -0.2724338338595373 -0.6789422129397017 0.23179446307162016
P 5.820056743228122 9.416978027977091 4.637189024367959 0.7859710668964465 -0.6601448777275405 -1.0337125402156262
Ni 8.77733857047797 7.996085724160559 9.048492016710563 -0.1594482480987254 -0.4611772313779541 0.6298955919246958
Ni 4.937333898669478 3.737808969252479 11.244167375086286 0.8578295435996453 1.1601462810615437 0.412098214463116
Ni 7.527795160124567 2.845504990512629 8.488245529861407 -1.3244891382484092 1.186867241996156 -0.32939225352245205
Ni 4.194120819029321 4.551534787123643 4.568445534884125 -1.134659449644349 0.5050662194514205 -0.34263112081022923
Ni 4.587544418945627 9.929012945772337 8.85741407062905 -0.6609149231243456 -4.189049529723044 -1.1009669424879103
Ni 1.4070671773134478 7.651633386296037 3.195648136263303 0.16742406721535036 -1.0131884521203454 0.7290190749914348
Ni 8.392632608469588 6.040386084873601 4.870981558972189 0.389510044749955 0.40564500263860453 0.021965705637813786
Ni 7.387743413502638 2.9741843074928194 6.049823915417965 1.9100542836868457 0.11500647284558257 0.04386147726964059
Ni 5.143672763461671 7.811508802681192 6.086878010285398 -0.6002841968161662 0.5957960791378255 0.7960845011813644
Ni 2.8169544967109132 0.7618618433038841 12.688773674961094 -0.3462293796844489 0.19134741080016726 -0.23555830098942657
Ni 0.2968222508754945 0.45140921189332334 2.7639881864756135 0.8236179307149429 0.2631385246005404 -1.1719268186362397
Ni 7.162527050395603 5.758280015166172 7.311621623947523 1.1659040094809276 0.10591968005296597 0.44009598522762267
Ni 0.1043755713395219 1.1444632627994047 13.609933127037479 1.2234344995972284 -0.42165860445804154 -0.10531855613385734
Ni 3.6174431004352714 7.479329135253958 12.335470500295429 1.8502131431594975 -0.44785994544375773 0.16370162405844066
Ni 4.615157927429525 6.21599734291974 2.1097896306411204 -0.6983257596726361 -0.982697996840972 1.1201304027902388
Ni 5.534753900083436 8.292338434940909 10.673864831105618 0.25885892338858 0.32761150747294543 0.736769408360815
Ni 3.356685598165162 2.1353436086519353 5.92439740727149 -0.09513235962947487 -0.43517669354913435 0.5077087992805901
Ni 2.5469741193517033 7.390012387752646 5.570758020227078 -0.10317297054576423 0.9583380799393688 1.5297403036138622
Ni 4.841963491124622 3.0549028367835778 7.342141624142767 2.0531066069260513 0.829022903780598 -0.13193255917695987
Ni 5.776863557302875 8.199310490690596 2.643926378580168 1.0830712931544122 0.03570979469678366 0.3573717694545136
Ni 8.967454728689138 7.618195871032767 1.1274661654115943 0.6546005508705436 1.060039351035613 1.1829848762226145
Ni 5.5471368040875255 2.7283818257855135 4.666848284129093 0.4189630599037494 -1.139157851735335 0.7194134335808706
Ni 3.157227145167526 1.683992269381183 1.863964183607397 -0.9784723887953988 0.7230983386316256 -1.5980632563599768
Ni 6.405222446465924 4.959665382077449 0.6861424062675965 0.3945470929532302 0.40640990582908715 0.13180271846731495
P 6.764418523890213 0.3562427364470511 11.955909690017531 0.15155033340788737 2.3158730928991536 0.009211748406255103
P 1.677176160500593 8.954263445195165 0.8946905354611133 0.4443146512946606 -0.8511958403332114 0.7326697843701446
P 5.429949336446443 2.449270434642872 9.281665406114588 1.5888558788290958 3.3325482180165187 1.5795076048449765
P 8.782822690426368 5.009711421405552 8.840755941459156 -2.056121739603291 -0.7885128594816936 -1.29511479885135
P 8.894976158516828 1.2080037279301856 8.230737161972787 0.0027099427319953327 -1.426107876933176 -0.3096796055848731
P 3.7157898142837813 5.475328821446595 11.129671443701284 -1.0081727440733088 0.6767745158644215 0.7480817480498406
P 3.1822042341787435 6.379207324700655 3.8931519488159583 1.250250591348808 -0.010691932496207392 -2.3061864617390087
P 1.0550730262535568 4.863854040265385 0.8091998113408857 1.5112062493654168 1.262816858049593 0.034945662837249494
Ni 7.111837981927821 2.459173083393918 10.885002530505925 0.25336473304322815 -0.6013694594605449 -0.21200725314236388
Ni 0.9664911691975901 2.922190808484547 2.344966515121772 0.13308184229005468 -0.9198196121491966 0.7579902654128042
Ni 4.8554028001438985 5.53500192560874 7.183532975162779 -1.8352565218496653 0.8339877039850412 0.05914540001190458
Ni 6.093316569199692 5.14599685449508 9.40043748127845 0.918102886568406 -0.4748169336485758 0.44249688135963144
Ni 5.097833971933177 3.6582570785437087 1.9981845745455011 -0.2219679638995016 -1.3231472795085342 0.15585050344513804
Ni 5.706617216858306 6.131016449045972 12.018925627092946 0.13524773959312192 -0.9751705781156753 -0.21009563794194785
Ni 2.5362355327190764 4.170788047389566 7.050173324658786 0.26336658145094644 0.8309442891730271 -0.3590159899261559
Ni 7.480495773835946 7.670667048830514 12.42005179748954 -0.6156866474141655 0.7095560811708167 0.4084924993897287
Ni 1.4179619281657112 5.373877195466497 9.7449210519869 0.7786465082105751 0.8255416301002169 -0.4656362955905723
Ni 6.4546622011766175 2.3044970169095906 13.22491391797677 0.11518850694940162 -0.1977599991947304 0.5936211829736938
Ni 7.107327591819506 4.339270868115842 3.346229944353993 0.19704677517778968 -0.34465457899816127 -0.023592442607959365
Ni 0.6138741984852678 6.9870443981773995 7.1662024212353925 0.4747683397988275 -0.7869087482193674 -0.6504579894570799
Ni 2.5187083955975593 6.796202535651453 0.98494243105413 -1.550982243711774 -0.027238009780346635 -0.23174509789092346
Ni 0.997218775943645 2.4771319686520754 6.726045300673382 0.019413628639921406 0.7973556545843041 -0.1731501710658502
Ni 1.6133968559750747 1.7871892601689803 4.495493878987624 -1.6677596924148506 0.09596308306088634 -1.04415764680835
Ni 2.0101090906343067 7.938938805904293 9.130653687113371 -0.012391688796133496 -3.1939932684270347 -1.8201057822511557
Ni 7.3824797606878425 0.40493933319488734 1.1794541527415268 -0.6148191572075475 -0.4978074810064782 0.5102223097310632
Ni 2.045622671405681 3.143604113536913 13.388658532556672 0.444123361219461 -0.5001644112744289 -0.4367869754590477
Ni 4.984008628079554 0.10834673558356363 0.5596438766839716 -0.016384869115926622 0.31390829895424005 -0.8501226618736908
Ni 4.815746274486882 1.5125423284818196 11.273786215872923 -0.4937412813569045 -2.1947291396972655 0.26292872258257943
Ni 1.529196783199487 7.899116929897073 11.67651261021426 1.0293586341223047 1.3722682054049011 0.4472752765848813
Ni 7.2444030321377815 0.4797144360089046 9.496877154421286 -1.3461038883047076 0.11649848401007677 -0.7254948638882602
Ni 0.2404267580995959 5.133604764360423 2.8458274236955248 0.3716958993866695 0.7452980146571164 -0.6908325366193844
Ni 5.324841630500744 1.3898707408923372 2.83357863719771 0.9621212011308848 -1.077616697797744 -1.37746106245975
P 0.5600443919766855 2.2059390220580437 11.713876277681797 1.3212747450761697 -1.0662130839464927 -0.1595981434130284
P 0.4764248826529219 8.252975865462032 5.155164612800779 -0.1343311413161235 -0.21512908660079724 0.8313551514582005
P 7.679026427646332 6.4591909635460665 2.6356037442866174 -0.6560473106193991 0.6629856896104452 0.7381742591281415
P 5.806121383158237 7.141261158133386 0.6204900497195007 -0.26908034400627207 0.5268928284082087 -1.4244420591949791
P 3.5707408126334945 2.5106429729598805 3.738348195116752 -0.5600495176658354 1.1415947433116016 0.09872830451084932
P 6.046834748531518 4.561639530747159 5.78876602667832 0.41052135689429947 0.19864471579252885 -0.6558940728709866
P 9.10651437320985 6.750639328039964 11.350233194450105 -1.449307712088407 -0.5458693695107115 -1.4433322112312628
P 2.7074650064848353 6.137832557926561 7.939871198156826 -0.3034660205749935 0.7072202339487885 -0.6392109557883507
