# total energy = -340869.5773769573 ev
CRYSTAL
PRIMVEC
9.29473442682904 0.00000000000000 0.00000000000000
0.00000000000000 9.29473442682904 0.00000000000000
0.00000000000000 0.00000000000000 13.60378335981617
PRIMCOORD
 96 1
Ni 3.9759805365041894 5.863294891978661 12.456848231227616 -0.10680516798171284 -0.5763788509534784 -0.5320712872853546
Ni 4.2030044177388675 6.099855170435317 4.01986376477331 0.5270188124631117 -0.3941999940264566 -0.010640510432981675
Ni 3.912274428746462 1.846268809536608 10.46544493660134 -0.7363150944322158 -0.8121340984450595 -0.3027764507071366
Ni 5.837864499386724 8.43856828915082 12.476233328738488 -0.8935390811861128 0.3480137252783813 -0.4573545151977543
Ni 8.640003767313274 6.208770865023157 10.872334006492585 -0.16518926434756068 0.12565778191184165 -0.6030288494408389
Ni 8.993835706344667 5.530329631079177 5.130067706625817 0.4884178122614621 -0.02677186877720551 -0.38911692307659435
Ni 6.2236610291065935 6.895772549104991 10.517710156112935 -0.30976445198919556 -0.7560377696721238 1.1660575043396562
Ni 2.6155753643792643 9.267416910858957 8.978156419333212 0.186254312547976 0.8992433306597416 -0.04413349998410464
Ni 1.9487153691668486 6.537562790296259 10.271196146871663 -0.23260770300153485 -0.6348758187481066 2.6125462589220296
Ni 5.683209418123107 7.136162258025052 8.183859112823178 -1.4445447434821252 -0.8962063436056307 -0.5178685134224114
Ni 9.170798149531036 2.7260432795675618 7.893961932009222 0.7989211992992112 -0.04781172016664024 0.13701665856808662
Ni 0.5227005277334551 7.201420586383237 8.509832874706706 -0.31922148363703734 -0.1029215166565905 -0.2739458996286895
Ni 5.990186602382585 2.8014514576005993 10.504215131623084 -0.3078602929879472 -0.013124967417732235 0.7372018679125434
Ni 5.834053658391587 1.5073084451203842 2.566272376636328 -0.2732108212348779 0.8938591835296928 0.0236394937958109
Ni 8.837637699214726 8.486250275260703 10.350247860685418 0.4487780863826528 1.6901383172203668 -1.6737349361616787
Ni 8.399865016214845 2.2253359517431135 12.732664819301249 -0.6969952137866705 1.3728181643711002 -2.8455573680095703
Ni 3.069520884773143 7.96133945975007 13.359091791555262 -0.3665938022734138 0.6591133511392325 -0.9678812435431138
Ni 5.218110216767854 9.126666751860522 6.892002604940045 0.4240019078792375 0.6658468132083242 0.5130543798632197
Ni 8.163425569301937 8.329076321046644 12.399522028979796 -0.23960496025497444 -0.14792867749490007 2.268546539899048
Ni 1.209765416007404 5.208304272255977 7.080224689056923 0.19396402248740788 -0.3863301043600766 0.06668490292205934
Ni 5.631976843573853 9.15937492127976 9.633845073589397 -0.21818587114925003 0.6945313256272103 -0.0956514653577385
Ni 2.6843285127720145 1.0566067869394395 0.8238889515739781 0.5437986030246119 1.983136862605133 -1.4833570883636324
Ni 0.7147399591593638 4.708991154551701 9.429462235232897 -0.8197221952049624 0.17426962938227408 -0.12520141110071342
Ni 4.06707822575623 3.062717139386703 12.699920400418888 -1.8423969895491883 1.0001005085881356 -0.133336381503022
P 6.9096774713701725 1.4257099741537824 4.601520791121773 0.25045013049959447 1.3516363880871625 -0.007518162753916084
P 1.9781517921707472 6.992372720964643 4.578612059900521 0.002248172604228386 -1.3592908193086266 -0.2758212622745314
P 3.468385810686091 3.9490815759190037 6.350286910114271 0.2345799962365573 -0.4098924650610489 0.35768827225366784
P 8.940781363905053 8.469714943235463 2.1489081413755233 -2.253513042604693 2.790243425928614 -1.4967252821404222
P 6.989686542799778 0.727505347019659 11.291004151899283 0.6817675982036387 -0.22218985010232056 -0.3946784763247719
P 3.712558476398886 0.7210027510191767 12.321571741160977 0.3998065415799566 -0.38137301746511737 0.4636611741420724
P 2.8828454444162426 3.2804369917527674 1.0868100255094328 -0.6256879816012514 0.5940068484478866 0.16154703960928307
P 5.353776156194726 7.225531126728079 5.864427920069655 0.2856364485927403 -0.5530406904481701 -0.35264351074090877
Ni 4.947001411533335 2.4903938850560854 5.381017162996061 0.5080450995740863 0.5441511012680241 0.915971699158016
Ni 5.610487418254936 4.38731899562561 7.862782746355108 -0.9175734964274972 -1.087649656553714 0.6148723790429862
Ni 0.9739208320791037 5.5447643531900255 12.535831164008773 0.5695983376965352 -0.9445518247885539 -0.600119646213844
Ni 1.0114343790458658 4.862902657084558 1.3094969837969632 2.047086883094533 0.6176118894613363 0.13028165383709822
Ni 1.3985693504811003 2.703810275517885 12.154761936069702 0.6781464565112837 1.1210847962837078 0.6022698597876271
Ni 1.5816198445255534 1.8189237017129671 2.962128597109945 0.87253959611631 -0.05196765131654275 0.3361288009153372
Ni 7.42405735310644 4.29719725345769 9.565459067194958 3.0341673252739167 0.43306864606719614 -0.8662234240902953
Ni 0.6608212064452442 7.602172343325485 6.170240474142081 -0.43751356921242723 0.07709735650463496 -0.11621746243454822
Ni 0.15209252306273977 8.998436599741234 4.156676674392378 -0.6458310322080297 0.12075648795548237 0.07844795699525844
Ni 7.036968855341879 2.7179475661364294 6.877541857573621 -0.31416309527752345 -0.2691469355781494 -0.6620958308063243
Ni 8.31114677890123 5.713798388159683 0.494082970806804 -1.4114289347647628 0.323727599037507 -1.8001964449217382
Ni 7.579930044541674 6.70507248886786 6.5928962015456465 -0.06812986289870201 0.015772946563540575 1.4023457415165719
Ni 0.3436783714628858 2.6715110744005663 0.9183699240509694 1.1593255849324615 -0.37569267925088845 0.29138517815105947
Ni 1.5412063405088332 0.7051542998464745 10.898058112683174 0.22224512882028818 -0.4384404519020707 0.2495319895606993
Ni 8.998185641919603 2.562428074598307 10.40410526815425 0.2988948562645433 -0.05973726795963261 0.4408673161760085
Ni 7.695909737071718 3.67644843428643 4.44409773803291 -0.10465572573887781 -1.0659228063995838 0.2502439280260594
Ni 5.783843504597125 6.127823025445967 1.9876761062383492 -0.5899252221793453 -0.704332370878032 -0.2468806679807813
Ni 8.380531969215125 1.672568818031442 2.7332996785063504 -0.3177042756615625 0.5626262772540762 2.021392563652222
Ni 4.07342652917008 7.877408010515713 2.609232637805895 1.2236640991095311 0.2495348177741767 -0.10917803908926359
Ni 5.011915834728544 3.812337447332531 1.4555507180925311 0.660711548864288 -0.42812158647456594 -0.23759512891379728
Ni 6.710007992693269 8.684255996527535 3.206942599478019 0.3597302423843611 1.5633132544733013 -0.7605621399050384
Ni 5.940803679926092 1.8529238391768956 12.790290311988198 0.22435883272918136 -1.1726135602906194 0.8457214474822015
Ni 3.813155383936365 7.946207632579135 10.896929731959247 0.04379411436681489 0.7453473798378131 -0.0557901103864265
Ni 3.2432766446831156 6.122385605977297 6.131946169508024 1.0060119889765642 0.17156637151849807 1.9066941089653617
P 7.651322897428616 7.369999179380304 8.906600908598916 0.03138031408349434 -0.27453391092167556 -0.24307414975049751
P 7.009800347466793 2.788578250824344 1.176724495106154 -0.16551939399346977 0.6350108016640741 -0.7866146140177163
P 0.3649066147526252 0.7397901971252013 9.000085485576692 0.8452488787211572 1.0660179372165512 -0.0714445290942318
P 5.149905457689037 1.594158440872967 8.14121115472053 1.2813773946605995 0.8350066321678586 1.193361848581564
P 1.113295370425634 7.762051065172679 12.010439810743387 -0.3318900802436413 0.24086762901748193 -0.4463062278033927
P 0.48002282648157585 3.6723494565331247 3.017033521115733 -0.7990003892765788 0.2620522335148971 1.8939234395632547
P 8.420508620727524 4.775439208879099 7.452805036310975 -0.40318805645767986 -0.45903473111365456 -0.40619881825954557
P 5.493615431247981 4.868525971235918 9.878495488636702 -2.1786797995438865 1.1820857614471127 1.0280255171331778
Ni 2.9889634240296026 8.483824349651604 6.689538199708903 -0.5504629024186649 -0.11723021996977875 -0.058552760733228196
Ni 6.837726934435161 6.7840312553402695 4.227633604248414 -0.14846809493813787 -1.821124196213341 0.3922269294604858
Ni 2.022952410698942 4.631101282504757 4.632210144287001 -1.1998896223977529 0.6540120253569253 -0.5311750007233303
Ni 2.4923922528949984 9.037994988217582 4.36748124456239 0.5444141251214237 1.213692075498484 1.3572853588428238
Ni 8.162923653658675 9.146343704023218 7.598284356037032 0.6924628731339558 -0.6768035693301442 -0.11101869184242816
Ni 1.9584097768691113 8.744736831540598 2.212845688013199 -1.5150310224281456 -0.6152001946960501 -1.0849610539779573
Ni 7.806768031093664 0.8999691388849389 0.6843424606459597 -0.5216251522513662 -3.864339769277926 0.5971477080697134
Ni 0.5827519460295048 6.834994282599624 2.825437448508039 1.3724492110674558 -2.4919283534269407 2.3705540293818013
Ni 3.7420134888710535 3.4802923651123607 3.5501385742393254 0.7979863461897675 -0.39700738156826465 -1.3089979845913455
Ni 4.880097915233347 0.30542031629195193 4.54622084091527 0.11140152910314363 -1.0557715768981946 0.038144886500837534
Ni 4.825621478471159 9.277836307823708 0.8118615656039608 0.7014511926754952 0.7511598727545322 0.5246855363442449
Ni 2.3759850025947684 2.348639894771128 5.20997639492677 -0.18970036211504748 -0.6494172068973912 -0.20454668309926063
Ni 7.372750420684111 1.484657178034656 9.129199566912169 -0.375201855657399 -0.0647123525767208 -0.27216309669665384
Ni 5.931230103767578 4.923346313161083 5.779185913322337 -0.21928038976500946 0.4536225589591478 -1.4906039997340328
Ni 6.715910148868664 4.300580536682641 12.976444317760155 -1.0615424179437007 -0.7845330488983391 0.6009704242499133
Ni 3.25285022084163 1.5841944858808044 7.193599067609072 -0.17969080039784538 0.26652672434648295 0.7525580386536395
Ni 0.831786687168046 0.4758941055790397 13.145226465434767 -0.6716418226235465 -0.6280906775054732 0.4799833083408636
Ni -0.006123370847795552 1.95977610278688 5.368229467773842 -0.8791743278240084 -0.13430645872577515 -0.21996481742654375
Ni 7.01083206295572 7.802585400733147 1.223634088809462 0.8008284436242531 0.46966135758956534 -2.5856118964250308
Ni 3.2024448776303442 5.01897983267075 8.791852768341691 0.5808294305256643 -0.38190857825361324 -0.35952403991082604
Ni 1.9297076378618365 2.748090388934549 9.38270600464281 0.4832406389358968 -0.7984481163175345 -0.20563245996427165
Ni 8.20189647388455 5.236523085088259 2.6836044529829386 -0.9914690581653828 -0.6030674159882582 0.6848364669369497
Ni 7.28988786587522 8.8374146255955 5.414482853247256 0.2496852273091119 -0.25677093051129973 0.9220001647402831
Ni 0.707369234990721 7.294814074966494 0.5820557704428322 -0.188161813983334 1.2326501046582254 -1.5464643012367625
P 6.013469911389458 6.371819091210207 13.059087516843471 0.5324019311518959 0.24682076127712332 0.9949323341236349
P 2.6848118389470077 4.16433832373943 10.981939370353201 0.09036964813350888 0.41605308534580604 0.17695308975170812
P 8.498872524215328 4.28066192143245 11.800887241261291 0.8205763156751417 -0.24579334845387346 -0.35852130967792445
P 1.0981263643181625 0.42639871683951924 6.371494704988915 0.6887579134785429 0.7769153844520813 -0.14142918581348546
P 2.619088773882098 6.678982170152374 1.4017472200816792 0.3991565667007836 -0.7905522585092256 0.541455556713732
P 2.8327468274313943 7.231479756574147 8.543610868024821 0.9952750621750344 -0.7311746878818569 -1.3549315138986664
P 5.96577863054544 4.665640514548485 3.563851095507924 -0.8945176430492983 -0.2975314002581134 -0.5829061105490349
P 3.718451337840147 0.9077497608289122 2.8160107291488496 -0.2704386578063794 -0.03246249140407958 -0.3342979183541856
