# total energy = -340863.4515192005 ev
CRYSTAL
PRIMVEC
9.31966072614581 0.00000000000000 0.00000000000000
0.00000000000000 9.31966072614581 0.00000000000000
0.00000000000000 0.00000000000000 13.64026551846040
PRIMCOORD
 96 1
Ni 5.375198068994384 3.2351151092464656 1.9355266634498958 -1.4152295394577756 2.472799345906974 -1.8811273162398505
Ni 3.950734560223048 2.0582656602385874 13.226747359950584 1.1364453379001784 0.43621104835091973 1.4422500339106774
Ni 3.239961332705271 4.544313056982216 12.909078344191947 0.46865605625350254 -0.175393201463756 -0.9337812165356112
Ni 0.3095441357367399 3.0852736077644054 7.55876656462458 0.3508018295464797 1.1567940767598592 0.22176664652197292
Ni 8.776762314729815 1.7427392344283723 4.018408342961065 -1.0172705926095191 0.3061957608013307 -0.30439058927179186
Ni 8.654441770697469 1.2275018038128909 11.306088350892676 1.828317885748303 1.4878902003472956 1.1104838808394102
Ni 8.885569351040491 4.401041916151036 9.931258558033953 -0.32346971739043 -1.2907896891134352 -1.801083732622698
Ni 1.8922918264350042 6.880938336966182 11.7907274721621 -0.11595598124304547 1.0469182402726227 0.962097289871485
Ni 1.6358613678407203 2.913353830563288 13.496428511840502 -0.5372631158989392 0.5304790030975703 1.9855472718188383
Ni 2.3845283349421558 3.851741126416452 2.1105442958004494 1.7317097129042498 -0.14482484175859575 -0.6767071529615959
Ni 4.943697787950758 2.6266065163699777 11.145570246344446 -1.521717947530018 0.510927563328204 2.145397126231357
Ni 7.827154147637416 2.4641555142345255 1.3645446155334566 0.49726652090134366 0.06453211824511466 -1.3063371499297307
Ni 4.512029753018175 7.725141143829565 1.910509898775913 -0.37480847687372226 0.5630906184850044 -0.006674583806698183
Ni 6.864451857545745 3.140250285040352 10.54516603023676 2.903594879669277 0.2716203368193064 0.45936408942861534
Ni 2.4551434025332473 0.2338601048009478 1.9118193110758401 2.3323631201343766 -5.136406170950245 -1.299307496776459
Ni 2.2608937187796347 9.147666163217378 5.3717824134219745 1.0711706850620843 -0.5752635064021124 -1.1054267780314768
Ni 6.322522919264844 7.983118666066468 5.895390763096493 0.5819072369708752 0.9113437134677014 -0.5496357785316791
Ni 1.774640432312008 6.726194694062329 4.991095717309974 -0.39744369777473487 -0.23837005940660883 -0.3122676780270235
Ni 2.4654602667042043 2.3175386152846706 11.452066853098437 0.7973047467417107 -0.2533739890146088 0.9427456248177506
Ni 4.180892895874308 0.31477805707224954 7.9182827199500005 -1.2509653580276454 -0.9533761079484032 -0.13677086110586767
Ni 7.7654020771796395 8.737330831164035 10.300091577958927 -1.1000590859616604 -1.7889460688188996 -0.13767331831547902
Ni 3.1769977063827928 9.213621400559619 13.102224580142634 -1.3503400378732424 0.3494100914052756 2.420715737837857
Ni 2.119859296467903 4.376736241573028 5.8683833189402 0.2611266363768342 0.6665654365419036 0.5354080649680714
Ni 7.501161743088281 4.085282498828379 2.9835215544504896 2.192321044476405 -1.1433762606920566 -1.1697231261167016
P 6.14447080545624 2.6860100323823333 13.114542375422447 0.4265367584859493 -0.3639550790989861 0.7215405072262024
P 4.265329019983493 4.863558027331015 5.544413280719067 0.314110130552401 0.4162484891860638 0.5167806796748713
P 7.893789720195989 6.606064270246945 9.638143119822562 -0.3610744151170814 -1.1237188914724454 0.24026162000236687
P 8.605904978825436 0.6725393203259528 7.331983810005588 -0.19763658624298866 0.5765899385230199 -1.5881930484341165
P 6.412616077296134 1.8168212157246095 2.8883538412782004 2.9233491794780684 0.17541608428189145 3.8389228718667177
P 8.781412825318169 8.336240602324414 12.376876335572499 0.49858369705087036 0.7140128313905896 -0.6131389412916473
P 6.113529532603866 8.297098028234064 0.5885887505286986 0.03635025649425998 -0.5087886626083302 0.26349822193280426
P 3.9454503127208502 1.264705888519719 5.776720730081098 0.8617031676224385 0.33066032160159825 -0.028300132496273844
Ni 5.937359990215796 1.8203906456952295 7.371840270090062 -0.4201704499482893 0.35674159206968237 -0.09214370931479615
Ni 0.7187163741599689 7.152261613035793 9.584305305059436 -0.11070578858769967 -1.801957136366587 1.1287600534407787
Ni 6.985747238923343 7.010435019581758 12.49442800932817 1.1307943102619882 0.22337924242473145 0.9895731266942505
Ni 5.311908254554486 4.1530643896281685 9.08644904127217 -2.061050030142844 -0.21960871963870562 -0.8084129408397303
Ni 7.863146676479544 2.6713874850614383 6.097866911171428 -0.20946700321901346 0.31889186821176047 0.21716128653947764
Ni 7.970565083376061 5.012775111559729 0.15523478901208085 0.7693270305818621 -0.14640195643772852 -0.012694821858849107
Ni 8.080471839625467 6.951860953353697 3.3265875770314155 0.7458898826048445 -1.1781748564284806 0.9953365115405891
Ni 1.1321989555633853 1.725246231674185 2.2877585721303118 -3.841781681471751 2.83860201973766 -0.20159737066294958
Ni 0.7165998792609408 7.980425284182631 6.804623365014695 -0.5522354209380554 1.136892452739926 0.7575526636547534
Ni 8.683137005369895 5.539960346933265 7.697187754132756 -0.4350805342909023 -1.1484066240271127 -0.6410490374383541
Ni 1.1227767788002083 2.4090670010326063 9.763933373458203 -2.093301691087698 -0.7099065225317 -0.8622127602690054
Ni 3.9023468829189767 0.31370070431871516 11.175687661208823 1.1524357997911636 0.5808659401905544 -2.555968105416669
Ni 5.60382798032402 7.673724576863741 8.497707448311308 -0.8337910145932028 -0.13049042741379463 0.4318116337316434
Ni 6.034526770564843 5.51531916457734 6.7781611209975186 0.8493215061286341 0.01775552421120813 0.4772013747203523
Ni 3.9905667891902286 5.799689965343736 3.079985632398009 -0.313300490166912 -0.9438907941657874 1.196584212173604
Ni 0.3270725532008186 9.148234662507738 8.957016664314027 0.21299044299123962 2.521858822437786 -0.17460387279324124
Ni 7.6896425569938165 0.3480781359965903 0.29641552999362636 0.19055808212965247 1.0896569167917298 -1.2352775149787436
Ni 0.8260751352293024 4.793185270912864 3.477899720940013 -0.5725041984894205 1.5339574270190033 -0.2331535482026759
Ni 0.9431496423674907 0.7941534340925719 13.504599058198838 -1.0937825089243292 -1.4864012745065949 0.10509641282072224
Ni 7.59247577664477 1.594370239304949 9.077092102132475 0.40847424455728365 -0.2888356722563284 -0.39242901816896286
Ni 5.400547545548133 7.6707702444859684 11.019984093273706 0.03329655726960072 0.5636904568525325 -2.2078744188299715
Ni 7.698775824281565 7.576557796514695 7.6338839602021125 0.8897104514686418 1.8344119144611828 1.4842569744700824
Ni 1.867613365437088 1.3284150876820133 7.067471341827697 -0.5383560918528019 -0.26829898575555733 1.297651706340591
Ni 9.027936484803394 5.8440049510103105 11.54016933164742 -0.34367293181118236 1.4274785320284578 1.9299512797210892
P 2.9366343424865486 7.790732914412395 7.171191707438727 0.32853941860385355 -0.3175165851307886 0.4138969582347517
P 2.191825714831162 4.011107320927165 8.946677432957877 0.7150047629902138 0.5773116471803929 -2.839726620260406
P 3.2632791232705225 1.8703626652839103 2.7914526712533387 0.5724170380922529 1.2082392799140287 -0.3077708185979344
P 4.144760572124715 5.058571923245439 1.0100564170465467 1.2665135901748898 0.6931794395850062 1.7852074277120737
P 0.12441187584802946 4.103111009360483 1.5388399741954386 -0.8604893498199955 -1.3345740332882372 0.8966431740327332
P 2.131341118201073 7.5102856907155315 0.12148643441780065 0.24117050496988143 -0.23896012758212393 1.437100628499254
P 7.0106214127917115 3.8225519497376483 8.0069173511134 2.165796258712999 -0.6959395188286466 -0.6366213406843036
P 5.8916190964930735 7.190649294625831 3.9198846200435535 -0.5349190411467949 0.9112781503370887 -1.9090962906489506
Ni 1.8127485240871133 2.29462157012082 4.65479483628433 0.7232299791134835 -0.7875744068278243 -0.45918076977321565
Ni 4.228171533579153 3.15165754948954 4.1597214231216775 0.298084444548106 0.27207516496853784 1.030156961653884
Ni 3.2948261740552454 7.103901894713215 9.929553992128923 0.27195612289217036 -0.13658985544331317 -0.6712831537325472
Ni 4.571815375110936 7.5073033993562674 13.05644827171002 -0.6208473656794985 -1.9188168603708247 0.6464804928665705
Ni 5.055179566824275 0.8403332838247375 1.7642182559774273 -1.562893136216747 -0.7232402635261287 -3.247633936570626
Ni 5.790528739074494 4.908115324170531 12.88960025375175 -1.4259638951561442 -0.9008068184921196 1.847431209538986
Ni 4.722365170790822 0.030519092231826302 3.8690747629761293 -2.0991229257551653 -0.5832874051478535 1.903521624774651
Ni 6.4934827714346985 0.8386333777499564 11.866962295033305 -1.5370157542293528 -0.0994250734675578 -0.19454200647806497
Ni 3.8431856780795615 2.2614342590885017 9.343909322351449 -1.7650576922370762 -0.6262543956276827 -0.9232062692332423
Ni 1.3292352178058113 7.14598948152084 2.1664147285181263 -0.291506277109956 0.382584007054083 0.18482940717599136
Ni 4.2405107640781114 7.1354582651584355 5.482718060190327 -1.055490555322666 -0.8748258210473256 -0.3589594256566076
Ni 3.6454877199417983 2.964462848732688 7.117940099320905 0.5496979992281823 1.130738260213072 -0.5024262107254122
Ni 1.2353675972729519 5.350361173768006 0.2864509489894829 -0.16281742168127442 1.2993092965486719 -0.7850696381280995
Ni 9.09723748026431 8.727237638845024 4.67495512587296 -0.1990095553311153 0.4444488628796797 -0.2978756709714096
Ni 1.5911922350752323 9.19405943317494 11.290961609938853 -1.410571214750158 -0.09671898739030439 -0.3919726473578346
Ni 8.228104581569573 7.523156141862859 1.004614667281938 0.009475286480286907 -2.296759511998154 -0.8452931016955313
Ni 1.9872032489436062 4.866186171591367 10.901818253891237 -0.37048311002549095 -1.1619812773877536 -0.758008006024617
Ni 6.199904146096573 5.378627704057537 10.745637519338638 2.998745751241513 2.07796557495126 -1.167000584979216
Ni 6.33543996871466 5.8463441857952345 1.8006646522857925 -1.064070069461561 0.3046831808115463 -0.18581208280423483
Ni 6.467387722041131 1.0863741848961823 5.072583100837685 -0.10389570764440172 0.2495566721510476 -0.32217748094156773
Ni 6.854312066924246 8.990583285528603 2.985145039309189 1.7835012436542446 -0.2314303948639821 -0.6553893653204261
Ni 6.538925436021496 5.293651039639486 4.377897471271042 -1.4571709168865679 0.34945662837249497 2.3039897111980063
Ni 1.6426181217015547 6.082150235708101 7.775128074875042 0.6413071761957472 -1.6850246501428852 0.3829208215682115
Ni 3.9562052009351993 5.79849704880003 7.829580055264968 -0.24598283875686022 -0.07970728332365627 -0.4040568322158783
P 5.568730138889673 0.3347733886700702 9.731320153512543 1.2467104394060338 -0.03464638642927582 -0.28221096785095917
P 8.421068152174502 6.890779898451755 5.747707694985701 -0.03345210901085852 -0.8081015802468985 -1.1055134242080122
P 2.281536766782046 0.5941264927964334 9.374421890820926 1.260391793547868 -0.060826387258753306 -0.2848211517802966
P 8.99072308043607 9.203425691975132 1.95059841840678 1.8854524259777659 1.3366802809979625 2.3091285750864685
P 2.9300173835331793 7.939344220708759 3.582233320211792 -0.3736851619025564 -0.3155761735749662 -0.4970389782715698
P 0.4463381125220168 3.505702132136759 11.923582960421047 -1.2420297461009124 0.23535466961905271 -1.5894927410821464
P 4.200715813752922 5.2769874866695945 11.094896456320287 -0.9516431844176967 0.7691313696312883 -0.4444246945099637
P 9.561692080827811 3.72989588506949 5.110024836887205 -1.8038592384853065 -1.6463408604194418 1.3755358204125794
