# total energy = -340864.1200203155 ev
CRYSTAL
PRIMVEC
9.26135729607519 0.00000000000000 0.00000000000000
0.00000000000000 9.26135729607519 0.00000000000000
0.00000000000000 0.00000000000000 13.55493255514749
PRIMCOORD
 96 1
Ni 5.352953406473351 5.070398655374548 9.692725433533814 -1.5465188086237815 0.3423943222090749 -0.586675604893796
Ni 8.160848770370555 2.768228970408194 6.867688223335231 -0.24490708919417822 -0.7451105812366586 0.3156527924491725
Ni 5.218061736810168 6.434652159762119 4.8405752945648794 -1.4312598534477607 0.6144491754626386 -0.8840902770683872
Ni 7.256254953502595 8.048138051537672 2.1063688464824444 0.650874251058892 -0.0063418830576277875 1.0035969517771683
Ni 0.40735895034680486 5.672970348014146 2.8290362642981743 -0.7036759682409559 0.28269227836275185 -0.28863718309227715
Ni 1.3604285638059788 4.671465687936054 11.41664189796504 0.5091684145452522 -1.1839032742718256 -1.4321085746013014
Ni 4.478338603316324 2.478487406013226 0.4043953159978712 -2.0061078695790093 0.544546794044546 0.37427240186459415
Ni 8.152207923971945 6.501296887183765 7.684792775815468 0.6837118664142031 -0.18524181212306162 -0.05610018542767758
Ni 7.8653744257818685 3.2875873673441385 4.194072353381011 -0.5948224023706467 -0.4540961561614567 -0.6455710936784237
Ni 6.381399355054716 1.7003852077006918 7.704298120510121 -0.8819477768040876 -0.6847737320198142 0.429757322305776
Ni 3.0409944667981765 8.437531820915535 6.013469707449007 -0.8049890027598459 -0.7201181729573791 -1.373761502120976
Ni 6.653859226652466 4.901406667983946 5.942536971578748 0.520045209358756 0.18348934820832916 0.8530408639617503
Ni 8.79928969998959 4.549308384615945 5.778562787595184 1.6141941004835685 3.7451799363856018 -1.003926052981813
Ni 2.2355620029740693 6.178538583870208 9.604971294326154 -0.32215331257185165 1.082871004218148 2.47688328616836
Ni 0.8783888062732476 6.338371088851137 5.344832122221539 -1.0862144667690843 0.9119152697004552 -0.7458775413096703
Ni 2.1827722661336884 5.6543087129732035 13.15988774130145 -0.9660177079718137 1.0555455769303177 1.7169191848586367
Ni 7.921146319685864 6.3759999837252535 12.425359303139848 0.15261862677140167 -1.6433087584613377 -0.0615673791898359
Ni 5.4933092769673815 6.481088605466973 11.493010124458388 0.09380721306014812 0.540521732045553 1.5124835734159434
Ni 3.3210764354870888 8.829120531983076 1.476484484910221 0.389392031114852 0.14157059648735618 -0.22231274883343
Ni 7.8878146946177 8.45872180651041 13.265358857101328 0.11307017505481817 0.9037178214913274 1.0370248924183108
Ni 3.6225521396323663 5.334791884728792 7.951499492233348 2.358663191481486 -0.6986391771479968 -0.12469130423351428
Ni 8.703573571876372 2.9479085641696376 1.8299025116992311 0.4621905031338169 -0.25451118794284555 0.4368908480267637
Ni 7.067508490904882 5.194204480301251 1.7541705404551675 0.7402609664538412 -0.23682482640667601 -0.4448083031016275
Ni 1.1561508049483853 7.911264451403637 13.424167982096142 0.12699475555571033 -0.18329677258154883 -0.7459487608672378
P 6.327470471261465 4.126758955959387 13.445083831513742 -0.7052024321878113 -0.30977885016689877 0.1713812520908855
P 0.16197187852656533 1.016887774620524 10.235248337449612 0.3914836235365581 -1.4599924454957631 2.6262795493477222
P 3.319400129808473 4.2889438457047815 10.302738626796437 0.5999394118822376 0.01748401571737634 0.4929550380101833
P 2.910242623866159 6.308401336497544 1.6408244925087312 0.35514416567557544 0.771082322710072 0.028703281471963465
P 8.486857810110598 0.6115126070160367 1.6172385937698894 -0.33255676729336275 0.08263576982436091 -0.8921730540765216
P 2.8685850385489604 8.32370047784446 8.122332637463225 -0.3064374444984916 0.5709599939307521 1.986909185163372
P 5.820161100225404 8.597595859829973 12.82399683327918 -0.3839220091392162 -2.1633254285750034 -0.08531408798747243
P 6.196227776390406 4.703584075192623 3.697934957704696 -0.8715924017116925 -1.2188201407536685 0.6308312163650879
Ni 4.215584634211333 4.64675638655182 2.7971827518615417 1.746939642480127 0.25743941733323406 -0.5637012554858098
Ni 3.856392151120573 2.444053679421553 8.25610646129542 1.7779144935950866 0.7975281756064264 0.5929835493896949
Ni 1.3359415349979142 0.6420241487740429 1.3318711684468008 -0.08836290211612524 1.9899914236331213 -0.28545030072386324
Ni 2.024301180681801 1.2666202753048876 8.990892365191087 -0.8861291618752868 -1.197884676152582 -2.074360888319137
Ni 4.419621597778076 7.267785343391415 9.314421213435368 0.2719998316459122 0.6138218262912848 -0.46033133843789104
Ni 5.801295715322973 6.791177371938839 0.7108304769989422 0.03837088646871456 0.41350820743676525 -3.3533175893533858
Ni 2.4808027453483303 4.973145141942821 4.197217510333817 0.019071929029786508 -2.616968556359441 0.7956412429963587
Ni 6.269142442731514 1.1894361232298465 0.3214607871501647 2.3681945280106893 -1.185759353643958 0.755646447770976
Ni 1.7047287842933476 3.9036806417007455 9.008269449968912 0.4669179905164733 -1.4912984546978962 1.0754708550993348
Ni 8.867240278796235 2.6628810306609427 9.17311049699954 -0.2991763920607041 -0.5377400555353578 0.0708580604631425
Ni 7.336106376491677 1.0214814078613714 11.465372381883114 0.8824483705895899 1.358829306291176 -0.23185051312053614
Ni 4.914687454410104 2.5097167029651146 3.920561317725125 0.0706729410355299 -1.114864269295293 0.19243575876833957
Ni 8.766430404145787 5.5149901145013 10.297736567696878 1.0209246444223383 1.5008848128347507 0.022576085528303053
Ni 0.2431374881222521 3.9617400908678246 13.361178712416757 0.3471482919542925 0.08057914440564833 0.29994746589877375
Ni 2.466021619033024 7.100858638687726 3.791219979516053 0.9597444733685921 2.4607943510262973 -1.0048948446529853
Ni 5.95952600548401 3.004615855165016 9.867678956644443 1.5830379865957382 -3.404683345419872 -0.6257931397205481
Ni 0.2210630429013665 0.8766504495004511 12.656023595196023 0.011014348832632644 0.8200566957262457 -0.5196968248804017
Ni 3.0260281133360616 8.79395515816151 10.510603309351973 0.15807939277565677 0.48118658462034547 0.5007285113080151
Ni 9.458531638195204 8.424288079918737 6.843289177421902 0.6506737050123116 -1.0598604022555878 -1.5658213656071356
Ni 2.617055834540556 2.474755079005037 2.8148441603097183 1.0942764178416122 -3.1063669873666178 1.5357430581645164
Ni 3.539746343651691 7.470664637290605 12.780092442671195 1.1972017911529447 1.3701411317595693 0.11321749926595984
Ni 5.596990172393358 6.861128403931014 7.1940232628536585 -0.13541640396050228 -1.2456711995082417 1.1778663240491263
Ni 4.723375595829096 7.327233996159557 2.5083673232006154 -0.26465650390696355 -0.16080681900914887 1.7296697996560855
Ni 4.7023060078796455 0.9410650420745243 12.104392146335927 -1.7378111978162973 0.3004002371654762 -1.2673831372640367
P 4.8755489582894995 1.1322842870821288 2.166376885233947 -0.6535942210932162 -0.5476763408124632 0.4990236128017664
P 4.853154996240369 1.028390380437323 9.771913743337322 -0.33094545694218486 0.5722285762305306 -0.2612330800477114
P 3.209245545601545 5.998821944679402 5.88454883486319 0.7355846440240945 0.9657533985668336 0.15056894333122456
P 0.8431410063713517 3.799147701399451 3.563172020908544 -1.9298402080645218 -2.309607057384784 -0.3185766509641868
P 6.7538726245716365 6.633743558509078 9.588013749035849 0.5834370433518403 0.6359148015355822 -0.42091581275474604
P 0.976110018250665 7.105656021790062 11.396038156289812 0.16249860488927498 -0.8231299353349308 -0.8828936856571246
P 8.697377723815634 6.41229524314235 0.9061775089731708 0.3170329606261508 0.8655983889117868 0.3323222826850535
P 8.016177107355889 4.106013515516851 11.729652622677806 0.004368818491656992 -0.8183726231556033 0.6174617370367173
Ni 3.0918763640264313 0.6421556600482768 3.927745352614087 0.3479682167524265 -1.8856791972765912 0.5868478688056022
Ni 0.7340579612087099 7.830422063179132 2.2227109435285057 -0.4943694018592067 0.6623819945881754 0.07312783033392568
Ni 4.248416145983114 4.858109822417493 0.21211194103185277 1.0631835530915497 0.6746754672435477 0.23768203220064874
Ni 8.829259452343182 8.22591906704433 4.375166156408337 0.10583920452401774 0.0620458614881512 0.2454922722736869
Ni 6.049953898555848 8.690718807887873 10.542877287411862 -2.556328316969565 -0.47247388733769596 0.828357245172141
Ni 7.1127687442275045 1.3421188603439729 3.1484993766700113 0.10121121883370311 -3.077013473905165 0.6519474295184127
Ni 0.7797414585617883 8.325284169949672 9.326254449709218 1.3882550677514607 0.037738395091038233 -0.9497765635226031
Ni 4.948324704270502 9.037334367710347 7.158861593575028 -0.3332882461427486 0.9641114920880364 0.9678107953164945
Ni 2.546049007811573 1.9513216848393093 6.433306484540556 1.2272836981399895 -1.1385089052974264 -0.4053179583164891
Ni 4.620398563560991 3.9943215459914136 5.647378439275369 -1.9246332099422856 0.11361010671868821 1.0650290909407207
Ni 8.211906633388278 8.032486357632365 10.576358020333206 0.49115706556949607 -0.42091915518885575 1.6832415901005333
Ni 1.6837055031305992 6.6393374183426905 7.405385033940937 -0.2207862848865746 0.9817592870767865 0.812919313350516
Ni 5.821152065460829 8.966355325053385 4.462134932513529 -0.23833689217582824 0.010186710725014713 0.3560669346001609
Ni 0.23881706492294724 1.2061158277999389 3.589779900547564 0.6107496151238642 0.3484392428515741 -0.8707981879451713
Ni 1.911294098414024 4.3944214444547995 6.8393716232669055 0.40558406749368214 -1.4994678778825659 -2.9409470950654897
Ni 2.353033059479928 2.0749700666912263 11.004599479211185 0.2136841266241546 0.79624750912179 2.4387412278809997
Ni 2.082434720707603 4.1335938376766155 1.8938818204783048 -1.105369185320664 4.305873001172706 -4.967020866243465
Ni 7.943160566084036 0.8586121038085196 5.551883657602588 -0.6085438657217971 -0.016275854341888097 0.21678513414698147
Ni 7.523621078563114 4.45894532104549 8.809717062219166 -1.9540314605987446 0.508348232636802 -0.5218478097851335
Ni 6.245414845225364 2.938684252258582 1.9959234556550272 -0.3204412149767514 2.697054048958123 -1.4664163467442357
Ni 7.046281459880645 8.642948726725999 8.516238540137339 0.5979452642703444 -0.13533438576965723 -1.6037356241544058
Ni 7.59048807856093 6.311466845777223 3.925725450578142 -0.0901683307559802 0.0301829513412835 0.4526601950458784
Ni 4.900499054964585 3.4425298756493268 11.710702959423578 -1.0809390773027576 0.7992677840053525 1.4293610937631511
Ni 0.8004794899184516 2.803014628578803 5.347014098010941 0.17688135597350826 -1.783076240301684 0.30650223629815604
P 5.785810725849794 3.87450736607843 7.735501485661456 -1.4519464352628348 -0.2323508497957224 -0.8049985158415426
P 0.04782194476298089 4.400830303734368 7.77496042474604 0.08617335066397416 0.8815770237282302 0.6219603962380191
P 5.111898797616959 1.4783071200348155 5.8758598294064095 -0.33042969364803093 0.2464309820378724 -0.566734900105811
P 2.375195487595547 0.5911700356178092 12.830746510508877 0.7417486067429612 -0.7631221873227308 0.17212558645607776
P 1.2707601020360544 0.4127527648618642 5.288321172001779 0.17949951032264572 -0.047808891953162826 0.02884752035931161
P 2.564979222215387 3.4178483583371135 13.22648338352919 -0.8178568598614495 0.4377164292518526 -0.49900690063121805
P 7.151175593118215 7.282353458487893 5.887232776220443 0.9933755311594763 0.8943055270384921 -1.6201186934981193
P 8.68974636536713 0.7289734760288205 7.797231210742543 -1.917924430463542 2.5131389260662846 0.9152541042657011
