# total energy = -340857.09068012337 ev
CRYSTAL
PRIMVEC
9.45388404311138 0.00000000000000 0.00000000000000
0.00000000000000 9.45388404311138 0.00000000000000
0.00000000000000 0.00000000000000 13.83671491033645
PRIMCOORD
 96 1
Ni 5.024616541118537 7.483524546887682 2.013587518417398 0.8321367668192313 0.05869057186267311 -0.4018724229700499
Ni 7.046670012819027 6.547807452414459 7.298148058946259 0.7247104203137519 -3.5103510573630317 -3.0999016913572484
Ni 3.636181294922801 8.38959426057276 4.086909404025447 1.5624604195547027 -2.730478904275472 -0.22694484828880268
Ni 4.975853406518651 0.34913761509393876 2.4251746562384526 -1.335679350537274 0.9416680754828557 -0.2560962730417783
Ni 5.063188388572498 0.49977391483951017 4.859979984290963 3.7219780443478414 -2.039771837490358 1.9567205773951335
Ni 4.541939030429944 3.598602105307728 5.557710670750078 2.649086005719276 1.4077815678201626 0.014775101426645522
Ni 3.0018634819887327 4.072128256110185 9.850274198894398 -0.8577477825191164 0.43164065537141794 -0.8470113699382187
Ni 2.6092625797661557 9.253546920236419 12.489627546616735 1.3733025602066864 1.035321793684275 -0.5494596579651312
Ni 5.452007737123117 5.101089010249686 1.2279338183084458 2.8536285750534787 -0.42067130084410775 3.2005022731901462
Ni 3.179142718130077 1.6804940901651548 10.10323745022629 0.4276629016705925 1.323889299880881 1.6440368948766138
Ni 7.943068402988077 4.067231144105 10.368805565335235 -0.09101782324046906 -0.3102560469136334 -0.4082001649602905
Ni 7.242857017320157 2.7312933167602087 5.15745590389546 0.10491155050342577 0.44454296525538284 0.48289122601627804
Ni 3.1899768694002337 5.721528521207673 6.571290900717312 -1.0816361033697823 -0.4905217459783423 0.569298032847297
Ni 3.817194815315203 7.282374253192108 11.932381579070823 0.8791252197536279 -1.303623864763626 0.05136935561091153
Ni 3.375443169241365 8.923218753106795 9.154412545337648 -1.5977408400235515 -1.0933857877065427 -1.522241424133656
Ni 8.045425607003773 1.6663510794320355 2.944093631930663 1.0672867766266458 1.012888147271107 0.22103388212100641
Ni 3.348386152718513 4.269175564071685 0.7829073467546933 -1.0013040419779335 0.8167646552385351 -0.6612370823504548
Ni 5.376613010788475 8.699795108283395 6.990031792697292 0.6536885805792355 -0.8916647469815354 -0.5800174761473301
Ni 5.679080581239956 3.1324027147446882 13.504841407770254 -0.33989443860535656 -2.5522407771637527 1.9150044286032697
Ni 4.7029197702451535 9.535471200364993 10.720369047109733 1.5238637902284273 0.4559977440595437 1.69922665267488
Ni 1.074774276875261 5.46326731318137 0.7607493330138612 -1.3641496900628247 -0.15181798524697723 0.49463782502924497
Ni 8.209507220829988 2.8527473668192878 12.632893598255661 -0.3791837231232824 -0.9756529170687326 -0.12928098048672573
Ni 1.1719223907078367 0.2142183977974386 10.452641664854102 -0.6581977813034986 -0.6665173569127876 -0.07081846547445868
Ni 6.188815108451401 2.98359857775318 2.8116068990336496 -0.320360482337487 -0.1432603254849533 -0.11222222523222608
P 4.505844100631114 5.720554771137144 13.481623613612856 -1.5615847018179687 0.9093205123900856 -3.1539311102988266
P 0.9250871471013509 8.973702494627421 13.63420079578056 -2.551336263071612 0.4180852852844864 0.863721483604048
P 2.20337897027083 7.657050591009609 10.618723720572781 -0.45173331235623493 0.49333658971931804 0.7782788404585111
P 5.644337556878851 5.036452804111761 10.226107692135518 0.22234000252693964 -0.9479263976877417 -0.20227408501500002
P 6.742633097593684 6.406008643600252 2.719896659381348 -0.17896832040952404 0.5912138590837818 0.2179112773316247
P 3.612348052905292 8.68082116273435 0.8140276426980635 4.09924012496838 -1.1030523642620294 -0.19796183079289134
P 6.58033826787747 1.1563707512319135 6.588808948102653 0.1345831094259295 -0.22471313074480656 0.5819002949923398
P 1.7094607912923456 4.203830316620268 7.829906354743182 0.44988597473485104 0.8534807797126464 0.267160758386056
Ni 2.1873640904700924 0.3546104686456785 3.575490194653145 0.3390937970809321 2.265604426551588 -0.05412712086170678
Ni 5.022290885610282 5.165157983336818 7.961092233177043 -0.032963085189581944 -0.7043269715613935 0.33028468342973444
Ni 8.163164280580155 0.025717401134561627 4.886504747134486 0.7822717636679882 1.162621482074914 0.6975713980051147
Ni 1.5014469776821702 3.352867293819782 2.004773662196484 0.008565373071507829 -0.6184374706864253 0.7432717282557071
Ni 3.9467035746955506 2.1755467352452267 1.3173089485683138 1.7978189458284972 1.5647772406133376 0.9017339582920793
Ni 7.691661260992196 6.795603210653622 0.5159977254806237 -0.19207734698765627 -0.79637169340448 0.5569497956945892
Ni 6.4736606387915625 8.011353808419441 4.584200728879317 -0.9702232614127291 -1.172125050689975 0.39014459301016036
Ni 5.85900690495167 7.192713615630007 8.952382095024927 -1.7366014937789123 1.1867392010587239 2.5380058645112937
Ni 8.601030380256057 7.22325911541524 3.7028160521763556 0.8119626058642017 0.20324930444407577 -0.4304947146924328
Ni 0.32296075518823436 1.5075730946307406 0.9182614427234684 -1.443502932481172 0.04163567326291539 -0.9161023111986094
Ni 8.044054793797688 6.524494174026844 9.379106792194825 -0.7668909103365438 1.2218638126759989 2.4185673240362866
Ni 7.679248311063996 8.544855400459136 7.335520208497792 1.2763449744430149 3.4660851455661206 0.557031299664802
Ni 5.500090192062051 5.9459448238699615 5.033755610955239 0.11086108321864134 -0.5492462564027445 0.06272514694336294
Ni 2.389261241015877 3.375310814862847 4.5140481813224245 -1.1349602687142195 -1.5237532327924919 0.73354010279024
Ni 9.253197126521762 7.764078013810172 12.05021573687742 -0.004427182533418181 0.7659408877184486 0.05303800156258608
Ni 0.1440157446543927 -3.403398304761307e-05 2.8291098202043026 -0.6041297958145015 -1.7408507559735698 -0.43371630695352403
Ni 6.683612498658615 0.9879025351462288 9.04728869291845 -0.16913050838349583 -0.4562666814502142 0.7008408127850059
Ni 1.2034889099844979 5.213949479589243 3.647081623382217 -0.5300802249972548 -0.08890283377999529 0.08901827631193701
Ni 3.047100317789518 0.905286932074984 5.8471886043383865 -1.5653387695437622 0.8261347835995256 -0.5530628019353572
Ni 5.360579223219377 8.67885475482493 13.0200585170748 0.47822904465391824 0.12285373680414326 0.45411441099390176
Ni 2.6650026808908023 6.937846352024286 0.3383025184353639 0.21052115551514064 0.32852579175709873 -1.3856094025984975
Ni 6.770002092294473 4.911793887315699 12.903954420073122 -0.6296050572674705 1.931542535467609 -1.2414754162593393
Ni 3.0293175616471406 6.401990742823798 2.4929467157588485 -0.30528327628939034 -1.0093618792854038 1.687227828441791
Ni 3.2807057958746624 2.7583219716305214 7.077328013826001 -2.056851418680464 2.0831975127741607 2.4441248607904162
P 0.8592380076231455 6.879241723993131 2.3518266958287564 0.003782092750251551 1.5357749398437164 0.3294161647818521
P 3.449032203697649 5.402847539387676 4.517507357543847 -1.5538366824414338 1.4715156156440141 -0.20736486927434608
P 4.232957733778516 2.0421335216985836 4.114443841699384 -1.7131656313534753 2.6010012343969073 -2.7828206511019813
P 6.624374460387409 4.551232198578778 6.5561949384588605 -0.1613647483951479 -0.3992007896751577 -1.597939329187603
P 0.7674445737900611 0.8771001763926345 5.101652461746808 -0.08210278013902635 -0.2054769082230139 -0.0606500095818891
P 2.0156910076474244 1.2107684008030148 8.512485301027183 -0.8944932175692659 -0.5476249187492376 -2.173278426022657
P 8.135350953322911 1.581625369411839 10.680726074578189 -0.6336283194942507 0.9135414924499685 0.3896362859151741
P 0.03566572345706252 3.3787142131676084 4.439578990248994 0.47574458766916766 -1.0537735726315591 -0.7781770247733243
Ni 1.36514087557648 2.732787030460632 12.318025367925417 1.1263545293230797 -0.6915172213912348 -1.5393747413798327
Ni 7.043030267409769 9.00885203600826 2.5847401495919327 1.2396486474632458 -0.6695692563652339 -1.1012109401779164
Ni 7.370815339695003 3.1545626192623564 7.962171866750386 -1.0026996367738796 1.1494641187573496 0.6907469188841135
Ni 8.12319325826757 4.90282215122898 3.3007347948981827 -0.48797146875266284 -1.3888027127248146 -1.2265774161015843
Ni 7.77825884008001 3.882237538472864 1.0818788708364504 0.4886299282722682 -0.6216135544215617 -0.3659839366035568
Ni 0.3594423488500216 2.350188337700381 9.472448772256575 0.16871270411978687 1.3935790510675357 0.18411746871063128
Ni 3.113258599280406 8.239353133185908 6.3999647754440465 -0.805705054990264 0.008423962397637104 -0.26706845578256583
Ni 8.592597515567594 1.4024648103186959 7.5405532124260475 -0.37683656304734453 -1.803225204445733 -0.1075505307881696
Ni 8.041899308204673 9.074991409730789 0.13049669027714642 0.2583596151546582 1.2348537971777636 0.15574714509805435
Ni 1.4701357132783663 6.196935994961929 12.315409478172839 1.87566757867686 -0.348111170088194 -1.7560560029590984
Ni 8.815964437085913 5.073398583486782 5.462597032793015 -0.7385020747812056 1.2964484300611092 2.567831432513158
Ni 2.438714509160895 0.6894859540658314 1.2585511676134458 -3.4935177878557764 0.5415411744490028 0.28604679665728155
Ni 1.7000447226491726 7.251034627135764 4.9200868345183 -1.464743072806871 -0.5688935983200267 -0.47560780498098737
Ni 0.8504052436338719 7.0459609715055365 9.050637258694968 1.2357493124088397 -0.33637177016407876 -0.2157826610243961
Ni 0.8054397343090491 9.216818580197536 7.108861444508033 0.6224594473616247 -0.5701585810753794 -0.16251068907413302
Ni 6.825364038051925 8.564273678564636 10.797937221417333 1.0670175821256591 0.5851601966905341 -0.7217045436078925
Ni 4.247422176573752 4.06109557327225 3.176328296809723 -0.6140257147719748 0.12029137539360574 -1.9919549751173953
Ni 8.933334409179277 5.186637208193535 12.34457754703306 0.4092509748223081 -0.09398590472985749 -0.04671874421277761
Ni 4.600865090523214 1.1968239216376735 7.80054542664569 0.6149160877967281 -0.4312758158328315 0.46916307779690813
Ni 4.109168574327003 3.975537921444223 12.039381585607265 -0.7895027341987887 0.3571755942833075 -0.5530959691661379
Ni 0.8514016830264326 2.5012803146634237 6.648071566472728 0.8217754781895654 0.801426225109252 -0.6889492035537426
Ni 5.1036510128624375 3.018445594840264 9.213702579971843 -0.02934862836544623 0.47517560253957525 -0.7708995172753046
Ni 6.010061066377992 2.671790569731965 11.202910421866136 1.1576219719777934 -0.719182034296355 0.3968135203899037
Ni 9.078092283741794 4.995158238013992 8.292038684332033 1.395653674208377 -1.9956846173631564 -1.0785122130288198
P 8.891453702262355 8.632218744165522 9.214090189223219 -0.8580822830403997 0.4289757069447451 0.2551269671499735
P 0.4523938834951428 3.6109299702783084 0.07626637445602895 -1.1275223243789356 -0.5532083263742861 0.8114051906988348
P 3.9802365018816297 7.28573983596015 7.922944865122758 0.8495878724161432 -1.9266247864510175 0.9282813697633046
P 3.6932354859484526 1.7326606230698016 13.080151186475868 0.07012606739312438 1.2363668913881805 -1.1465585150747801
P 8.763145586172854 7.4167517629251005 5.872578901080324 0.5831580786588407 -0.3672851719134836 -0.3841089283390417
P 7.20479567961191 7.079304821008017 12.169584260086415 -0.19413474373731726 -0.5970592621209652 1.6067767249735747
P 0.918909033789791 4.614412506553 10.452628429416249 -1.1076633806714795 0.1779974718558225 0.3399499744336403
P 6.7949319848768495 1.7048945652334575 1.091139895779073 0.48167072334561556 -0.5899118524429066 -0.09320197537598142
