# total energy = -381171.0975147935 ev
CRYSTAL
PRIMVEC
9.15027371552541 0.00000000000000 0.00000000000000

0.00000000000000 9.15027371552541 0.00000000000000

0.00000000000000 0.00000000000000 13.39235050650887

PRIMCOORD
 96 1
Ni 8.484280011373494 5.519692044163171 5.098347569370116 -1.246505008263447 0.7601394505453232 0.739936493234887
Ni 8.094707116293787 0.44396120585044846 2.999217177343715 0.20961458454047127 -1.8398402845656054 -1.2357338857898719
Ni 4.591094836614751 6.6454867963237545 2.010915350109902 -0.2685591813954794 -0.816660011339871 0.5561347559924615
Ni 7.005220649457368 0.7466586590568676 7.74604143400899 1.9382150623917782 2.713972679090332 0.5520032503225912
Ni 7.686055900926558 6.193362631466831 12.995561587217072 1.6591421259491683 -0.6668909382021224 1.163845841400318
Ni 2.349122269762259 0.36443709372248057 4.690027593904282 -0.49184380722387555 -0.613466499834395 -0.04681053259563551
Ni 0.9459003747732174 6.422210972181888 12.846276704806117 0.45509760084277756 -1.222450024196772 -0.6400198248428913
Ni 8.36630553489052 2.530617945015483 6.536927036264678 -0.3460550588901137 -0.6526495977917598 0.2799185722723566
Ni 5.304258004427254 4.607190167735014 1.1969427039090796 -1.3151115536882512 0.30336754732391624 -0.550870936490361
Ni 5.295757400327923 6.452370273701153 13.19601845925677 0.2964579646882765 -0.6452813303521469 -0.2674417799615846
Ni 8.006681485039136 2.531478070726288 13.276653414589969 1.3641250074724764 0.23142191022354983 -0.8221773416136743
Ni 2.6594354956187045 8.995716249181836 10.563363984174044 -0.3049909418599521 -0.312184631394914 -0.6241100955911703
Ni 4.566132890454388 4.919132142277875 11.38293476771391 -0.5715456912308932 1.3192564290945603 0.3880769118478542
Ni 6.666687980067727 2.0522141946114347 3.8963969207639813 1.0913862407780108 -0.02165100261087239 0.0656268939711902
Ni 1.3486862648146425 6.756589417393815 6.899912896607014 -1.189276879878913 -0.1614691351834961 -0.30943072279886064
Ni 4.357351099566926 1.2977924435008825 3.9752109716668595 1.1921251479609856 -0.2616233735075946 -0.5270995451023761
Ni 7.381992311883723 0.4684958342374648 5.385827202686763 -0.6799647406669451 -1.4231403096644202 1.6557449273421614
Ni 3.544056488633876 1.2905637274207187 6.6287985274794465 -0.3725518196290616 -0.3475334432078531 1.3209322741350864
Ni -0.12370895289745458 6.635348293264487 3.0419379743501307 -0.6547044234382595 -0.07355051969364108 1.0368868241785498
Ni 4.9480744574190885 2.224001429660793 8.452233923454571 1.4406163549619964 -1.1211115357565853 -0.311930863512895
Ni 0.9238299150449202 4.52998931005357 3.837122363933991 1.1019827853469344 -0.7884758355961711 0.27972034021862147
Ni 3.12537657348961 7.463393145110478 0.26916444584062693 -0.9358409272781173 0.6591966548816582 -0.09753994062970299
Ni 0.4206371586500216 3.06561613713575 8.79478356291914 -1.923364370532191 -0.6630368545633548 1.0792012686760446
Ni 2.1782775128853777 2.2925003772254837 3.2830412763894437 -0.6411225709887669 0.27176508992728676 -0.057071548202011387
P 5.683793049456406 0.7451241581876987 2.2089208638738085 -0.37260349880260346 0.008489011307617639 0.5233318505298278
Ni 4.72084571511693 3.999154492384536 7.308861495863616 -0.1336109753206473 0.777294879278687 -0.48070707388076567
P 7.758004501607985 3.9097929211960816 3.7593267384737987 0.479796132030722 0.6769601495126664 -0.3575458331385326
Ni 3.359083709443358 1.19444010410158 12.480144065400529 0.910584980924806 0.8181095993022038 -1.0790650002084963
P 3.886661029739558 5.360605388758454 3.718225539880281 -0.40026445505298164 -0.5799508845754529 0.6329863150348776
P 1.5779829689321385 4.722977728846901 9.162564166585533 0.7222730145168529 1.9210195244490982 0.9530212957121458
P 8.74584057991967 7.2496153048815355 11.196862125646385 0.00023345616704475923 -1.4643059852694522 -0.4764007331959279
Ni 3.251000678634632 8.029703573213428 6.526386836197918 -0.02446353235900303 0.6664242829783491 -0.20878334688842753
Ni 0.5648619398048622 1.2787049729398425 0.4461060299633477 0.5029910820899466 -2.018452764297608 1.5365514129984246
Ni 7.022157805741398 8.286734756367602 12.409566175692278 -0.42329871116462586 0.6623457420336012 -1.2385471868689506
Ni 3.7034817041588024 3.047635849670533 5.2099854814410484 -0.7744710366766469 1.8234623574282143 -0.47281353006530186
Ni 2.0703774875470358 6.46921592724999 2.2331873892467127 0.8828255514233505 0.8509675263724893 -0.23781290135155816
Ni 2.3927416236282597 4.100475471062578 11.476199845585652 -1.1726109891874579 -0.14147032346406604 -1.2474306054015096
Ni 5.980344263939982 1.4568790989055989 12.66281555080097 -1.17701400335116 -0.37295496860475125 -0.7033129284745823
Ni 0.9099123490222253 0.21908133876066746 6.807706505381443 1.6030167437105103 1.2277495820328146 -0.8903830520556343
Ni 2.8965922846891887 1.9195718296771904 9.513027877616851 -1.365319284890894 1.0536648149678371 -0.025610758589568797
Ni 2.304706842100089 7.150243334463083 4.55322459960086 -1.3452253423544962 -0.8650443161805296 -0.5676957213571837
Ni 1.7806889782028557 3.1162354502439342 0.290225630399757 0.5350663653579365 0.5557141235152752 -0.2300170594562232
Ni 7.3563074941153435 4.71481568486778 7.394720342348923 -1.0302541493533803 -1.3247565329771829 0.2622283540814451
Ni 3.059339049501583 5.177197306339719 5.8534748065689985 -0.17946762864344576 0.709486661385462 -0.44294605308190815
Ni 6.237814660223079 2.6547231047563193 1.277076224253426 0.3290911773422655 -1.4968931751768544 0.8678247071391441
Ni 4.5575133327993065 6.392106572303738 7.271416746568368 0.7758802583193476 -1.0883839636165773 0.9144370076810444
Ni 7.128108822820151 7.627503300677232 4.148400943646711 0.1547079052002626 0.137465316069731 0.6470394506938341
Ni 2.3908841181038634 3.4807274456075303 7.556566720247028 1.6136703667696144 -0.39395239679202476 -0.36064632644072725
Ni 1.6044913113172454 8.974359510788036 12.539846855031216 -0.5042077281058671 -2.1228585788092085 0.9582475771080916
Ni 5.1430759363866425 3.4667549779437206 3.170036313454743 -2.065754891817681 0.7673069148280398 0.6294214805017547
Ni 4.79127537039417 0.6137637465734936 10.065168192147977 0.962097032761169 -2.736657522282358 0.8466868967192644
Ni 3.2972004096330454 5.0765351473550595 13.472034629908569 -0.7626758438139317 0.34404497043862037 -0.9520998123391409
Ni 8.939387165397674 0.14315511418044682 11.253993688418179 -1.0565261956760321 -0.042184603787849925 0.25264945214375845
Ni 0.07116625229553561 1.3616796532118987 4.582112013100957 2.5391852295313755 1.8220965874289394 0.2739505276143798
Ni 0.05027892293327022 7.616687677377544 1.0421575920857364 -0.06400144255262526 2.203137418365619 0.526301731791429
Ni 0.46629885356550627 0.8367586573183206 9.184031623288915 0.2919289664696714 -1.0195848425649925 -0.6213947535425364
P 2.758194397711371 9.216796007679097 8.30446249628369 -0.7258003109438209 -0.6698718752073173 1.0818567040210207
Ni 7.482883227706362 1.9753976484177964 10.943090269919747 0.11976918434154857 0.5747210036350812 -1.7057436278577913
P 9.203436608341072 4.285658706544036 12.832362798892829 0.3159014181248688 0.2643610841537318 0.10341362580166062
Ni 1.3188838239626257 7.386064183599765 9.301335384722934 0.4997890302128811 0.2782159877589531 0.20028790782290667
P 4.405618792380677 3.131040592797991 12.645498658165893 -1.0220039935294463 0.5543193000502776 1.800201587128061
P 4.725805163364333 8.056870735291918 11.78958024312573 -0.6554199614480454 0.4069950889085958 -1.1310077118243747
P 1.4974605619632266 0.23976919216021442 2.6244055035051717 -0.5768311079995485 0.1174428502012171 -0.5898702005716938
Ni 4.6635009509721375 7.278173308534942 4.384722312744893 0.9246337457083882 0.47815396844160873 1.4263788712063759
Ni 5.334060445279271 8.652763997682424 7.76851359074478 -2.274502500372167 -1.3629955218537235 0.3231159335954371
Ni 6.420307715289895 6.255694294679585 11.228373837591787 0.15011205829946406 1.7233214888405546 -2.4109380896258026
Ni 0.419394551506115 4.442457793568955 6.866378059186518 1.2476697179955092 1.1831111173878335 -0.7210936494967711
Ni 3.8536285423352656 4.671544041395509 9.203812684582712 -1.7136947643840679 0.3232447458638175 0.8230240058846857
Ni 4.9896441500167885 2.689045780726818 10.668372523080322 0.45332276833054186 1.21027276540429 0.5712713545235839
Ni 0.5289736520352293 4.871349413960641 1.5919353059942063 1.5033816111146754 -0.019487933521282568 -1.664217997810179
Ni 2.6200069670244948 6.720793547386725 11.375743567755174 0.9617620180192533 -0.3426378056784486 -0.3634043488018387
Ni 7.498319739133243 4.80024263844298 1.3518769651907856 -0.0217859855268399 -0.6235490808813778 1.2373634509734948
Ni 6.846564056908054 7.575017331771132 1.852014445257625 0.331635541030674 -1.7124647486317088 -0.045609827419315
Ni 8.703904876381202 5.978093296654261 8.905283180964284 0.10731296085606679 -0.2956781490994585 0.2485827382735525
Ni 6.956751650626194 8.61668446919624 9.775183213941775 0.2940750662783968 -0.8628473085292108 0.3253687341853558
Ni 6.747649600165561 6.659120703867353 6.368290240387978 0.049045849684057466 1.568663463041621 -0.2499297392197502
Ni -0.24324812615221217 2.7231671506798945 2.3084657744617743 -0.11703224502635973 -0.13494872029546437 0.4042792326393295
Ni 8.347638976911362 4.51817630694029 10.807184917448557 1.0668571452883948 -0.45178961951546703 0.8157596110127886
Ni 6.278807885589071 5.533865817844403 3.5837128590387133 0.8329014128993979 0.574406557718456 -1.7862402398519626
Ni 6.273903338982782 4.646225234567898 9.710672870604103 -0.04110474046010986 -1.4253548008172356 -2.07010699813879
Ni 6.473132244316205 3.927443798814608 12.39022707260946 -0.20060595328395775 0.8126082098680004 -1.6969280864486904e-05
Ni 5.781636924197154 2.137302588066425 6.1802749952523275 0.5394431542693936 0.5679122082433639 -0.3242423338903964
Ni 8.48523163981949 8.217659341571204 7.789754120664886 -0.8157696383151177 -2.0705440856762083 0.9439761547907419
Ni 2.96155922667547 4.204166370582089 2.1023046219102093 -0.08855830595638296 -0.4407341330322539 1.2135174975938328
Ni 3.5572054316809583 1.5723189496237573 1.3496141025494888 0.4416013661285556 0.3838039955041132 0.6822715344232508
Ni 5.172036552074894 8.567108287269244 0.5395339827037318 -0.9686384334241124 1.9000382942117404 0.2786954984985329
Ni 1.0656591545924357 2.0008354088011573 11.279077333216348 0.3038496291666573 0.8743110861944362 0.4876305404734763
Ni 7.382513877474317 0.3765063044942982 0.8584292500938291 1.016808822481752 1.5473999256771545 -0.5915797270636328
P 5.151768696229878 9.191998766442078 5.594118538913596 0.4403379260350997 -0.9676914961298108 -0.05816066750113209
Ni 3.731069778819174 8.642067327938484 2.6893578050538225 -1.3081580051885535 -0.04616441437120437 -0.714615240861279
P 8.798811513322288 7.8734169015055855 5.627157431509351 0.10106492306382595 -0.8133988240900959 -0.007378037631626003
Ni 5.690692355689879 4.5874896288481875 5.516710885050618 0.4815282842304804 0.20931505102218145 -0.9927479248778064
P 6.557433714248544 6.615666054924699 8.626990422260908 -0.7724915443527728 0.5033363812445074 -0.17921848874711716
P 1.6593472010648167 2.3147995937917605 5.868782299139259 -0.9975144930285142 -0.09269521094289197 -0.7861201908798009
P 7.233950036616675 2.7701538052009584 8.576795681844015 -0.11587781970694237 0.17338542700510784 0.43752102541159493
Ni 4.261721591017824 7.185288882041598 9.656058548077437 0.9740819730371868 0.11712069097510798 0.1284695403290239
