# total energy = -381163.31817267055 ev
CRYSTAL
PRIMVEC
9.35090897364760 0.00000000000000 0.00000000000000

0.00000000000000 9.35090897364760 0.00000000000000

0.00000000000000 0.00000000000000 13.68600048730303

PRIMCOORD
 96 1
Ni 7.168481601467397 4.475073842819086 11.956966118899508 1.092022588810429 0.5438112014301021 -0.9850438713653294
Ni 3.07686048159325 7.899554364295237 5.677993470811448 1.1458437483959427 -0.4140666510433966 0.3880673987661574
Ni 2.0429211290742946 6.505969702995212 3.3059904788298513 -0.70480005454307 0.020757544262325543 0.6833601395017393
Ni 6.311928991559837 6.947229745013616 2.057074664847442 -0.7294379076964083 -0.4069824905031055 0.9358967202167172
Ni 5.317824511129682 8.135393638697028 0.22279756170173368 -0.3505521754295189 0.7056269213197396 -0.4461023393227027
Ni 9.171857736630063 3.9662721855196 13.620951014047382 -2.1029117033736364 0.4006012695671101 -2.470182734219733
Ni 7.2921006176678524 9.24840427722136 3.723002678873263 0.5029409455783015 0.133328411083222 -0.8070957646902036
Ni 7.902799129697775 7.242793274821786 0.41284824029196987 -0.11119146997486658 -0.059611283904729605 2.105332911220619
Ni 8.374991978493117 5.3532831578340785 6.250724487268094 -0.08691151438157935 -0.5999576667146829 -0.1977761971446465
Ni 2.3502387514213425 6.758332033495809 7.953153774345237 0.9443487076388124 0.46406663711060725 0.09873987447507511
Ni 2.6661592099941416 5.792224174435106 10.254427426187755 -0.06573539452459647 -1.8862163007269839 -0.6294014258970967
Ni 5.525947691430251 8.360974965990508 5.004600854695477 0.20213061745860028 -0.3620684035992345 1.0910990485548953
Ni 2.6936508822807785 6.87285261529664 12.371391857529831 -0.23085678174869917 0.37006556287209813 1.21286083784644
Ni 0.5233974910655439 4.711801453570276 11.38412476171736 -0.21398314592181208 0.7106482857937308 -0.40452862964597425
Ni 6.316277164217417 2.536948350246948 6.3533834410772245 -0.3598030046038255 1.2510090667813876 0.4399975119765454
Ni 4.217044861500223 2.5533311427116376 8.306033700507468 1.6862050436042317 -0.6276080814420997 -1.4963259898194745
Ni 7.007571160410102 3.8198276005940834 8.787356776792834 -0.5938099019457321 0.4885561376115392 0.09001175057345788
Ni 0.4262387418955291 0.4084972623617073 8.93609607477248 0.37485527095125765 1.077498684162641 0.3957701667270539
Ni 5.207044292905264 4.482517166336148 7.000922664153028 1.3592936475221042 1.5536009122815437 2.0001051150283553
Ni 1.480557465360572 2.5277377049400305 5.28749016252497 -1.1279306155609479 1.3888471928095047 0.41180228048925205
Ni 1.404787050211382 4.574445952135443 6.945918747580083 -0.7958057935986811 0.1237893612445352 0.14014929065979734
Ni 0.04694249797487958 7.362082820182543 8.089083262166563 -0.6162947133118095 -0.6427482795176479 0.704913954413115
Ni 3.2735100966231734 2.7044792348344946 11.846177484857044 1.5545879587851614 1.9171384442271373 0.8508762522102638
Ni 8.983296657834133 2.4441218771893136 10.181056454272834 -0.9290231330253355 0.27138173844593905 -0.296150974970819
P 3.2372659735677294 2.93193074391618 1.7422276906210736 -0.7781546561758212 0.9231083102027974 0.1253937296171776
Ni 6.310750777033266 2.550114430035922 13.035751495608764 -0.7842283731737267 -0.39560124524935736 0.32151773587038174
P 8.16572798730174 5.359576319551394 1.5705506130090732 -0.6686554863017129 -0.05907032379959503 0.6089683548537254
Ni 3.50269152385895 5.31273761666576 5.738403147843203 -1.0718849375202895 1.680617265103809 -0.6079931354246497
P 6.278967037542696 0.34702158171067427 12.247150070793902 -0.1295648302757317 1.1518009944206422 0.3649302985280618
P 0.9195964379880046 2.6833368297188187 12.19551248143973 -0.2690530903127624 0.9472861930005815 -0.5291271170553661
P 7.051034185168024 6.152701714111927 8.209780119322946 0.4595309540237828 -0.11189286691726537 -0.23519731810558203
Ni 7.275203525211406 7.5238722466802965 6.3578176420970625 0.29310884571038553 -1.2873258989345506 0.5466486708788972
Ni 1.9512915723611124 0.8685535664424822 11.818819530568264 -1.1507702391632828 -1.0155016736345543 -0.03318805671619446
Ni 4.1507469171082985 5.357285346860841 2.666402333626608 -0.16508924843458664 0.7561812372285235 -1.1079891394420143
Ni 0.7884751875441581 8.543560813973118 10.780708737570713 -1.1159248493493235 -1.6545593916744923 0.15180153018674503
Ni 3.9743326690267704 3.074345087088112 5.864026998920617 -2.592112673658026 -2.1186635668912546 1.4517302054869705
Ni 2.036861740080505 2.0239948893776436 7.548897149188288 -0.4384587067345158 -0.06587937630162849 0.6317709545705378
Ni 2.763072030259007 1.8730338154336077 3.6635234172811404 2.5723529745325955 -0.03936127540644189 -0.9393227151791307
Ni 5.389704948159402 8.70670612226732 10.396420043366446 2.150368354193703 -1.3111088602867613 -0.7242381086630237
Ni 5.889230503789383 4.371933317199492 1.4644841879818304 1.3738329787888597 0.8095750794686316 0.004349535217947348
Ni 4.1128289813524095 9.233629841094526 11.982942008846804 -1.4315624722898443 -0.679050713493108 1.33658746417384
Ni 1.4171583027403685 0.3181637416277524 5.976771843113545 1.0015729793686041 -0.3618120646140543 -0.40411159671321367
Ni 0.9539610283463007 7.194009582876417 5.909943702184665 -1.3135465231939765 -0.7529095084557872 -0.8700582244553533
Ni 8.463881718886574 1.672868258641856 4.593240344016025 0.6362865830527041 0.4374719173412143 1.0373146557445878
Ni 1.90012339863578 2.9620500216152474 10.080574392065175 -0.31429216465622 0.9395374022930981 -1.359209315338414
Ni 2.20365390286171 9.056822854837476 3.8456426549075924 -0.36684037106658113 -1.4241507532068054 -0.85946296543801
Ni 3.997541625018415 0.7210018338983466 6.0482819841492 -0.6382714746932169 -0.1717599755865429 0.7594570797663179
Ni 1.7956082894018546 1.8073156273960278 0.43788810425426794 0.27303084401358785 -0.5497129116265177 -0.06552739227884843
Ni 8.578495809776816 4.42695406540853 3.5106229648227343 0.18475175986052053 -0.10647169590169404 0.8178825708930625
Ni 3.3906021783827875 1.0834804680885484 9.898961038612434 0.14944742813227166 -0.40917178484494054 0.23376495653442966
Ni 5.316917472962401 6.187000848107636 10.945187485479906 0.4970703457301375 0.05807659242775804 3.4338537963362405
Ni 9.19374821446102 4.648944643668653 8.759464885603522 0.5728767513374908 -0.062205269884150934 0.20539514714248497
Ni 8.966109687200515 2.869700444913606 6.821608699208886 -0.6503764854868671 -0.4372320334162663 0.4434011383414557
Ni 7.829544109053723 0.18929231987511846 10.40954497915608 0.8249119669360181 1.2925789198033741 2.3107193166123556
Ni 8.86006102890026 9.408697558288546 7.001784817957391 -1.3209708406825056 0.02551305666943993 -0.9909862049916932
Ni 4.760332670974237 3.5839696243744084 4.011038726983902 2.354847674390138 0.30567151286674454 -2.43105131543591
P 6.876256346151177 3.841222480251166 4.859830082470404 0.5778775469861919 0.5349547794807368 -0.8296703075566098
Ni 7.164142779718758 9.349403444693456 1.1400422460910686 -0.04508223705061913 1.3036567748840904 0.016237030684152682
P 5.353414070559253 9.028835584376964 2.7628887524437626 0.9167998514862663 0.46024983446767825 -0.8180980293379781
Ni 2.979049974070045 8.008239978916862 10.411214116402055 0.6660694707420916 0.5550641486361021 -2.3020446716564935
P 2.219073551705473 8.87246968506501 13.498488705282933 0.22929020859252772 -0.5325752235049667 0.21861395982560414
P 2.4162187649092712 9.165414960369691 8.334911177499166 0.5717570359107508 -0.6235897043113261 -0.49795326255572303
P 4.996704947185669 4.3274229906401755 12.282474064409548 -1.1766190819055864 -1.3126669488025007 -0.7191018158777229
Ni 0.7122203953118225 1.289368781152212 2.7238973323414433 0.9684646268504093 -1.325214446450208 1.2965970398238313
Ni 3.0626564509118213 7.309166026485238 1.1867967907962333 -0.35976238117387715 -1.08137127974417 -0.22530319892032166
Ni 4.899960443281741 6.265913168661013 8.969271229513478 -0.523326194102873 -0.49481086027199944 -1.5618482398920004
Ni 6.7434734391885085 0.393929481322472 6.288073887760367 -0.4898401465302854 -0.6565360773303597 -0.09387226197012866
Ni 6.899596214867994 2.455773109729841 2.8560490529505915 1.7239087288025925 1.2480576974625472 1.6675396059842442
Ni 4.17782714940153 7.5101731650816825 3.5927940771420617 -1.5517851992290437 -1.2934757205860303 -1.356156644555019
Ni 0.6574951358253212 3.4262291414481236 1.7346871176510248 1.2851070369063609 0.3580230298852673 3.17693219917969
Ni 5.231730692509591 2.254027249327055 1.586851117475082 -1.4310127704339612 -1.5300982011739133 0.12941519207174487
Ni 7.237743783993628 1.5417124098349275 8.129511916973119 1.3843415916296675 -0.23218192831802595 1.7757912766044965
Ni 6.019881403513495 1.799170985708388 10.053435249045615 -0.6503811134725573 0.19745300947727285 0.8675634830579574
Ni 5.788848496307393 5.914477957930172 13.350228173841067 0.26832906766254433 1.0948986248066435 1.0315787817020752
Ni 4.201587809020695 1.4155405954935696 13.50274523903289 -0.36519383660209365 0.5999651229138506 0.43748040198164656
Ni 5.7742049729057365 5.748854658766596 4.906006741003013 0.2799715369974791 0.6107925525466578 -0.30029430771523125
Ni 4.779408525213945 7.114302435063052 7.039010786451644 0.5668372300116303 0.5424968534940529 -2.0736381512204995
Ni 7.930300152893352 7.021111276556717 3.837403569039649 -0.16675815149657733 -1.8090428395687745 1.1396175649805729
Ni 0.2162837185334101 7.816191011085928 2.406436779066057 0.582544613444558 0.7287884470378674 -0.995932493253375
Ni 7.235228389488491 8.504511418235364 8.733611492563353 -0.9250291813745941 -2.064884830507902 -2.8106752114204046
Ni 8.321271006626882 1.561985180419087 12.353203404548628 -0.3832442663459013 2.0267479144268643 -0.09287493105386586
Ni 4.7547127747006765 9.217686541350066 8.33586871057473 -0.4561065017232661 0.41001999177784876 -1.6007066075200949
Ni 8.299885477878739 6.383052004965334 10.141107501094954 -0.3762390386726617 0.20931145147775562 0.4401350659956742
Ni 3.571458108211307 0.12488606436196573 1.6791352378141362 -0.5701557528619019 1.3337170846045805 0.5907795997598406
Ni 3.273809325709286 5.0131344941950635 13.801373061701037 0.43278196806471275 -0.8148854359379514 0.48688594899796794
Ni 5.5519806219220875 1.3526557328651232 4.461787136304772 -0.9342638125989845 -0.006637302810859537 -1.1726894078338772
Ni 4.5669932777094395 3.9031909538033918 10.041104205425075 0.13631474740505556 0.9594814495151928 1.1393193170138636
Ni 9.138166411715522 9.042216735071582 12.88807913633929 1.8967102582797721 -1.8891424732348432 1.3751882072651735
P -0.018943071332744574 8.636256374305576 4.38322921520026 0.7311024398830247 0.9082550472400488 0.6792743994681398
Ni 0.7726721514338124 6.105554431231239 0.7172586650492511 0.7147849336699238 -0.17250379573110292 -0.21576954839827356
P 8.443711808300767 1.713778485258875 1.6544460329371269 -0.860744403253595 0.46021126792025907 -1.666053765467337
Ni 2.532478615773134 4.218905692379488 3.7960996691562117 -1.294952819352189 -0.7180116681373376 -0.6855658889038064
P 8.88875896844029 6.382706021334515 12.555043709131718 1.3470127732722221 -1.5443608817405146 -2.4819810124062416
P 0.9851930642093508 5.081461585827191 4.989285936031853 -0.6910773056403389 0.8448218184860676 -1.6213908753423238
P 2.778734802735237 4.142864100871008 8.376585373376667 1.3244834818214544 0.5039454755834161 1.7477369415704418
Ni 7.292942199472546 7.817827420150608 12.01388603671447 -1.340328419273511 -0.5243695477657228 -1.5394647299904778
