# total energy = -381168.3640522351 ev
CRYSTAL
PRIMVEC
9.27473095724860 0.00000000000000 0.00000000000000
0.00000000000000 9.27473095724860 0.00000000000000
0.00000000000000 0.00000000000000 13.57450626010248
PRIMCOORD
 96 1
Ni 6.972417929817966 2.921345403305731 3.2380487052786893 1.5644314272381443 -0.7245774942803135 -0.0097845901905896
Ni 3.8726267077128784 8.762357483659258 12.854853739927396 -1.9151910906927792 -0.2986346606246212 1.3681822082609856
Ni 8.409862068415581 4.068546119163897 11.973026256418322 -1.1445707952207902 1.637900700071889 0.3572092757347203
Ni 1.9349221442504152 8.432065773727727 0.940928849992187 -0.451239660549268 -0.17673428887268272 -0.6688622029958803
Ni 4.694757387027457 4.4874115073456275 7.556574786237559 -0.8379695714509247 -0.8075109978507512 0.009885377434512007
Ni 0.03250051134286395 8.837464252923144 10.518572261704385 -0.9652036967109506 -0.9371701876125021 -0.5569449105985828
Ni 4.133348662612499 2.6162067630511157 0.3402629729144409 0.42903432809682235 -1.1844267508754633 -0.3565323042723537
Ni 2.8742575955071694 2.506227006329558 8.993584867438097 0.6971129703114575 0.49583775887461706 0.4065826839615255
Ni 3.9543278105093194 4.895212141794113 1.169734601583473 1.8977932069313057 -1.682645094167115 1.7295661841986858
Ni 0.7484429438488363 1.4381304686699221 1.8488609905486948 0.6496385788795779 -0.30684059347418124 -1.1380252807927884
Ni 6.356371766809088 5.662436415324276 8.660833498923115 0.04313796884005473 0.7704295196174215 -1.8962687998669794
Ni 8.738298832205748 6.191031142498479 2.283679843019239 1.2188319678282105 -1.2083873754561187 0.5151338881000677
Ni 5.170291379827902 0.8701088612609956 4.3076384745821255 0.6253179998563424 1.5677926304008933 -0.8647969760564138
Ni 6.606937891584732 5.014587200721688 6.045446622066483 0.10433099540960743 -1.0846602349080867 0.8338123547494415
Ni 1.6833821727505542 0.5617277751512734 8.960409155699775 -0.4159852082223481 -0.8119314955159501 -0.7243142133165977
Ni 5.5728146925042035 0.3548549067354922 0.9684312089571417 -0.3196901957433398 -0.1576651880563736 0.912838295735357
Ni 7.858451503702583 1.1178647426324713 1.1111516925468696 -0.5621729917667415 2.508881436341511 0.7448825243862526
Ni 0.21301366761677146 5.488980401645193 5.198248200597492 -0.13901003484903157 -0.2927905431390183 -0.3412998035933154
Ni 6.397412450186799 4.81021850959675 1.9171953514504563 -1.2504290259082014 0.18258483411618875 -0.9745668830934054
Ni 6.998034736030222 1.826658212709621 5.483218011457041 1.4636788932084146 1.2359470302419424 -2.110127247285469
Ni 4.995444156542796 2.0434272187895868 6.738262513554981 -0.45606047897667906 1.1874279995956323 0.4397221468279718
Ni 2.1177920095969274 3.257600765081752 1.5832762943394851 1.909546490812492 -0.34617230119426834 -1.5160718049878341
Ni 3.88443343990267 6.26966230943096 11.479144991333632 0.8816379588731528 -0.3662155929983887 1.1741713916960423
Ni 3.0528332605364206 4.626513918486623 9.96171928501262 0.2956205563886457 0.7297505538408207 -0.4232758283464904
P 3.0506165998974892 3.853140498497835 3.6457185660242093 0.6082091080901977 0.8769858048131218 0.47114359856204663
Ni 4.796464083958525 8.83703761531063 6.517663043693095 -2.1104864303971005 0.40707607865817635 -0.15766621649763815
P 4.1604494257378475 6.509080207896998 9.329188215645429 0.42885306532395173 -0.17271694018317352 -1.0372033269777041
Ni 5.071107409649092 3.5588254689780863 4.766904589722795 -0.37114542619983826 0.4174180840141327 1.6000543186480767
P 5.611323374398951 0.69720562153204 12.430718449758043 -0.1428188670721605 1.4051513292861673 -0.17138279475278226
P 2.147545345704429 1.4097683421684444 0.18022842204120793 1.0725112582503786 -1.2149064075215592 0.1423892357339096
P 8.135886523335907 3.820187380296477 4.808483207481502 -0.18396423096221867 -0.4974763229193046 0.725060604564319
Ni 2.8349049131181014 7.401476247046499 7.5229909863481375 1.2110353546019272 1.2871472072648413 -0.040726274074768566
Ni 8.495152491995565 5.548014062594148 9.71284394364483 0.6346457050151715 -0.7246970505773132 0.4148618932511823
Ni 8.302748203482436 7.712189000455918 3.830874652489954 0.356934681917095 1.7920668738360686 1.9430387090326666
Ni 0.8867885369641538 5.518001034026855 0.39560714598822033 0.6851015476728782 0.048247779262794326 0.17059140919973845
Ni 9.14029348523176 7.078836189948101 6.920472945548238 2.3283971935080934 1.5205347258551942 1.1000176912007635
Ni 5.705109451306387 6.659126801272049 0.025286625799093732 -3.033613252542659 0.9083074977445389 -0.7186762983045301
Ni 2.756143899955725 4.523870473754165 12.784782221964244 0.08918976889279477 0.49295400956891877 -0.07080046775232968
Ni 2.7502451712261826 3.4560892769385614 6.676797018214696 0.3720633100284173 -1.0210871381421318 -1.1500184485989227
Ni 7.285514289019039 8.55933362848681 12.717615549658472 0.23357006691480417 0.2787502629958683 1.536133865845032
Ni 0.7632519063684272 3.7288498322956434 9.83663006449657 -0.022513864831799933 -0.5231310473729314 -0.3695708826238667
Ni 8.798083746341955 1.2213429131285425 3.6118908407171983 -1.580442200844104 -1.12884695672763 1.9221960612557027
Ni 8.567235699049027 8.41931301900584 1.3458839970598184 0.8600964852569509 -1.791711547379179 1.6762818709532485
Ni 2.2692205378472954 6.688926511033085 2.662734377114985 -1.5087066228720145 -2.061942717160442 0.9301387346870176
Ni 1.836211185337653 5.48325789279908 7.21774104932504 -1.5813130334848315 -0.8183039747011972 0.516218122303182
Ni 0.32319097610238406 0.24342550960445794 13.026543844879896 -1.3734905078477766 -0.09955928505257693 0.5253907899413855
Ni 5.280113466127443 8.18171296775834 11.224269826671597 1.654652979829563 -0.5448134174423714 -1.010544586739595
Ni 3.438931025130931 5.429362432661708 5.514887506928574 -0.7097684542919389 -0.11305243444300529 -1.1762033345244065
Ni 7.070368360812767 0.7328456292191649 10.803325043865394 0.5421438410300082 -0.8439831246348563 1.2180698928512055
Ni 5.055989598596963 6.5577910935692545 6.68657072943355 -0.7151297186038523 1.0067558091211244 0.3553089733882139
Ni 7.433381320677985 3.0450795856655133 7.455851210761415 -1.0913440746861656 -0.960317572263243 1.0499369724942886
Ni 1.2201464728673619 7.027166665180367 9.173366247459235 -0.8336413763892159 -0.278923555348939 0.144395467530661
Ni 1.628318096544121 7.405779722094468 5.064268223225877 0.8607487741289692 -0.02326976916121799 0.9528554595582428
Ni 4.6541340665315545 5.985076472422675 3.4353815856894285 -0.009443661911403091 -1.1030983870086164 0.22421999315847188
Ni 8.514787096901918 4.974307045261936 7.44864381752914 1.0973733115993811 0.09495598195261067 -0.17758840934286188
Ni 7.423642853435817 7.0782982555671055 11.051900811431354 0.3292937802713748 0.07794556343754318 -0.38141955443233666
P 2.289049912098492 2.94631297836851 11.35829154033139 0.5820363063495717 -0.34926713806950815 -1.5909287021977245
Ni 0.8702053184603468 3.0449590141663245 13.047815439756006 -0.2451991665133003 -0.6809255619183177 0.4204756398935339
P 6.006389803586963 4.482421702225355 13.350336751005155 -0.23395907482310674 -0.793800076022562 -0.8557634050992359
Ni 7.721166939780127 6.001613317272947 0.3058787637650203 0.6076331809820696 -0.9086851927989318 -0.8662707323884629
P 3.382290244704337 8.990144869818934 4.156364834334561 -0.8910687652687493 -1.6791792471057014 0.030878434746411335
P 9.143307772711479 7.314145382711015 13.2019670289419 1.7378011705139684 0.5568685488346926 -1.893074718409714
P 3.084849630936388 1.318579189858919 7.20098995819544 -1.0747746003632586 -1.1698084867416563 0.024821944139686282
Ni 6.958663504179741 2.3969614038724267 13.071108925926204 -0.8868796668880661 0.6915303340173574 -0.6626925838500588
Ni 8.973070090587665 1.8425736506025368 11.158447062845243 1.1531587940001173 0.4507089848567786 0.25637652328635846
Ni 1.8476840272219985 0.6199545345287346 11.492692590477095 1.7255130971752346 1.6775399117300658 -0.46812640900227764
Ni 4.062823610317785 1.259165264950984 10.929200761545383 0.26186017210874896 0.4934430333901954 0.3215326482687172
Ni 8.536304472141758 1.1077831103541502 8.643213365526284 -0.21725538891518067 0.058178665223261095 0.17869758324664062
Ni 1.3365443432380435 8.748315541369122 3.2499129407988634 -0.29363746452034595 1.0568750943750185 0.027823964190803695
Ni 6.114319844822311 5.111313367263188 10.71931175070374 0.02531636727760156 -0.03532747165670046 3.11368948916996
Ni 0.6480439839474316 2.8121354492328403 7.485498814938859 -0.21812982110033402 0.14556403391746542 0.2917435899317427
Ni 7.08456797352492 5.544276346119296 3.9101504132065603 0.4259351203462084 0.5879058777564714 0.4802931262717987
Ni 6.413615404731625 7.370702690561247 2.3985881916384044 0.219803352148015 -0.3504758136656287 -1.4344143399163425
Ni 4.855469920715359 3.0153262495580115 2.6389929214516488 -2.1690659306032067 -0.6453438081589661 -1.8175300511041794
Ni 5.68045721708764 7.94645014864896 4.537021114423376 -0.9128141273656408 -1.0184910952801816 -0.8450889561045252
Ni 5.771377402206667 1.1025057885819654 9.21666903765634 -1.687993760073538 -0.3689597314024291 -1.810468773382024
Ni 1.0348188038835404 4.343254367969412 3.02597456788252 -1.5185017545855655 1.9201844301423125 0.989141952694103
Ni 2.846489051770929 1.829616851805099 4.485329330301945 0.5386617960186788 -0.04355320200060241 0.7723748162692505
Ni 8.451180993714498 3.8963607435916496 1.2614922948853269 0.563023769802811 -1.2791744734720099 -0.12005226279960615
Ni 7.14709820795035 7.3784285412400346 6.137006763604281 -0.3803453475315514 0.7524716495874202 0.26029719849700333
Ni 4.077904322447085 7.755409245549734 1.951199296640897 2.0001904756533104 2.070276433837118 0.3595410091916905
Ni 5.845037313480289 8.059880105193457 8.683081722942653 0.5639876763779771 -0.7036286599427882 0.19043312651601396
Ni 1.0588681806063434 5.623501095817015 11.438666356636755 -0.6995020393689243 -0.40182331489966927 -0.07118510478525805
Ni 2.0892258390198997 7.592053413610386 11.30715624005237 -0.46956931209639124 1.208919593810505 0.5330231096756627
Ni 6.6383514044887555 0.5196399746767622 7.16493629751879 2.4855193645768034 -1.4124591758014902 1.1945221874382523
Ni 3.265280242107005 0.8872346515111521 2.19422413787882 0.4022732579528943 0.45689351640093573 -0.4436839596891972
Ni 1.1655368584655632 0.6523891952835801 6.189690016438272 0.6146178398300189 -0.1615696653171024 -0.16014861659985966
Ni 4.609411315063233 3.429600646039863 11.704672125620055 0.6487780306514955 0.6773949230572398 -0.09961019289517038
P 8.450346267950883 9.258360807129671 5.800576109417901 -0.7007860482876705 -0.2600691416465973 -0.2690628605047753
Ni 3.5963510294179093 8.616178452988954 9.71384839698038 -0.6636426064681539 -0.3117010068902761 -1.128727143320314
P 6.873948113903581 0.19362577054721986 2.869066528730558 -0.12465350901704339 0.3327205465647367 0.5616274036759167
Ni 5.656426389826251 3.2754731711538083 9.414082608224229 -0.03531744435437143 0.4088784219742378 -0.5516602651608757
P 7.758191664761781 3.260132766564716 10.102880686370531 -0.4707934143114795 0.10525813520956712 -1.2896522330748823
P 8.15306332460495 7.609610478838409 8.948802757693251 0.1579012153265797 0.15091115716199172 -0.0166589487129197
P 3.1104293382258175 6.562947843842251 0.5801501727542443 -1.7646265182369287 1.7308311669540384 -2.734958023092748
Ni 0.823877111106674 2.8574888823892257 4.818990549899267 -0.47508355704640115 0.4182387801432152 1.0548457226498156
