# total energy = -340883.3503310081 ev
CRYSTAL
PRIMVEC
9.17434570360258 0.00000000000000 0.00000000000000
0.00000000000000 9.17434570360258 0.00000000000000
0.00000000000000 0.00000000000000 13.42758229430004
PRIMCOORD
 96 1
Ni 5.279441505507683 2.8150929597102814 10.267051658595555 -2.1480433056049524 -0.03520817247001678 -2.3885738629979896
Ni 5.051431489578808 0.4666402545447194 6.399760319660638 0.6547512175157949 1.3245811837415835 -0.018338136187555514
Ni 3.0231854709281922 1.8423829472828506 5.34670230423544 0.5731017228641032 0.2892403638939148 -0.3256034759039812
Ni 3.7742249403679167 3.032277247606481 2.9423998516362238 -0.10802952730711718 -1.6768642258192796 -0.6881174516810665
Ni 5.178909024336451 3.144818947417349 0.808714911685669 0.36553990708760276 -0.1549483033458428 0.04524035989503822
Ni 5.172707166582139 4.923935606129584 2.9106969823229085 0.6642501581451656 -0.3235905592390105 -0.21007789733013496
Ni 5.10161516105231 5.19026686442497 11.662835709712821 0.6795091411867652 -1.7322535012228617 1.307272774370123
Ni 5.389808885366225 8.352040002862983 12.383856719726348 0.3366394220031686 -0.327148708903914 1.5813456864949798
Ni 2.425256658384496 5.273193776024418 11.92785595399476 -0.21551192386151272 1.6901277756974054 -0.5308908938240082
Ni 0.9267373656717237 7.699973375810122 11.881208075388878 0.46508607951405706 -0.14825160805195758 0.013566168720208894
Ni 8.235112965764303 9.163822815780962 7.6668539875067685 -0.28550172278708896 -0.4529322177603426 -1.1072653739021123
Ni 9.071061005494203 2.5811746650923877 1.2809203243868466 -0.3581413006306864 -0.14255584321876094 0.8000740819567318
Ni 1.410766675227572 1.309940614991048 2.7300825541818323 1.1662043143301657 0.034738689032765974 0.306320202194337
Ni 1.908961174683802 6.736823031696291 0.7962653244480927 -0.24487854994908795 1.2355868186890462 -1.570238777948541
Ni 8.153828262061337 4.206428370553781 4.038547016935205 -0.6296996738638059 -0.16055202268586544 -1.3219450316703167
Ni 7.897441994602746 4.339768312271492 12.96962126718655 -0.019972586467184958 0.4791584984467232 -0.022227443939632687
Ni 7.080539896733722 1.0773067287838105 9.811722454975824 0.22906677972781198 0.4765218321548246 -0.5286260090492316
Ni 6.469051401111811 0.905048294788633 0.35216001546833914 1.3136215994062859 -0.11523555813725316 0.9907622619063453
Ni 1.9417869839218624 6.599528946942916 9.673485247475195 0.4270779757014 -0.02467513414917686 0.7888980107352542
Ni -0.005911948427335407 5.0556883860255555 1.510952366127926 -0.28293884715591916 0.2658782921292066 0.2700205964323543
Ni 6.809859998533685 1.9820531875959393 6.9918900282302205 -1.231277906901047 0.09474206616959167 1.4978696801575109
Ni 3.7861607642412305 4.950926531444948 0.6480363369471377 -1.0781280902165238 0.08437460689233857 0.047796036437356394
Ni 6.684997152326306 5.895425430566892 4.871056511862861 -0.595779109856961 0.44236009867145104 -0.07860993649441944
Ni 6.524611239218489 2.7243128081142483 11.985178183927774 0.42454543908753334 -2.3876312965790625 2.8961988443155215
P 0.33602876326507436 5.860975762123929 12.817017034178152 -0.22031500167711085 0.2255914195847018 1.1565775898736792
P 3.6496556732258307 6.856282188233122 12.811659216236556 1.2714873892403973 0.3232552873867788 -0.19189865531794695
P 2.7537716324472306 8.832500491906366 1.8734032452693596 -1.348166427260691 0.1576947557427284 -1.2134959003272778
P 6.983475318271263 8.143011708374452 6.074477467619862 -0.5403381552798371 0.0904462670077152 -0.26335064061134644
P 4.679365896049032 1.5876939337954852 12.833573058591512 -0.24194646390395752 -1.7409705693808857 -1.2482189056307598
P 4.364080328616058 6.380821717645509 8.16309710361338 0.21461178064474654 0.013976002564117867 1.7552682169504803
P 4.9737247807340985 1.4812623482810252 4.280538735848653 -0.09129601660252018 -0.6927153554643941 -0.40724422880492445
P 0.05838920634843802 6.220325712388207 3.504478073134764 -0.4593260371018283 -1.774480271102557 0.7226049439349748
Ni 0.7480412932354208 1.0285175578704495 5.218052288085783 0.18450107730229515 -1.4605835421125426 -0.8294036841587845
Ni 1.6911622056196454 6.408023652914053 5.05079845971927 0.9587391720325295 0.791046938757457 0.08012688735957813
Ni 6.422638385758165 6.030058955041049 9.55442334011109 0.9322336695428332 -0.17856002922751182 -0.26402555519118404
Ni 8.835665641204054 2.926827317091594 10.71155880392093 -0.02085447485150602 -0.7549003136335708 -0.026637400081870256
Ni 3.2344247827522112 4.2841626024358614 4.755418470347733 0.9814633531029225 1.054186748909578 1.5923255825452511
Ni 1.9555760256448376 1.1227289147920934 7.505844218885204 -0.8989666799595872 -0.4376428957014399 -0.18125763066433298
Ni 1.3942345041132667 1.435537408861659 11.568197745711924 -0.8726439829046583 -0.5772782228392962 0.4976215902479172
Ni 4.156886903285607 7.111705149383719 1.9590439283536096 -0.08208092576215541 0.4035793783588275 0.8464986919678582
Ni 6.128426290605745 8.15098421486631 8.390224547477219 -0.8835416036537687 0.5771278133043608 -0.4069061287392154
Ni 7.146861242452542 0.8419838418254058 4.638048312347376 -0.07639904488602972 1.560034069501397 1.37777653681764
Ni 9.187281617967022 7.172870512768333 6.7245734451969446 1.341484130144509 1.0561896382722198 0.10302333234177741
Ni 4.596026138889016 5.417093389746883 6.347648200701993 0.7416406204101872 -0.8461292244435814 -0.7198062981439152
Ni 0.09464989065042508 8.144424557626174 9.590999621908265 -0.6701410697083039 -0.2351330405265499 0.21724304762000649
Ni 4.630420761257235 0.46946595304816335 10.54363341344256 0.023686030763030174 0.1290560089601132 -0.5376626653302031
Ni 8.452911934828458 8.115974911330136 4.410262150455787 0.00042834578667023005 -1.3465869985887131 0.9818436192604769
Ni 7.085796796871622 6.21718808612789 7.13403458960298 -0.29658909094950214 0.2034562782485593 1.9639019256349206
Ni 2.086374673578607 5.571928823651507 2.7520101580554734 1.0547210241464933 -0.9417300390690427 0.6236228715421066
Ni 3.660297914342698 4.5722278859087115 9.848903326160588 -0.18090384686934005 0.9398004261464976 -1.4970351000713573
Ni 1.3638765938928246 3.485407360540254 3.970804565053451 -1.9314078096619576 -0.8859725816927645 -0.6485006086203928
Ni 0.7398128224960087 0.27895057093008485 0.49252383632318214 0.4905626265186067 0.00424360576770237 -0.2741194490920763
Ni 2.238145875989236 5.647085064366484 7.550692090847008 -0.2165773890115496 -0.44966640252487716 -1.0090091239316752
Ni 5.585121532898105 3.466333895642007 5.1230794604635355 -0.36115257665318445 -0.5433664005831997 -0.6900095264974568
Ni 4.050547061229051 7.725826682247476 6.167543866186863 -0.13144173558347041 -2.0910643171167473 -0.8943659479627822
Ni 1.1269858112388402 7.9206072177235125 2.9504026334691917 0.253720316610434 1.1255610868875068 -0.625677182967974
P 0.04139831794461248 5.952957753018505 8.554014142873275 0.6145070252837675 0.320916354840957 -0.7884580949843583
P 8.758720403059948 1.7744010449759677 8.461673435058295 0.36375247616987677 1.786151793903214 0.3094818877517702
P 1.8355205366316296 3.636600579166088 10.521048008975745 -1.0773963542568217 -0.40702517081558287 0.6805080147649248
P 3.996712000130969 6.198261410762289 4.117151894232794 -0.23236241975994823 1.687263566775733 1.0385642118809728
P 6.964585340288823 4.216052259287913 10.680554102322263 0.34711512472351186 2.2611499903246606 -1.2053120789649048
P 6.59940050610185 8.312883895029545 10.57767207119411 0.08933143667698164 -0.8798106758564266 -0.46583529897525583
P 2.120273881274144 8.509829576112116 6.113860181794323 -1.443642800493146 0.5384777050323306 0.17408142463086795
P 6.808740728347256 4.491126669121553 1.5290258273350192 0.833863776812667 -0.1175724338005459 -0.2943424610071705
Ni 2.9241392337750063 1.664584125864849 0.7740854260652156 -0.15879390234417814 0.1131650487614696 -0.5042691774714219
Ni 1.1985365340581897 3.359773869286481 8.457147730279887 -0.6321761604287565 0.13358269318587315 -0.08099077802177018
Ni 8.193002718586355 9.06710686245854 11.973751536245828 -0.3743310230166714 1.006417709055415 -0.35260982928949597
Ni 2.826129697696136 1.8645848640956248 9.719072571707706 0.929294384408851 -0.3678803822953213 -1.0469166976107258
Ni 6.499629495631223 2.2370174314570166 2.677312634630016 0.3248028343795567 0.8476538886182241 0.30169787293097716
Ni 4.615833551450495 7.03672322123876 10.531843461667313 -2.0451978936019355 1.3461892489296623 -1.0650033799091077
Ni 7.529312195417053 6.540611298276951 11.617262146998996 -1.1042049898092339 1.0579153627140747 1.2570673571603252
Ni 7.964900959199577 3.9642439903787343 8.657017275365861 0.6448442428147282 0.4281922918115013 -0.48110816597392625
Ni 2.9286163145207227 9.048501289195602 12.431846805121365 0.7556644454931051 -0.5541953728779037 -0.05480769186849916
Ni 0.028211113305487857 5.326184797309783 10.696533060385407 0.9258637614607474 -0.6382146533133525 -0.6995251792973759
Ni 8.706289016867798 2.7347532136237263 6.142621755847235 1.047096160611384 -0.8864569775283506 -0.08648162593301234
Ni 3.392764816748769 3.0901490208523406 11.942827568890117 1.1902307591517503 -0.4427611907646117 0.5438703368028117
Ni 1.2307109647451313 3.5527378842960182 12.970668977475814 -0.756090220176614 -0.3092191210086868 -0.07848343821888419
Ni 3.293580964408727 8.28269112303333 8.416743911418955 0.6762433259512999 0.4917810723067401 -0.7452525061311617
Ni 5.693736612710682 8.234966176231657 4.054055331059301 -0.34500450613841227 -0.8919126013262832 0.03177394997748721
Ni 3.2076815647731878 8.956014709282554 4.04961127795843 -0.1472483635984238 -0.2977663990870549 0.8466804689613613
Ni 3.4920495868925054 3.2068100019230994 7.42423107360294 0.566107036713825 0.5466530417542714 0.48270482103708473
Ni 5.693883402243328 4.207437548590725 8.242212991971495 -1.228052200874898 -0.5303661316687899 -0.7368195448724602
Ni 8.353590467301562 0.3050167221897766 2.599190327921001 -0.8554193914962558 -0.8778862051402043 -2.163910354544196
Ni 4.676017259835536 0.4779256173014936 2.18523191920851 1.3939379770688511 0.5675501969182548 -0.25163772304979243
Ni 5.780259867859968 6.324803162249312 0.40008037583534883 0.8821192693849453 -1.1806112337841153 -0.8678542748254988
Ni 8.243663456040958 7.707945882301981 0.4790742453944519 -0.10176734844748925 -0.6894109736815094 0.5304255241518155
Ni 0.06775713083501807 4.906697010389418 5.99033954237608 0.31983237774815887 1.5561126229598037 0.7284179510723262
Ni 7.212613778732357 6.442436623973854 2.632437239630841 0.08846214669815088 0.35720799018313965 -0.585029841760257
P 8.681885257065327 2.1508336271019752 3.4735137386575756 -0.3736175418894146 0.4200719766972121 1.5155241600144802
P 2.1736869224658677 3.592040781662103 1.5417818377219947 -0.7760113845805732 0.5576766465582847 0.5095376249592127
P 4.896770368244202 1.8040708792621296 8.274304853546322 0.4244551933665722 -0.5745628807906621 0.7326664419360349
P 8.456856903518332 1.9891633055835012 12.744709427831095 0.6388368602783836 -1.0026207039068282 -0.21222733957297
P 6.234857876120205 8.073745397656912 1.4312456499009087 0.3600140921733671 1.625282754197562 0.8048843588611816
P 1.7292999610703488 3.502746874084115 6.2646919311960145 -0.2952983971625366 -0.006506690770266213 -0.6628028841756778
P 7.071457294401223 4.2273550533016895 6.4431182778660805 0.049403233023476205 -0.5476287754039795 -0.43578167412298496
P 2.223375179266688 8.782307646087073 10.13889889198774 -0.5458449440306793 1.11906905140526 1.6329135312699425
