# total energy = -381168.61875432555 ev
CRYSTAL
PRIMVEC
9.27723688127440 0.00000000000000 0.00000000000000

0.00000000000000 9.27723688127440 0.00000000000000

0.00000000000000 0.00000000000000 13.57817393321870

PRIMCOORD
 96 1
Ni 3.7231870949137575 8.478921378457194 8.53915105579501 -0.9163473373298798 -0.6837522327338353 -0.3293745129106392
Ni 6.027597074989775 3.184829038182068 9.020320513441455 0.9435010149265364 -0.5147258540283717 -0.6619055691723892
Ni 7.660845352252522 6.578702055208443 -0.04957662621693049 -0.4504197357511339 1.681741608516239 0.8655207415963159
Ni 2.4546455542740704 0.7694530999400425 10.07315887459713 0.32305936932588875 0.10890961591922534 0.7909078420764315
Ni 0.32805515684139747 9.059694962250358 5.06968247396977 -0.8378875532600797 1.4529627923424913 -1.1282059807095215
Ni 6.725783368863866 1.501446572765296 6.755793374755916 -2.513987647219825 -1.3750444825984578 1.5230382090033383
Ni 0.9296719087555164 6.9512016708191755 9.362313790986518 -0.2165827883281883 -0.20807243686433194 -0.30973128475841494
Ni 8.440578558390468 4.506074561594334 12.667865657371895 -0.1075469312437438 -1.0381284098951347 -0.502587933114257
Ni 5.186058916690076 7.038481915481104 9.776040519613103 2.6385935908283846 2.037239815097124 -0.48863944135396487
Ni 5.4276567197816945 3.5274837827173937 11.230874543347852 0.08083908293525434 -2.0984390123142633 1.2353096537682597
Ni 6.443170901481176 5.579719909647094 11.378319524689365 -0.29860637848984706 0.5403733793931468 0.583694153667969
Ni 6.832360266257174 1.3394474621906145 2.526354884539679 0.9128930602326922 1.2948759433676664 -0.3660518137270148
Ni 1.259783829015446 2.3622535520857038 7.257208546467595 0.2890426460608119 -0.3724592599152553 -0.29027574713696463
Ni 6.709483263647985 6.127076886162167 7.0642485132196295 0.6553903937616906 -0.0320112627992739 1.881482128476108
Ni 1.8434333562445353 0.5831838099372071 2.088133467352199 0.3893244111017101 -0.7377356289288263 1.4299305931133761
Ni 7.586877942527868 7.311909918342608 9.455500852376366 -0.3234501770064042 2.3739319447150984 -1.1549305411885593
Ni 8.175258860570901 8.308637695339666 7.235088830550563 1.1438226042008557 0.16579501625235962 -0.054631314191634944
Ni 5.934648438588004 8.5356238503294 7.602637184833056 -1.3818357944886783 0.05864043535102803 1.5816231085260828
Ni 8.358493566386988 2.0617916809264893 5.500056276471926 2.2181493183934187 -0.47173983738514885 -1.334756067392056
Ni 8.883251193837813 8.999856784309303 12.835637992463278 -1.3796102475922691 0.18381664964076083 0.31786676938135583
Ni 3.463220362779768 4.553778113683156 1.4272565093552783 0.6561462980911087 -2.0618966944138557 -0.359072297085388
Ni 7.615145683331959 3.347106465863452 3.5878015938056658 -0.5003171348022093 1.7041341172788265 0.05022624314540382
Ni 4.775439134697979 1.1350977652126903 1.4327013196860698 0.7544251737693651 -2.6356674183205255 -3.2543164907971245
Ni 2.196293061358956 0.17806635714462135 6.458349388757046 -0.15695864890765227 -0.10276133692964239 0.46629526933080984
P 2.0663839131870816 1.1268131926698435 12.301363775410604 -1.5809227400249481 1.375437090051186 -1.5859973263343783
Ni 7.449574836554595 5.5240008248852375 4.778946857966122 0.081210350231744 -0.20510718358842098 0.5234904875948792
P 6.398862818094126 4.859787772502641 13.58523502228747 -0.11303495094150856 0.12849936512569482 -0.3350430240503262
Ni 4.412337360056905 5.056465194572464 9.849336257386916 -0.4862493438552335 -1.795817342017436 -0.6938121880729986
P 3.756585147718067 2.9419324219258365 9.767215084159563 -0.06527311017619726 -0.366246189126008 -0.5425122801130204
P 6.734661684567678 9.06644879070634 0.012954733593316068 -0.04272350701045545 0.17641367230847038 0.3788440803956766
P 5.628518175688947 4.800571169433223 3.561093356522797 0.6690946307216606 0.6532126693840815 -0.767365278869801
Ni 0.3773191401751321 2.1742781782187817 9.609599468015448 -0.275492418180203 -0.32417522809788685 -0.7368879362165502
Ni 9.27233850900802 1.8881867470023102 3.115878758167571 -1.185291927089236 -1.1504444803927478 0.0588594933403696
Ni 7.180804006611914 0.8304908246109851 8.96650975630789 1.8861962461223258 -0.2430867481559878 0.4739193615349709
Ni 2.7584379534768257 9.129636051164717 0.1385583161245012 1.5000522896311264 -1.2039560791576425 1.137040548282016
Ni 0.4647895681933078 1.8121226817404952 0.8296456683302983 0.5021269343174384 0.9591729171358385 -1.7007808845358772
Ni 6.215052923590853 8.10294279901268 1.9611503596954585 1.2694135374305042 -0.8525608390015382 -2.325782381593066
Ni 0.4441903914025609 6.95277880109049 5.661731611479144 0.3646528764969591 -1.2029235241280702 0.41090393704469874
Ni 6.438383847245893 8.089583577890957 11.609284686581256 0.49677801130069926 -0.22354790679211178 -0.42354373729589634
Ni 5.270286950415167 3.161107143454118 2.3141009817314018 0.06210396841959626 1.0247267917772482 0.7771372706549002
Ni 1.9924072262255363 4.4512924777583756 5.934965720089645 0.37699854254650556 0.23587711778142606 -0.9312718198501962
Ni 3.8176850298761735 8.005225662849405 1.9418416465561226 -0.025387586835169177 0.5521839988748297 0.6686847968777516
Ni 1.7350195659469905 7.381535581202703 2.8761020766774754 -1.5542588575805167 0.37445212197556804 -0.13975359788327543
Ni 0.9063841887140226 4.486982008074537 9.926445867246244 -1.4315197919773668 1.1871917152151104 -0.6228163164804112
Ni 5.512654764168663 2.9498459049930803 0.06786855419311302 -0.2932212029185337 0.38860218822370496 -0.8086505107718331
Ni 3.0809889256713356 6.854189604659546 10.442566387152398 -1.7193635326340713 -0.01735468922836366 0.5006596057432926
Ni 1.554438149881467 8.203702868875904 11.993981085531386 0.5138383092170957 -1.7665332483413383 -1.2339482546443588
Ni 7.610043203042412 1.8656523385962913 13.573259037186057 -1.0847854476320413 -0.25913608830936663 1.166330812605701
Ni 4.011857597985673 1.4194357986569357 3.327453567235494 -3.0952690776812433 1.0110436378632006 2.5537173617092797
Ni 4.645557818236776 0.1432535257145737 5.496784195020793 -1.6366889391519748 -0.7064771851351769 3.085039172423119
Ni 2.501857412807718 4.526465928278743 8.17057107277034 0.4700151413845583 -0.25422373860941383 1.1427252573716191
Ni 6.6383454111748055 1.1229353076497877 11.538623684084227 1.5361212674395417 0.7730541017244622 -0.7980835338892642
Ni 3.077825387891816 2.261280105774008 0.2814620900083187 -0.967425644062934 1.4866337022323752 0.5042136416431381
Ni 4.850287881927193 6.987531330480753 3.762919645066618 1.6535643747510747 -0.44755089884377114 0.6966643128098131
Ni 6.444989239911634 7.683713741186585 5.627949481067585 -0.1205644265493343 0.85763131154591 -2.6578773787586614
Ni 0.596013300832507 5.221516516083984 4.037904368278278 -0.5180826863157465 -0.29275017681938614 -1.0955442288104422
P 1.5705063241750958 5.743769289574485 11.606134136933383 -0.32031651647342896 0.5087115295134917 0.2707356202215079
Ni 4.574113816946224 1.1734220308056358 12.372771595477285 -1.0527327900718708 -0.8619602779385671 -0.36329379136590334
P 1.575163497093919 5.073006507947487 1.9766563334335483 -1.4493236529280071 3.601051092252766 0.6118649596752301
Ni 6.664479387494178 3.9045014126935977 6.73022530988684 -0.8199528231585297 0.9266235224449075 -2.2910822591077187
P 0.30116137482072725 0.45212799528571845 8.118363422171381 0.3482152997662261 0.5660039354770575 0.27644449768082713
P 7.2674997853497665 0.3675019680980431 4.820632266484345 1.1408280403489062 -0.8912561986892069 0.21286394471570436
P 8.15594365336574 3.588129080267886 10.575781942551897 -0.565975139121651 -0.09547868722530009 -0.22754880042138878
Ni 7.281025996735513 5.628982037533451 2.2025969438257693 0.8938830947890929 -0.23722180473477855 0.9165825932691377
Ni 5.608061868346306 9.194567432158427 3.691253917814392 0.13839734096569714 -1.0099910282289704 -0.9116350194558752
Ni 8.994216224280132 3.9833579262593286 1.7276599339220853 -0.8317192196658385 0.3357829875401443 -1.030433098133406
Ni 5.008984296169005 1.0677171936799958 9.558980080372072 -0.544972311617739 -0.7863636743491748 1.5295924651820882
Ni 3.476310544031679 1.4332588816231637 7.922945848871232 0.009393525399758016 1.4388227533966833 0.010288012189569378
Ni 2.0575241519570495 3.1151013257161817 11.309206893029291 1.4091128850370764 -0.41245405514063804 0.5300041203436808
Ni 4.824515717846535 7.712241244623599 13.368961292734719 -0.16741583968523427 0.2630660194913921 -0.43683016999215735
Ni 7.995187692534332 7.6018977890529165 3.649120418754378 0.14894734856740155 0.3061307118913502 0.556881404350499
Ni 1.4872802320341347 4.529137772503087 13.398045430385137 -0.38445577015549914 -1.5250855784506703 -0.3811377615258597
Ni 8.455347919519486 9.214819640289486 1.8924579868665057 1.1106173210934809 -1.21254870592266 -1.1519660592435965
Ni 3.9181389509220246 4.8188566033435825 12.709252338862258 0.35993490219599944 0.29526317304922695 -0.7582622881272683
Ni 9.197833019543738 5.322796111213053 7.433479758273985 0.4611947148794509 0.8838457651577487 0.43421047298112314
Ni 5.820733246814638 2.3138634844670154 4.728599293363625 0.4599778117532143 0.42574640137417 -0.5151721975371708
Ni 7.375941407357982 5.19304467606831 9.184494208343173 0.3181986987994778 -2.1256166011703197 0.018533540027813242
Ni 3.8643309769595255 2.226648180463317 5.804899786614328 -2.1525280808491836 0.4884514937128749 -0.7224041407780784
Ni 1.726113418532508 3.1648087609732625 2.460976340727865 2.0871156168816443 -2.7357872038622624 1.093238720605717
Ni 3.07288989786629 5.660979227567357 3.6564939666346183 -0.4205214055298048 -1.7150631054865044 0.11153265536436921
Ni 4.920238248078443 5.027464552054056 5.465377964976785 -0.5824921629400678 1.3257744327187362 -0.3041113674684762
Ni 5.163487399336496 5.909998820171046 1.4800476981546233 -0.24652045642788512 0.903832749802637 -0.19366706007227938
Ni 9.196274443746203 1.9782594399681552 11.896028307551102 0.17408682394750663 0.22156044404843778 0.10071808124736849
Ni 8.323852363839407 3.130084063293671 7.634084234719381 1.748861799203504 -1.6285277434974212 3.343204412178784
Ni 3.0348532266169377 7.4036154050011085 5.40623186890773 -0.2664791589379991 -0.2585262226395096 0.2367662052545987
Ni 4.412420855188915 6.281181068143386 7.599554359014481 -1.1892696807900616 0.12933497365311275 -0.49866854345519274
Ni 1.614758744140806 1.9728786425719054 4.716731851933827 0.7674822640636395 0.30747282774154144 0.5067294660864563
Ni 0.11686720855179115 9.04167856820981 10.265900892778179 -0.9068386265084963 0.4372130072528728 -0.5674586656457131
P 2.4692108161915054 9.234069906836414 4.092176204085281 0.10523319550890263 -0.3634359733707224 1.1996469102593275
Ni 4.561617378855279 3.7556017606077177 7.198835244231485 -1.6900861238261926 -0.42645371185383973 2.5627378200403346
P 4.166017443388232 8.536579405729078 11.228959721653736 0.5748194768861584 0.25263145442162943 -0.41007449916486793
Ni 2.4926729482865326 6.506154062727971 0.3989239694447643 -0.168944874735251 1.6684721451008429 0.049152550465250834
P -0.18944952680875685 3.9654714135352434 5.7344159793419 0.8690547228915033 1.4198343852196385 -0.8051520107002714
P 1.9647981692406402 6.513269703422666 7.369580933746139 0.22570403390316612 0.289560723347811 -0.4746384990891826
P 0.7980446163115984 8.036619832485455 0.8100289509262116 0.7740244360575315 0.24301964236347826 0.2251489327306445
Ni 8.5279515754213 6.74454194185562 11.391259414703658 2.5272146874330605 -0.09466364752317245 0.07668443733693245
