# total energy = -340886.8317422623 ev
CRYSTAL
PRIMVEC
9.11462655115314 0.00000000000000 0.00000000000000
0.00000000000000 9.11462655115314 0.00000000000000
0.00000000000000 0.00000000000000 13.34017727818755
PRIMCOORD
 96 1
Ni 6.716039659971692 2.1167535272322233 11.428422813392427 -1.107204952977822 0.7736297717222741 -0.8236798943011299
Ni 4.924167881662617 0.11688323655217671 5.930789061311994 -0.45218556940230514 0.36418982081761153 -1.12840729808705
Ni 3.2854400587291117 1.9019673524658107 4.833532946663266 -1.042643781266985 -1.789986594268272 -1.3903178638177605
Ni 3.426953750620617 4.5611505352337325 4.693661710476955 -0.08418383103777115 -0.18192406060373828 -0.3120704744145529
Ni 4.001311942978159 2.8630591495481093 2.738618064656603 -0.428849465779526 0.08566247246582666 -1.4087452172850126
Ni 5.639164761762394 4.7017254205900825 2.454646405562504 -1.2955390308729624 0.7473317572576936 -0.5644309345629828
Ni 5.691546520573452 3.3734873512495254 13.165420893990333 0.23069171692574464 0.6640642673866047 1.1252903497246232
Ni 5.857505640885221 8.134466959073066 12.233182358730252 -0.14658347632091528 -0.18527883600858414 0.6104241134636454
Ni 2.053206350891403 7.267565712809189 13.480249209823418 1.0569735676260956 -1.1669368216208162 0.006523145830498443
Ni 0.7977494860544436 0.15298991818679017 0.18486376724930428 1.7203284676505015 1.8923465819944378 1.264728473250009
Ni 8.483420436727728 9.0478072276342 6.553188627315147 0.09758082116996743 -0.06793934415445073 0.46174056008059183
Ni 8.84116041438132 2.6874020665819183 1.2697230783207016 0.6629964882437227 0.4031762293831379 0.5856852159560687
Ni 7.308390125148622 0.7988851685231851 4.6276408244891325 -1.5805303896825362 1.7083406991610062 -0.32617863168116085
Ni 0.8721786150391687 7.832581412947951 2.3828887736210222 -0.6429521679983379 -1.0926193418541634 0.43531604734047613
Ni 7.784510872497365 4.143545690367502 3.4944995136310752 0.7328700733064089 -0.42471847433028787 0.4072912799927759
Ni 8.112008519241773 3.8572643849043895 12.471838828981312 0.0422913045690433 0.5267529603962348 -0.33202891981435073
Ni 8.776765577770894 7.33390196487581 9.106018701589777 -1.58375712414995 -0.09496035282798485 0.7104094303100476
Ni 7.084115624138551 1.2486856087693181 0.2300230959782526 -0.6086742206520743 -1.2580685447313302 0.5704773978673788
Ni 2.1006206382300356 6.530903365388396 9.323356971791565 -1.19238585782154 -0.5819509457246171 -0.9342273029340942
Ni 0.6389599309907654 5.497960967173756 1.4825468739898424 -1.0182638097607237 -0.09710182465101987 0.4038997378127237
Ni 6.575473889241897 2.112323818726538 6.640112997843996 0.02971629611751011 0.1060070975604497 0.3821037249835548
Ni 3.8832957583452075 4.847595903974834 0.37461753164531675 -0.12611286717138925 -1.3558154591655167 0.060387499949121806
Ni 6.163027923005745 5.9221101139064105 4.66088460192285 1.4484407361024216 -0.10018380601045328 -0.45563110474874435
Ni 5.225688842725537 2.9279006028597263 9.184111910449575 1.5990541595183365 -0.44107660397333714 -0.17881559688174364
P 0.45451908241360883 5.978055691700437 12.425428062026377 0.15976089424313777 0.03438439101714078 0.2952474893199431
P 4.211941848035534 6.447686824942084 12.431084599266352 0.735933542723081 1.6110853796512579 -0.3993247168475316
P 2.6338809794514964 8.676039839712603 1.7104107149372374 0.9637764773461208 1.4595833829828024 -1.5747209820896106
P 6.739628313495794 7.807780514092045 5.589201113376354 -0.4129150539374566 0.296282872562993 1.087939419879991
P 5.015642273767677 1.368068987385506 12.730624951978891 -0.8995750029675477 -1.0083797178777925 0.07593393232415309
P 4.205944423762404 6.156246640848893 7.899239411331961 -0.09123148191317192 0.2058569172702519 1.7672593278740854
P 5.110443504565278 1.1686044998578942 3.846613032312324 1.1014672791630966 0.4874593050029347 -0.9100026260587748
P 0.09884903645063527 5.922976003429127 3.7104231937915406 -0.7932053798613565 2.431237463304787 -0.2820777847072045
Ni 0.9914890766429175 0.2377404502822934 4.323097453260606 -0.012988441839867953 0.6953211685183573 0.47956190453272896
Ni 1.9113371885642563 6.915239823329211 4.760429084379624 -0.750323750006482 -0.3187563710751607 -0.3205887962982092
Ni 6.05470058640066 5.450829233258325 8.945762603113414 0.12236214187970539 0.6161887838615646 0.6656848337091633
Ni 8.832401258262054 2.4345440966956535 10.088082342912264 -0.37466192399352893 0.6022330930124209 0.781165675088003
Ni 2.3736948498150863 5.504851624849266 6.837254167062761 -0.2917237924374008 -1.468061852767459 0.591618293611052
Ni 0.6019080625824079 0.3333146014117502 9.114796086962153 0.39133655643573245 0.41676708069369517 0.32091789750285377
Ni 1.6683230153572932 1.4738806870614356 11.325383783114502 -0.45404987630455346 0.29810501337339623 0.6008441830846942
Ni 4.641696490099457 7.173092608567565 1.2584118267660607 -0.9380865287791844 0.3268206361405339 -0.015068207187032114
Ni 5.954157140873467 7.8740347345196735 7.625432383771896 0.05237491405729044 -0.021853605539981717 1.5190553130961904
Ni 5.448195106183957 3.348066657787886 4.566916447992368 0.7859368712244013 -1.22718471066828 -0.060086423768935235
Ni 1.1680302783849352 7.52714116246642 7.216542033354813 0.06065360912631489 1.0307778830673344 -0.49729891680117577
Ni 5.1845089599504615 4.559081515005769 6.750903106544215 0.1532056096231232 0.3669265030224842 0.16026354491116915
Ni 0.8851769839691234 8.15003474122885 11.406878570604592 1.2935469401435982 -1.8456543201442213 -1.0880548624119326
Ni 4.943235680415485 0.4076106568487736 10.464768894785546 -0.09159889255491965 -0.19627595845003615 -0.5861305310236035
Ni 8.281394739138188 7.942330631295601 4.19107026468745 0.9212216347030456 -2.5256961939060054 -0.5032499921782881
Ni 7.410227847646612 5.986395574998178 7.007435182394763 -0.02298720492379267 0.770308420658525 -0.7928845061868279
Ni 3.0102421391567673 5.885660722313332 2.3369993633050257 -2.2055802234791564 0.36450298118265606 -0.03614045447629905
Ni 2.4668463332062487 5.504231830243533 11.599044065187032 -0.21574229470476394 -0.14909801521265292 -1.1183622551462222
Ni 1.1682946025550274 4.2045316566463935 3.682889729894474 1.4919294034136756 -2.316829286164835 -0.4512430029833777
Ni 1.8332430682418026 1.574059547526432 2.511728577287928 -0.4351900632855731 0.3099251459367759 0.16129532860979318
Ni 1.2328352731903325 3.3673805514577366 8.462354711834024 -0.36287444444029765 0.053720372341591355 -1.7757632515800383
Ni 4.008348434678549 2.5814536475076646 6.807946085375454 0.05222064786761329 -0.033557781350787366 1.9707865685698962
Ni 4.172393483413787 6.678797295868336 5.740398184519793 -0.2393735609704587 2.0927082804780732 2.428710583117875
Ni 8.517800808092842 7.610758746481149 0.28999825017220426 -1.2449888287292366 -1.464421170691078 -0.18126637241508137
P 0.22117735090671417 5.644232494126923 7.953293704115843 1.1667475884281455 -1.0268901179771541 0.17614473491779986
P 8.458947664427798 1.6767996180533578 7.88337813820111 0.7328343349724669 0.17623472352844485 -0.07557269232999243
P 1.9533738462354933 3.523377384944991 10.523225552195449 0.015786573410295393 -0.21362987634745143 0.1324400949409977
P 4.290637533710611 6.363567936466835 3.7774175218954267 1.3050562263347782 0.6553328010508779 -1.7448236245783886
P 6.99633265578823 4.050239258324907 10.434646876946886 0.7686577724289795 0.34448822862362605 -0.671378798770147
P 6.915276281835431 8.01538436313319 10.183371206230552 -1.0392977476128875 -1.1263108205693377 -0.40964666759883
P 2.448908748146189 8.88347962547576 5.799388959045815 1.0996852475620094 -1.5580373507863425 -0.06233999568980232
P 7.471678659879804 4.4389416223855225 1.181951958984902 -0.8670196947393455 0.08416711886722279 0.48147866193946753
Ni 2.7764975411561457 1.8197169624343188 0.3699708950276246 0.9086003463946093 0.43689573312277014 -0.4164644618516118
Ni 1.7546020703260545 1.2365449261981805 7.098054622528973 -0.33433931311508225 0.7258653598538015 0.10662879030484863
Ni 7.028543746033276 0.9051744746305921 9.482197568763949 -0.08442474340398362 -0.11716259995663693 -2.73034752090393
Ni 3.1316033917353705 1.6288293384948758 9.45028817265787 -0.49337875581116314 -0.28865003860808347 -1.899133008788652
Ni 6.46493169838397 2.415011451988485 2.1997549624918395 0.020083915234068637 -0.24622040868896305 1.0329826040281371
Ni 4.157819195552489 6.914492423951709 10.251312544033492 1.5292610499845984 0.7516026167189055 0.06673426810275604
Ni 7.662301959649154 6.361489801612317 11.54209496700931 -0.3818815816704197 -0.07079686820790387 -1.1672497248755445
Ni 7.883249621966685 3.7890960929002304 8.044700647984397 -0.14627288705903194 0.2919942724899681 0.34155177170312145
Ni 3.253064905206078 9.013235449111432 12.135572911491085 0.44516337244820103 -0.5990384973345232 0.19786849974813664
Ni 0.21683423135330038 5.013801119203586 10.19325601872935 -0.2021910383828905 -0.35935768953629077 0.25989276396973304
Ni -0.025792570225079317 2.4823411983495927 5.6357713862960015 -0.29482351440864707 -1.3353582197524292 0.4471608624942041
Ni 3.9772310996200915 2.680921567101378 11.391123938604434 -0.7716783044228581 0.21897674248166157 0.47307089749174663
Ni 1.3880026756610904 4.051323898884941 13.08524681588805 0.39147745288897096 -1.581811827498121 -0.5985008796634983
Ni 3.4511348548707885 8.325883231352694 8.0892301560184 1.0389185098965978 0.3195426144218819 -2.0725282059857726
Ni 5.915620499799315 8.21164961674003 3.2178241130941805 0.10828380940976835 -0.04148294973513501 1.4216752950831195
Ni 3.5056858948019145 8.568359641592917 3.682568895039741 -0.12565443947773197 0.05072580848964167 0.6289193440543556
Ni 3.3360171214822976 4.2309640736556275 8.960063452178066 0.8840738220081549 1.3378321352142186 0.20353778221877206
Ni 5.045355956336677 4.7586553780520395 11.135766738116814 0.1887403121946233 0.4238581832125216 0.3558787298487548
Ni 8.166295235002805 0.40254839326017755 2.2454721063659484 0.2929720630222051 -0.3384181111701462 -0.015613538167540852
Ni 4.842282076693322 0.4344295340239356 1.5236346990367133 -1.1460406948980972 1.6196690075552105 -0.3880229186814672
Ni 6.242197569261678 5.9433471937793465 0.1134369962517659 0.4422150884531546 -0.6225275815953989 -0.6003381899825532
Ni 8.095766254720926 0.2132266621628677 11.521403853267014 -0.295301225376014 -1.1768954754954248 -0.3394848618717637
Ni 0.1661970120648522 4.727893513429224 5.863754628851265 0.11471208153361534 1.5507025076878262 0.15688305847471046
Ni 7.344119461243864 6.508390237797773 2.268723518707519 1.2343416334280355 -0.6650096620190096 0.33218292889371176
P 8.929189477648626 2.019837703073884 3.5320116706804554 -0.08871257214606013 0.2823222966178428 -0.8851446864748305
P 2.3636505313515777 3.970869090284766 1.7127057779037633 -0.6968273207502387 -2.188483673008186 -0.046106307439759305
P 5.0115406918179675 1.0188238416810873 7.964699747786656 0.31292485199504816 -0.267958571697003 1.4155231594387945
P 8.995844741644667 1.7436736330867195 12.581841433947192 0.2718797611282801 2.837046245214766 -0.2863206191439585
P 6.569768133018525 8.246668011963987 1.0645537460323728 0.788477635368384 -0.19537375835074094 0.22635298034107465
P 2.133342147562156 3.31888162355907 5.9483720873990675 -1.8208303191220063 1.0441368208727437 0.9737546716047552
P 7.0760309503843475 4.147984513499742 5.733834741937604 0.9465243751338925 -0.4069158989312282 0.6515579073894779
P 2.5873325816355806 8.576954734434196 9.91367305232144 -0.9784497630875795 0.947569271458639 2.843033573146452
