# total energy = -340865.1951989638 ev
CRYSTAL
PRIMVEC
9.31704381153006 0.00000000000000 0.00000000000000
0.00000000000000 9.31704381153006 0.00000000000000
0.00000000000000 0.00000000000000 13.63643539939587
PRIMCOORD
 96 1
Ni 3.02625033543878 6.891295482578265 10.602724008034743 -0.07112571230223234 -0.1430024438378763 0.46386197729896883
Ni 4.725231891213061 2.3390065568291543 5.472506314191869 0.15789195935519904 0.43554898928688857 -0.4870011344195935
Ni 3.9287178238974114 7.940674116357204 12.52606090820448 -0.8558065996323455 1.2825161362507331 1.2128994043938595
Ni 2.6805693794726415 4.397737804581348 11.191613346356487 -1.9811020915632913 1.6410541580992062 1.3842652298657772
Ni 3.018191092624088 6.526449367687476 1.0993282368469701 -0.049848805201327055 1.8883436314826318 0.9132512149030594
Ni 6.316778615893449 8.1879764077218 12.479697435262896 -0.24443632020534678 -0.06067777749603099 0.9065082397522711
Ni 0.6289619433460123 3.9283358251050386 8.62058631326639 -1.3528198668723026 1.084772335005919 0.18931675352338365
Ni 3.9822535570918873 7.613347736512388 3.806883501739813 -0.07753675803489872 -0.6797577668624616 0.6430758380603957
Ni 5.529507055944476 7.069316236867656 10.553687475250921 -0.4198724590918963 0.8247366177004184 -0.939667243002743
Ni 2.0909589019672463 6.26444478133839 4.926121329304373 3.087220496345154 0.46938599244099155 1.9817242985283223
Ni 3.3416974845451777 1.4717481765748257 12.742948642061235 -1.4871404666654646 -0.36981282343134375 0.34135173987717343
Ni 4.7882803260419875 4.808134946201651 10.140257635900927 1.0712372766339615 0.7080275603414322 -1.3736051790487698
Ni 9.306794968319123 5.029703562821529 12.690421012996875 -1.6425466834843323 -0.6377873359679467 -1.0524810790723809
Ni 1.3609964779178938 7.101506622907844 12.668780315556777 -0.01728912609775087 -0.9072163215628891 0.29504231528767255
Ni 8.388861187291255 1.4528066266993702 1.7250497123884159 0.26836969109249265 1.4123385910632256 2.255974102550676
Ni 1.2482322978182179 4.0146861862687 1.489944362952969 -0.8246630841500056 -3.718573389541667 1.433533479973286
Ni 1.0427821668277233 1.8895989531682544 0.2141140499423815 0.41410753158366104 -0.7043915062507418 0.6766418469412991
Ni 7.395682961209684 6.974580536359229 0.7135429979079282 3.057213922680735 0.12624579320482773 -1.6465637750635256
Ni 3.5672258447445295 2.8480246061876273 9.833779073075942 -1.0437146457336606 -2.005388989135114 -0.14972459305305827
Ni 9.108034474717007 1.9150251654703296 5.1345268265617126 0.40042823432435554 1.3453464413133926 0.5604665505985961
Ni 7.755572408843343 6.8594405101118685 9.583591293272377 -0.28324789375590576 0.9724467514266091 -0.42016942150702474
Ni 0.7680579523969983 0.5842634261165489 3.1799619909676937 0.5330801881658432 0.26346891135676564 0.4331745755174411
Ni 8.471512682099503 4.160646993129935 2.4974857436277538 -2.419169219286343 0.5240371041269685 -1.1733429822574761
Ni 3.207690444772093 3.9706631547086766 4.410827319298529 0.9369305607978703 0.5404451131713466 0.505291190978033
P 6.369326742453986 5.5245131205124824 8.499590525043267 -1.110099500916798 -0.08756328903296531 -0.11876259745390513
P 2.0249010620179195 1.464154785945954 10.764220053588714 0.28873359946082533 0.12112955502418493 -0.3205949669457962
P 1.8013758662175952 7.793688434687165 9.059160990198222 0.0015730009140747102 0.146410955298793 -0.05654755737774132
P 8.80537030958952 6.1215399648161375 6.380487629121871 -0.7598347748207107 0.912312505138874 1.34560098052636
P 0.4499060654997276 2.782302179812091 3.297344629637593 1.4247282229768303 -0.5727327695604588 0.1053362967456702
P 1.9614799454403358 8.948135370456027 13.578112601825657 3.2654215995713503 0.9993016668359243 -0.6401944027475427
P 3.7477156156187696 0.7191024778935083 6.501852372276162 -1.132913670597836 -0.04190615331548267 -0.008775689310101016
P 8.782366528653712 6.327595703648199 3.0489708782456106 -1.1393373147359926 0.3358534357667635 -0.9003604749833203
Ni 8.020502546919381 8.572910068865161 2.9355973634868815 -0.48395746249726335 -0.6189792021225081 -0.5758944551178921
Ni 3.0969387461151614 2.457854766475644 2.395267525310679 0.05422250878899048 -0.8133093497000832 0.3159489835333526
Ni 4.126742271045929 7.28210819830668 8.474689794006798 -0.40922192135658547 0.12931877570319664 -0.7476811701773123
Ni 0.9649009984022757 9.074362678725912 11.528282857640118 1.420702903867521 0.38880684803534327 -0.3901916441980119
Ni 6.514337210856147 5.898033403103245 6.279619450439303 -0.6414958951677855 -0.1671286474621186 2.391527803419991
Ni 3.2400112694243095 2.8001070503541454 7.531525458594899 1.413996952602255 -0.027191215702811238 -0.6333143877982577
Ni 4.995230501070824 4.486445377805261 1.99034694198688 -1.1781337187779002 -1.9072839200305605 0.24929801917302227
Ni 7.561041853088478 7.990855713813773 6.7641355382323685 2.0901168656018134 -2.1527661650019185 0.738284816564077
Ni 2.145715167888571 8.688748873391253 5.274218194706177 1.4454893667835815 2.4846829847184373 -1.7296273764539247
Ni 2.136733537745955 4.9788511382173795 13.592185064654918 1.1020817728186438 1.0116349915902965 -4.74100727151968
Ni 8.067665422211833 8.920836432366954 11.155477192302403 -0.5227775206882544 1.0962571957170668 -1.5430048819332522
Ni 5.4861921197068995 4.927020424023007 4.376695261347843 -0.8623024917693343 -0.5632171167605396 -0.20966266416958731
Ni 6.752806944777588 4.2263973706366205 0.38207519213116853 -0.720094004587663 0.9230568881395715 0.34086117339400007
Ni 6.413135482008532 5.377415634317845 11.984804024178494 1.300843216694695 0.14721545347795936 1.2573272956899315
Ni 7.69811420024426 0.7525711623315862 13.474461422184998 -1.6908307153017008 -0.4693353417087143 -2.0921778618959
Ni 1.0977061395359435 2.1013101375361747 7.487467022268754 -1.4060239616991077 -0.8599810427250093 -0.9921375449873171
Ni 6.4724105141323145 7.504282422768126 4.574315348799069 0.45617489306735626 -0.29178498469263947 -1.112690915793058
Ni 4.489464099969377 3.4831022570290893 12.114254097869884 1.582543820568139 -0.3317566399895706 1.4287692258154232
Ni 0.14554526671148296 7.45945812544849 4.795498239809088 -1.0109089120575492 0.1437786598822685 0.33474606163519766
Ni 6.8293091907330075 1.4492754671308516 4.808915714465086 -0.4180963410280799 0.14340507859293364 -0.14617055715321275
Ni 5.3083297551606865 0.21763309735406852 3.3901135022174875 -0.0700803017568535 0.37255696183538417 -0.5800089915068979
Ni 9.159706799168202 1.9546878205710752 11.833712321342635 -0.13560949380791482 0.9103445827792257 -1.2372999447254112
Ni 0.4209151522717551 4.356975738322067 5.85796732000958 0.4843945500346819 -2.066847096440595 0.5198989135888789
Ni 0.16448029465633726 0.1230595134063059 8.969665195075901 0.3166632359915578 0.011773595596160367 0.9914127510061507
P 8.396585016532157 3.0864291208030536 0.21692686544036485 1.7191843267437295 -1.210399006569509 -0.46098491286149
P 5.321774249243462 0.8096026503284577 12.695848190961682 1.5478346992217278 -0.2915417583335818 -0.724332468149043
P 2.9187316509514414 0.24709917981157786 3.421395476495325 0.2894216266667854 0.4175571806951583 0.21179436580060942
P 8.140161339369199 6.946564185903992 11.897926318340485 0.43148381807857944 -1.2600845467200943 0.37380111865513044
P 8.295224897941363 9.246150330769028 5.0490541309161365 -1.6053484771674802 -0.5765197474067167 -1.3557529813586973
P 4.400327942734509 5.872113387484201 12.227641588194187 -1.37338534972848 -0.454032907023689 -0.7771192729327714
P 3.4526075729452885 3.5192617036924654 0.427655101696204 0.7440399738802993 -2.169572952146612 0.8970841182248938
P 6.1638766114634915 8.541791142852363 1.497062584352304 -0.2433855103433292 0.30434662340773394 0.2168928633694394
Ni 0.3128486256138916 0.11923486696072076 6.588580073710338 1.3226906515870898 -1.0286438674434673 1.0245640409471386
Ni 7.318919838030205 4.505619853773627 10.1279712503521 1.5694841591707036 0.4908266788132708 -0.5988909160130653
Ni 2.221686342352155 2.0540354577191247 5.233063880906435 0.07346670173058314 -1.1659960549741015 -0.16857232188718066
Ni 6.445269965786421 6.161118766523435 2.520149452467914 0.9638374124910435 0.1317438402049215 1.4353746469470827
Ni 0.22226459978549454 8.670850832412034 0.7728860444508404 -2.6523515638444257 -0.07821938592422012 1.2960128851855874
Ni 1.3379274776760697 7.4579860325412985 2.6519595333326698 1.4982982830544969 1.5997588988948448 1.172397330514755
Ni 7.835205181487475 5.200056390132319 4.620923859990396 0.4893956027936991 -0.019756613801636944 -1.1374652945242603
Ni 5.218587990084253 6.488240171406491 0.5107454292634949 -0.5440104619251018 0.027808794682152103 -0.18627616692484691
Ni 5.015122389405353 0.458353829037394 8.37151657870879 0.7825885235774587 -1.3758605507418498 -0.9126048395683122
Ni 6.098769109973238 3.0863173162784574 7.405211501818453 0.563029683340082 -0.26091580591760877 0.8580236618883224
Ni 1.2766958663718417 4.9187934744214195 3.5687780642276827 -1.9268104200992622 -1.3313293010986942 -1.841582978288325
Ni 7.686766040997677 2.4456214880760014 9.253330044656892 0.7374468940438138 -1.3351106225179974 -0.05380161920148798
Ni 5.231902045554998 2.0737316881356094 0.9362445670437223 0.04617726988701079 0.058353757348544665 0.1544554228698243
Ni 6.648670347159306 2.66804727271779 11.346291179318793 -0.7502931538788628 -1.0509512726914159 1.4167973981655277
Ni 7.298748438384183 0.848907530950493 7.197406022176451 -0.6617950117364537 1.1925280398263591 -0.5018322858951552
Ni 2.608054828227844 0.6195107342000888 8.465921524165287 -0.3067740019023039 -1.126899603193272 0.6584710895695434
Ni 3.989399729622371 -0.07379843986891792 10.513937239939242 -0.32809333220537046 0.8532128707632403 0.3296465356251032
Ni 5.547237390136799 8.776701766074137 6.188596591851863 -2.4145887990045125 0.8266688017261247 -0.21376743036658025
Ni 1.776154628877281 7.395785448690564 6.917954339764021 -0.2830954273384415 -1.4064654201119005 2.8351922227251625
Ni 3.642265314836473 9.0478929575276 1.4959715585331128 0.46971457942500394 -0.12123805557759118 -1.1044754698618011
Ni 2.615033293971433 5.127579107062388 8.998315104503853 0.24481427237005582 0.6054878525042927 -1.5524832537373328
Ni 0.6343993700589076 6.317067444248658 10.336854711952093 0.21891066513041654 -0.3626805832619367 0.5027493983927858
Ni 4.58654769549434 4.624328307764371 6.732185531920065 -1.0807367314839644 1.085416139237505 -0.291486222505298
Ni 0.4668686752898185 6.10060456758537 1.149862018556019 -1.2613485010341827 0.6117716286304755 -1.037183272373046
P 4.305834485362708 6.822572968126046 6.237401130247147 -0.13127127144387715 0.5557195228319138 -0.594755296578137
P 2.3036111077505237 4.60184628127668 6.846759081909467 0.3041921001077406 0.40447977868590984 -0.017166998697589787
P 5.471107825930036 2.067591756326497 9.48877732959673 1.7143259702101636 1.7432195133160624 1.2245840398206393
P 0.5721205230409554 3.946895376188122 10.77208829700722 -0.5350640513650915 -0.15543321340206134 -0.15734559993342578
P 8.274401305235193 2.652003323438137 7.2152966095206965 1.7867763148610905 2.4810273902437205 -0.8674971485963964
P 3.4440265756824773 5.6784586338386775 3.012465769260356 -0.20957858909621324 -0.30918261134379654 0.7651322757742243
P 7.339435968293733 8.969909301621271 8.878233318269311 -0.5027144313897923 -1.2485534061520431 1.4332586290453444
P 5.665265699936246 2.4430965692288553 3.260867471783487 -0.8185978517925322 1.3512957169182922 -0.4475863800673969
