# total energy = -340861.0638502006 ev
CRYSTAL
PRIMVEC
9.33347050598609 0.00000000000000 0.00000000000000
0.00000000000000 9.33347050598609 0.00000000000000
0.00000000000000 0.00000000000000 13.66047752716948
PRIMCOORD
 96 1
Ni 8.593428897963674 4.72079467841575 3.1341093711484573 -0.2808958485839614 -0.18055263417750841 1.1745336601314675
Ni 7.695623709850443 2.2517650768113144 7.298752413429543 -1.543238338100297 2.658000534600087 -0.6216212677310455
Ni 6.167669265297332 5.97830248363535 0.32772894743613135 1.6556734506742778 0.020838791122222176 -1.307368933628355
Ni 9.094626926869326 0.08321068897190925 1.1443478763148724 1.5360004255909612 1.9828537841470752 -1.3491033372526635
Ni 0.794618072368631 1.074786454507559 11.018459586589021 0.5594532788427333 -0.8957039500479155 -0.4460935975719543
Ni 6.941917971787945 3.3295942426807845 2.170540550348039 -0.5216945720367209 -0.05533116847213697 -0.5989533938198847
Ni 8.307124692360576 5.486157921051949 12.44000966813848 -0.012211197354211226 0.3100508728813628 -3.0121879927893476
Ni 5.1566490808038035 7.8916545894032355 10.256490927150143 0.5965599538870435 -0.1951107344973414 -0.10001796985655033
Ni 6.120376570601622 9.077500008620534 8.134172685153171 0.19551465480397942 -0.31474287904039344 -0.8947847806677557
Ni 3.9522487223611105 0.516803591473488 1.1457628304328653 1.1602779215434018 -0.7773905243162871 -0.28411178441809776
Ni 4.326371551290031 5.644369578400869 3.4255012514858443 -2.0076351048568135 0.6968538031127999 1.9026870446884974
Ni 0.5164563863732946 8.606337087575707 4.804922847531449 0.5483013759909718 -1.9811589129431557 1.0999264170385379
Ni 7.785794367725963 0.9717916082539254 9.8014749099584 0.4518765228023185 -1.697455676817386 0.09176550003977099
Ni 7.686728912525594 7.660987201065011 10.883835475724212 -0.868922311078697 -0.3457874070510238 -0.6934339787979735
Ni 8.692345017637079 5.691438269806132 7.351235451034329 -1.1457432182623366 -1.4776628661923326 0.730079140824833
Ni 0.2228142063139548 5.0416233911590576 10.381348494551444 0.16140665737667684 -0.4942693859462327 0.6249117655568592
Ni 8.713475994702618 0.399363333027127 7.533452794342864 2.065915585765261 -1.1322662668218242 2.2169748384693433
Ni 3.1497196004515113 8.97629718869048 9.78943939983207 -2.609717274113667 0.6166145585450734 -0.16040804090883343
Ni 3.416750189605698 4.337189043524554 12.105423419973526 -0.7189017840517749 1.5230055559931899 -0.17302727233474072
Ni 2.5136249233443406 2.29604306055642 12.766891136459085 0.5514499489222825 -2.7038348193253823 -1.6417432137464307
Ni 6.855471368616114 6.086608074566675 9.08237301353481 -0.09530719464444232 -0.15716536560181965 1.2103542693745026
Ni 2.582841940092591 5.962836923124044 9.800709565382704 1.2169717746910202 0.5692733502569487 1.529891998700378
Ni 3.0642156777936465 2.185086764021468 6.897871458109635 -2.3547247756590286 0.13948543182355333 0.7189850877942005
Ni 8.645033656000496 2.6812633858329233 11.916581179350008 -0.09060850361719233 0.053688233552075276 -0.6796659784796036
P 2.1686878564666303 0.5452622761777883 5.397773689417747 0.9074076116380888 0.01066699279554292 1.7311209302803154
P 8.025309886036858 7.35180665942497 3.926061804360764 0.8173989463884246 2.22752870272579 -3.314921763184007
P 3.6945236032309263 4.5842273390063095 7.68802066483384 -0.8927618367004561 -0.6364434203455427 -0.5771769213747415
P 7.678039451550321 7.97292111648347 8.855910353627692 2.0898281307168007 0.6913508710166997 -1.1020316363069989
P 3.0165683112213952 7.856420738509945 3.2383801028105976 0.722679248816336 -0.6029458028087293 -0.15400676536817992
P 6.9764518123985875 4.166097196974907 6.131327531463369 0.3613083855047584 -1.7630535173228536 0.3945725468745269
P 1.6048062401174443 3.218357942032773 11.041217387551434 -1.0868891242386054 0.34811682651514886 0.6341055162409853
P 6.033407293085413 8.671606046329822 1.2493391518946184 -0.3712616400627283 -0.9973010914661274 0.09545040509052594
Ni 5.724740092319314 6.967585015485044 6.593721657034225 -0.2856832426702757 0.3458203171714883 0.7825468717062459
Ni 1.278386778583387 5.7363322625999675 3.773447429231898 1.7171109891544687 1.3519482629006263 0.8780594974932749
Ni 5.722892065173123 8.082860064740974 12.791548298655083 -0.48276421352011056 -0.0630863869375236 0.020976088031034842
Ni 4.668937916677173 3.1330873561357913 2.818457001108572 0.1826282857596145 -1.8565653106297706 1.6241728089628351
Ni 6.023793818537046 5.883670426891754 11.556600424824667 0.2652794822029431 -0.26592174377263234 -1.0884412992170738
Ni 8.574472619509564 5.248490429887243 0.8167029301126588 -1.8702263530566308 -1.243848544477206 1.5406523225406756
Ni 6.0626303890183655 4.651801664957946 4.304170958512606 -0.7316660256959787 -1.9524440615069663 -0.6552320138069554
Ni 3.960434175932876 9.39143128671215 7.155371640602329 -0.653297515788404 -0.668993586367422 -0.23900203656365293
Ni 0.41398794785221243 7.154739764653859 9.36704386181173 -0.4912534819380443 1.7434272584514943 0.3041375927207214
Ni 5.82540157096412 4.688239533537391 7.761063471113524 -0.5076321804063838 -0.8627701754343723 -0.3484582690149676
Ni 1.8035531595669114 8.12735271830609 7.196899983957191 0.04580111749451467 1.1309645172912652 0.14093013468987986
Ni 2.2782347989658507 3.429546377572507 9.051787230918302 -1.4474794006304168 1.5857381591357207 -1.2854063133143345
Ni 0.9517713141701878 3.9391165294586306 13.295892640444478 0.6296215123277028 1.619865182726417 -2.307099203361265
Ni 6.956188848083532 3.5135289445494164 13.28108508959886 1.2773983554081936 1.4637776235698081 -0.09178324065158387
Ni 6.349765273490208 0.7175114730614137 11.64886271342474 -1.261041511316725 0.8871275212328142 -0.5097533405144447
Ni 2.88647840029406 2.603683579574636 1.2342515969359418 0.41931118727178757 0.6311662311070033 1.4433293830177851
Ni 6.235150256544616 2.704830398682078 9.386018807206714 0.9252161005744195 0.2977448018205001 0.17960543977289067
Ni 3.7942797352435074 8.33067303826886 5.190585579306586 0.001078577776159433 -1.8697162461894314 -0.1890457592501841
Ni 1.3052485064962056 4.23310218122999 1.8809658967044067 -0.1760971695093161 -1.7147121499049889 0.004026347550573711
Ni 2.2846375596844726 7.896619995674819 1.2047718305660184 -1.1764858987618318 1.0867446282409414 1.091818700329739
Ni 9.146502355548773 2.4233329303531623 0.7610166454544756 -0.9970244407659732 -0.35371206121473925 0.6827983534609983
Ni 5.134762092633004 3.0364392697781675 11.531122850577406 2.0945039389259157 -0.7559462383995821 1.410531619761474
Ni 8.333818417805558 7.938144605641509 12.89157043457507 1.5958359096913548 -2.201516337822428 2.307011271633149
Ni 9.094962931804998 2.824896162361892 9.440469340379261 0.2974151863952233 -0.2717872014144739 0.33947843411386047
P 1.7945743610081444 0.7057942342769269 0.9618523955873649 0.014616978582226442 0.7412678104518007 -0.6243443230891634
P 4.118888503513115 0.45692191185463327 11.455717742930545 0.5385494388105306 -0.6023991862766399 1.7282238112381785
P 5.095225511869035 2.8816156621972637 0.10492780798078596 -2.336402837421389 -0.5395989631209674 1.2542679400383174
P 0.7465646998324432 6.178897430231009 1.7491698273814973 0.7846250943915132 3.270350918552168 -0.4614122302068957
P 8.27482155118397 0.4934633819559111 12.387402495376906 1.1126029840649418 3.153060534768415 -0.5336093211964359
P 1.124347182519049 0.10849972711637867 9.009986350226727 -1.0785237829930459 -0.18477541400960437 0.10435387822774286
P 4.926831038275193 1.436887773515802 8.331443049579772 -0.32347768781023 1.935281947905383 -1.124279906182238
P 7.116407201576045 4.36182940547377 10.54877135387297 0.9036239762259404 -0.6567800750203657 0.1939863910849111
Ni 5.904997406836435 7.4435920076857975 4.265142118540318 -0.8050676785165811 0.1897690105694538 -0.18643351843831762
Ni 0.15063661274362417 1.9863398445720009 5.196786737063806 -0.24270493933653686 0.49319106528038936 0.1922159294480496
Ni 1.941231181958153 8.612450510710834 12.559361421329992 0.34546833314870823 0.5931211034088236 -0.12153913175777777
Ni 2.450549330142523 5.921284312746049 0.17197852624100146 -0.1580552244059407 -0.6146636054662897 -1.183168710098646
Ni 2.406532683569606 2.4049553270660393 4.385327350641703 0.3194994198887723 1.6773475932136013 1.5525603868321713
Ni 4.452504070752796 6.962246270396048 1.6584363612387292 0.22517747197573476 3.6157984257652696 -1.1483271769394285
Ni 6.727500155477594 1.280206805318272 0.5987029278492364 0.1825462675687695 0.33799979268580504 -0.5501497420536203
Ni 6.654839088138714 2.2808295037468667 4.804362839305331 1.6952766668881967 -0.10139145316530926 -1.598607044678589
Ni 3.722365345539452 0.7195256359813534 3.7053774960001467 0.40033541750023316 -0.2584028096877679 -1.053064976600309
Ni 1.5815098979109135 5.818728139602874 7.86996453745862 1.084328562600281 -1.733521826412324 -1.3296897086127422
Ni 1.1117749978426879 0.8767843459988293 3.3197147642250098 0.2768569026278974 0.14525113066273693 -3.070436849128912
Ni 3.474393703014166 6.004977542139462 5.913606599965964 -0.4096099008236236 -0.249771359265015 0.4162307485742509
Ni 5.824234887159706 0.79056547950562 2.8059305504373437 0.6962868748657363 0.27210678953742173 0.9702826538957549
Ni 8.00497225395832 7.668239307593247 1.5001939034373717 -1.220357917554434 -2.7143110362663574 1.3722766900453334
Ni 6.628798705624202 6.056824970407604 2.50787270551506 0.04203085181880503 -0.7840260273549337 0.6724676609589515
Ni 8.197540415979613 0.049192989276338986 3.3086910022938665 -1.2908678506495381 1.042390013384966 0.04149014882398661
Ni 5.958198188317694 0.14188368416939148 5.507794772215081 -0.16427086629834933 0.014710823847613375 0.270435829592902
Ni 3.782631564140242 2.0275564500143246 9.986560428731705 -0.5770967029561093 -0.3707721020208195 0.5258942119403652
Ni 8.396334002781257 7.723698788919852 6.601726041279545 -0.7329135249498345 0.6536286738755775 -0.6624822676114656
Ni 4.449526693683932 4.380673682282659 9.754783290758724 0.1281185847475084 1.189120556806707 0.17251202326121903
Ni 7.689416952010962 5.896279945449856 5.124345939627199 0.9326224203408195 -1.3729467195291647 2.5410513362058365
Ni 5.007574891011051 2.785051577073558 6.213181133833984 0.9393044603466855 1.065947231879616 0.6718706508049009
Ni 0.6941040625567025 4.30562324651234 5.578611545795944 0.13608643344433335 0.04630916747918476 0.5774592285018507
Ni 4.427826374921839 4.795509109250396 1.3042666254064113 -0.42224327331691797 -2.009707671115126 -2.0284756957512484
P 1.170519860762522 6.536798687543363 5.841657676421297 -0.6137084406418721 -0.2602210938434293 -0.25073295184733596
P 8.105951070597927 0.41499596265922584 5.513996863319345 -1.9055926483710668 0.3831445075432434 0.08948056066033622
P 4.3876831185795755 6.260107956488631 12.750662098066169 -1.5792461236534738 -0.009107618728223023 1.258376562890052
P 3.764739301315755 7.578516656298623 8.360608277996025 1.2138949355379092 -1.8571391808553692 -0.5692293843928906
P 0.05991714680650889 3.7121825292945307 7.624623066902005 1.2624522756213226 -0.5628013693793598 -1.1474288334948755
P 0.8944227384274759 6.831839021473912 11.840382726716149 -0.8279571815202451 -0.8843139630434189 -0.6017780077528733
P 2.8106532864776104 4.079855930152653 3.362211921811058 0.5903078023297447 1.803627067869842 -0.4199915011682638
P 8.761291363742705 2.5338038864254786 2.90951807206362 0.49542458259659833 -0.3602282650667022 0.9791915263496104
