# total energy = -340861.7760155186 ev
CRYSTAL
PRIMVEC
9.31722908310640 0.00000000000000 0.00000000000000

0.00000000000000 9.31722908310640 0.00000000000000

0.00000000000000 0.00000000000000 13.63670656307686

PRIMCOORD
 96 1
Ni 6.745943943822312 6.411641769870241 9.601781758518813 0.4321803299249718 0.23627435321984472 -0.48662909579215546
Ni 2.0721237619960675 0.5187758529518448 13.014790794858326 0.14317573619094695 -1.8891018498048948 1.3652380380309972
Ni 3.0359258740396617 6.9092097463351925 7.50609286111696 -1.7122168942869607 -0.22772389254667233 -0.5736928194808829
Ni 5.573706103420809 3.017803863773865 6.945283261577396 -0.9626981566802775 1.161497909993432 0.5266089786192027
Ni 5.119425972557343 7.5451572068451895 8.015410794983556 0.8169248349654835 0.5169915101340968 0.3303821282395471
Ni 8.34339216083058 2.7745496509104126 1.6710692331091512 -0.1958041610199402 0.20001794199097164 -1.1703633308038617
Ni 9.34639185497608 4.7498487698822345 8.360732455589282 -1.2519953419540566 1.8814741580563081 -2.597970932211016
Ni 0.8509909676239483 4.988304609847546 4.757587660230189 -2.200575571175713 -0.9635841588296566 -0.269560111856168
Ni 5.94451318031447 1.5386192335541604 11.343448566941571 -1.5580021266730328 -1.1365656655281264 -0.33194278785844766
Ni 6.611775847252918 4.682774038826466 0.29412721453557406 2.115964937013169 0.0594917276077298 1.268315933490951
Ni 8.107638317254514 3.230702544788493 6.758201690200555 0.23152089769525935 1.7550483876301906 0.24259978121724024
Ni 2.697831587913719 4.156508997261949 2.590060132621461 -1.0612138309596886 -0.09875761508688798 -0.40682513898963485
Ni 4.754302405310024 7.079929331990817 11.205608550451483 0.8434197959322185 -0.13989860810157195 -0.45634767119979475
Ni 8.971112508196773 7.699310759466065 9.654679394037082 0.09277877179563376 -0.6891628622264453 1.5678152561087126
Ni 8.699878656861245 7.3000209137381935 12.067298492053949 -0.23973043008924522 0.9840311138300989 -4.43944181040151
Ni 9.117104168276343 1.3054183107044837 7.165857475783264 -0.17158616901283996 -2.3399884978901184 0.12189163000119008
Ni 5.662406122819463 5.815339118450714 3.4203724423616513 -0.8144151811697523 -0.24964511809979584 -1.98837368552404
Ni 3.6836968980598357 6.32914702493792 1.8369187032038854 0.20738286699647512 0.2790066019810485 0.06966789680978325
Ni 1.4138242692867675 7.4248531469213 5.181444243473651 -0.26845273772460215 0.1051051545714706 0.8710465565105515
Ni 4.6447690620274 3.65797202898844 3.5975404821586423 0.5867216276403832 -0.23060455652857706 0.9910993335307898
Ni 7.0102830457508025 3.6418345884843992 8.867459268090881 -0.1330713007670934 -0.9026415577080132 1.7952905229796885
Ni 6.5487820624678035 5.271827886139673 7.529589049028675 -0.614494169767961 1.190874049162704 -2.3504143212091324
Ni 0.9195396842961941 4.560364285164751 0.8250340995522348 -1.8712676498369516 -4.164604509306802 1.2150398477756301
Ni 7.621800732010455 9.11130885188286 8.432489094181586 1.299978811811871 -3.250287829253705 1.2814866665449545
P 7.004152309115896 7.524808378865497 6.997579935829782 -0.2038648265408876 -0.041377277395206156 1.6097016119298537
P 0.9608019643286397 0.2889142249501174 1.7591487250611724 -0.4715148658585363 -0.5109419615059072 0.02403004436601023
P 6.676213802521941 4.104341832491669 2.6378435411809145 0.07791265331707872 -1.152666170634415 -0.8205434055546772
P 8.534423305550183 3.7499330785120453 13.19206784623378 -0.4159682389414836 -1.0174274299023576 -0.495463920474966
P 4.43324933089418 5.9897483267619975 13.447714905294937 0.9948719131993445 -0.9639289437635852 -0.8617435339420708
P 6.86851209037581 1.509102252308894 9.122724320765974 -0.7818570447280728 1.7558246036745828 1.8158266952598274
P 5.038300860277501 8.94003023249153 12.218189151104088 0.5953047413237038 1.5693070101628908 -0.39866754287950695
P 1.4965612621712268 5.552434869777203 6.7912573549928394 -1.018098487827453 0.17799335809076444 -0.6839599778692672
Ni 4.632488954299729 4.200504952261996 1.0282484528186522 -2.28581098340645 -0.41766979501362256 1.7177239401481192
Ni 6.704118903162589 1.7607699228947191 3.089436583221422 -0.07135711158674808 0.8931552154841327 1.4296932802915894
Ni 0.7611412021755255 2.099059870828159 12.289999829624177 -1.8239336406376783 0.5392834887630776 -0.49556702171173356
Ni 5.227347435235348 1.7872308530514605 5.0021211286255145 0.7749245792742977 -0.7921535415580745 -0.1511584972861074
Ni 8.649416544984867 0.33267072716670365 3.303123501803394 -0.3901394508038378 -0.8254706676529655 -0.7093884452447008
Ni 5.222474524505779 3.5534606720982396 12.494632265133502 -0.0450225874572773 -0.9434426508847751 -1.1339611380257437
Ni 4.663943919162109 9.187328122709921 0.9497908631810209 1.9234918972489907 -0.2972974298704364 0.4684035739230643
Ni 8.494340586700076 6.02201389054115 13.665070948628927 -1.9183648604350705 -2.083233251108102 0.9493441039708748
Ni 4.235612270864321 2.5995441399477097 9.306901711885821 -0.5073154204969134 -1.7124439226961023 -0.4171481181821977
Ni 4.18860685092039 1.2195227772132866 2.7957565956744124 -0.4472012288138363 0.6179859849713035 0.17102206897925384
Ni 5.840067044026768 8.831903790777098 3.827878220558613 0.4282421712128302 0.6987787880496547 -0.9932945414098958
Ni 0.17381197393697054 7.69423286970007 7.4372963061552175 0.7144558324652792 0.13406940301430456 -0.3762814618748229
Ni 8.55735300594305 8.505521261414193 0.23010480767675948 0.6256414446340323 1.6827152852834182 2.191073288112233
Ni 2.301439400382589 4.142179099170024 8.16796457939742 -0.8414585584407894 -0.7988975451501273 2.5910677773332798
Ni 1.3945841915495596 3.9757081699057633 11.098697075389321 -0.1785857402591247 -0.41552292387394885 -1.8372529834544038
Ni 1.6741755972338899 6.072429416272887 9.5527172309817 0.06711916224600054 0.0899292181619806 0.38160287408773635
Ni 1.0127455156046374 0.22805222214382634 9.149752670164455 -0.2540257636659948 0.1630609051506482 1.0241722048253588
Ni 7.606129152952836 1.3576227443904774 13.18290435158267 1.1074160405473636 -0.312996585773248 -0.3639859323369215
Ni -0.05741462810277192 2.9256378352138346 9.442655600818833 0.5644522747192214 -2.57181407130999 -0.16900709543175407
Ni 1.2843147871815894 5.939258263198835 12.051929722936503 0.4483857360402406 0.6218246419911032 1.85110685861836
Ni 7.859390069685422 8.808582766769238 5.545434835683273 1.0534575840530371 -1.2291570039033024 -1.3502230526794037
Ni 6.8767951068931845 8.552843467141688 10.81524461003705 1.5168685898575167 0.11946939371294261 1.2867620560112807
Ni 7.781935945603383 2.726556604700069 11.259528285983201 0.6995164375466275 1.94783613042131 0.0575896254890105
Ni 1.626844074277465 6.838277682503055 2.8470442140338483 -0.9073111952695406 0.4074506883887757 -0.6252526938360458
P 6.925263331778878 0.26207222013020315 1.5514751460296081 0.42142771939415813 -1.2834273352110928 -0.2611387205616922
P 4.051792661335323 7.712354879965868 3.496628370803495 -0.4290204441397515 -0.3890912120449815 -0.21070267539832746
P 4.55859401166835 0.568806577128836 7.49431122513696 1.7823187933103692 -0.012325611444888451 0.7477094523120864
P 1.9807496978949537 2.203841427357284 9.96318216108633 0.629961926386257 -0.5827549296831512 -0.742961653214456
P 8.855401842134599 5.545828954466945 10.241030313238152 -0.35113838695029204 0.33575881917042816 1.3624532761970085
P -0.11808749116181586 9.342758135693991 11.527775965447168 0.38244696725558647 0.20361028732792028 -0.09599239363692501
P 3.611218174225578 1.7083791446301566 0.554824211675941 0.6284529459408983 0.9570748969562292 -0.6976081647803212
P 2.8827226787694853 2.291451330971312 4.222606351003125 0.8980359406152018 1.3917422549691127 -0.9421306169415711
Ni 3.4394830106167547 1.8627097246006727 11.680997795175202 0.01719990881805425 0.3108443153169356 -0.21303286619340087
Ni 6.72441182776871 5.583377387048519 11.757936676497499 0.5005089390980412 -1.0113915081209228 -0.4902954889001491
Ni 3.137120297431341 3.6669445204465188 6.25403897910006 0.4586284968141714 -0.7834521571293346 -2.585453773580612
Ni 8.546172331228933 5.3923648767867745 2.3617544818507814 1.0453508957855029 -1.4803879784329794 2.1340431346711184
Ni 3.293770867405036 1.103961186813968 5.922531042103624 -1.1769047314668053 -0.7633209335970983 0.4598382008515564
Ni 3.4725498560837527 7.896658985399142 13.256992160852867 -1.6425767653913195 -1.2866489274721842 -0.6523590631345345
Ni 5.94712200441443 6.952795743262389 5.188684662073935 1.3114747282666124 -0.7283521308313973 2.238646924126138
Ni 5.844641803430627 2.0699342131978864 0.8684551815273976 -0.8927050153205915 0.7034805644006981 -0.17810777218144164
Ni 1.6290056713888608 2.229650151489035 1.10082221238798 -0.6369571267571676 -0.09380747017046424 0.8870038511707563
Ni 4.172432141500637 8.098172012663229 5.671424268699291 -1.7434259728999137 1.1925745767935783 0.14590290531412292
Ni 8.235098008995438 6.115922240910798 6.150386670717061 1.5576272598321175 -1.2053156785093306 -1.6831534012621014
Ni 1.8972486922383631 8.019180545807998 11.200345247829814 -0.27121718784361676 1.0420696539310699 -0.3600367178811864
Ni 6.9122192112790755 3.7564365043040895 4.865699194378334 -0.7601263379192006 0.4188548164606593 -0.5611309236554722
Ni 2.889552207574025 5.698556971061772 4.579546596082603 3.614940962860981 0.2971629611751011 0.09560184306672567
Ni 2.4018232248574947 3.8206974322234717 13.168339659321747 3.056984580278748 -0.888019179809148 -1.0245231604068743
Ni 3.700700840854221 5.060224299946098 11.508616947601636 -1.1253091187777007 0.13979422131322375 -0.3903410252916826
Ni 4.448119628263954 4.8841938938012674 8.592516227918944 0.015606853299321505 1.2182578404922955 -0.43515663894447637
Ni 6.852057864088203 1.0419550282952659 6.87900888048658 -3.058034361699501 1.901016856074926 -1.6932033292989355
Ni 1.5033907909757662 0.6146408213964621 4.296912183430248 1.0348633659906177 -3.86930379815142 -1.6464413905530486
Ni 0.8314350358260664 2.4061464190802866 5.1444203708807485 0.10479327975800662 3.9487069199710962 1.035773793620029
Ni 1.8255526156340935 1.7753141172519984 7.63065116776957 2.293931555631056 1.6597183101676123 0.9469120974906142
Ni 4.905530348047373 9.134881441071789 9.858711800003416 -1.589585815016585 0.9607752286259517 -1.1430219626764313
Ni 6.420660847472961 7.419346664624597 13.233945995098395 -0.9900174133205207 0.33964581292966023 0.2399273765913997
Ni 7.298064295663222 7.063745305342135 1.8789058636469629 -1.374245640846246 2.5267614019457256 0.4271761918421611
P 5.3567171589066005 4.096235843323935 10.31385004765119 0.9848716074535231 0.7141244172677895 1.6318431810238994
P 3.3308627557691164 7.408734340875116 9.611600254363593 0.5722373179812791 0.48181984732897015 -0.11049701501100326
P 8.216016324150011 1.6621004685426444 5.0641822587948955 -2.0575656711386694 0.19740801517195034 -0.5253792199771596
P 1.0199197818795285 6.4328757345981336 0.6644386148502425 2.9121121731116686 5.959618895806969 0.5064415025323923
P 4.776123355460407 4.997882721185972 5.695697513503637 1.3952672374032358 -0.4330460203593768 -0.0808658224081317
P 1.514068335327747 9.154261277242922 6.466948840789401 0.05795292236570019 0.6718595950613074 0.6002708270797275
P 8.913718377997643 7.3615146246658325 3.959839997317754 -0.5138959019279086 -0.45767281776912144 -0.6909415513934231
P 0.6457864542584182 3.535981550628505 2.800174825632274 0.190973058179884 0.2761475352656986 1.6937887694887606
