# total energy = -340868.5228182793 ev
CRYSTAL
PRIMVEC
9.30835384569431 0.00000000000000 0.00000000000000

0.00000000000000 9.30835384569431 0.00000000000000

0.00000000000000 0.00000000000000 13.62371675599867

PRIMCOORD
 96 1
Ni 3.054377981424224 7.9106577382447645 7.413317992103086 1.6328819067010587 1.8964567475080696 0.1308318699136134
Ni 7.400606504470228 1.437395958015587 6.856448532386113 1.3028270798939434 0.32656583981725046 0.13373078872796323
Ni 1.645214259781265 2.4944060474629386 0.9769638337721845 -1.2401099033703804 0.16835274967720681 -1.0398340797323318
Ni 5.701366560578598 2.066342791917913 8.382454431359694 -1.0460039559884697 0.6336753706821022 0.03200972013737713
Ni 1.7296503349992383 6.927630442958194 0.12085314688320017 -0.1888490698583457 0.740484395318557 1.1850579567015591
Ni 3.133471061693997 3.417785413083896 12.847151301104702 0.386906802799153 0.560954288868292 -0.05093329651475745
Ni 4.715490909100131 8.291760350037759 11.058343586672901 -1.11331903629536 -0.09932531466489991 0.19784330293715605
Ni 0.8275805832021706 4.864647966678436 10.09829396216966 0.5227353545964094 1.4870772175276972 -0.6913601269880804
Ni 8.853984905562571 1.2252865052549267 2.132670396104132 1.5015502143328916 0.5382848722952341 1.019849666190605
Ni 6.124822181107319 4.020566465105754 2.8694275118697674 -1.8442510120387916 0.9916624051231115 1.7310234854705027
Ni 7.5929263975447 4.928224021549867 12.874493658876201 -0.16161337407084422 1.6792016157032046 -1.4658051955227982
Ni 8.300389193795565 8.018764956586903 13.48377380335944 0.07552307003897961 -1.2027296629497093 -0.19057865095494275
Ni 1.9781275251512138 3.1286586428991905 8.198180679109653 -1.121214379883037 -0.7309607720988379 -0.3958125899292151
Ni 4.011155719648212 5.1029232013195625 3.445423776498867 0.4503256333754309 0.6461969001878807 -1.4537577774399606
Ni 5.921211255154509 8.567911275348266 1.452724023836493 -0.5194831662076989 1.2140833973996317 1.5221527210745915
Ni 4.105030465384432 0.7900120682005458 0.7433846635062598 -1.5935057188962813 0.7588749820106028 0.7635394773658076
Ni 2.935407914467889 2.3320683612319333 5.540207311909338 -0.09872907584179771 0.6267323637053658 0.5130965459550647
Ni 1.7207701656950878 0.06571883786285228 0.8306067289472223 -0.37519517078917963 -0.6201300278974998 0.14749518950190726
Ni 3.6252499974139782 -0.10087183511350545 4.850478790876782 -0.9057952728456463 -1.2150370195621527 0.8372789731418031
Ni 7.826193737966087 3.892232194459718 8.695636779670936 0.22009774345998226 0.06713921685065857 0.1632110575752673
Ni 3.9586100637552053 6.254971580699172 1.1430108989001542 -0.44894520808813654 0.006670984262272381 0.56340172196752
Ni 8.166320977351461 5.235260063999965 6.449821484273507 -0.28358547960098257 2.000416732731503 0.0528125158153413
Ni 7.882481351993546 7.81773244457251 2.8970695986261665 -0.4510342294066813 0.1789644637547821 1.7159277674796447
Ni 8.916769750380698 9.015559306800977 8.156682177231495 -0.025151559564963136 -0.24671071806182027 -1.2890318258820639
P 0.17364919748719324 7.915228139846796 1.6394644897821313 3.152780798744467 0.6442845136565162 0.16697155305896405
P 3.3892460010435137 4.668679199005192 11.009924323916719 -0.7265744701056842 0.6666119735091229 -0.14106100384078932
P 5.091408767955587 6.971891664175422 8.213262073561 0.19113066680367083 -0.6119300085852106 1.4502073410845409
P 3.47453844478977 6.904983218726542 4.468251729972738 -0.26593254240590974 1.8754487777978348 -0.6344356458868944
P 7.306945850866078 3.479229854988189 5.797721982540768 -0.6313801468900223 -1.5539192148529108 -0.052831541978734825
P 0.06753769015009645 2.3643218063460636 8.562900588622455 0.3784159917193225 -0.40758695685632385 -0.18234777840471822
P 6.402862702192189 9.026729331082926 4.170369522421698 -0.39557116334237036 0.7336838274569557 0.05488508207365386
P 7.507336086484258 0.5282388258116225 0.7715945598303241 0.3647464646520299 -0.0458121732381082 -1.5679381548398221
Ni 1.740466641845593 0.8990966636673551 7.197409800251206 0.23012761689215852 -0.501981924099142 0.5038189773078806
Ni 1.9653285389948127 2.8439812657201293 10.838225226502082 0.3484600687871805 0.71231796018667 -0.09924535335658391
Ni 8.257710392684947 0.7315230285541857 12.24308848879649 0.25469887847361944 1.3088334339890235 -0.15450144561641135
Ni 5.866412977697975 2.340687896636171 11.06732149368952 0.26068543507435754 -0.3315383533311774 -0.6313891457510868
Ni 4.520499518551558 6.163507698537138 6.35000056227786 -2.4246837213466694 -1.6919530018316022 -1.9997212493263754
Ni 6.86510623203998 7.397236880478506 11.664312749791899 -1.566306018553038 -2.260421082578436 2.023433248231335
Ni 5.9390367522377865 8.937704237555785 8.82029331982214 0.012431540895133427 0.14325749727147585 -0.16048954487904618
Ni 2.326660207808756 1.3934419124661142 2.8540463884335225 -1.0607299493447346 -0.9260943894143147 1.183554375572839
Ni 8.161685417274452 4.946626636554379 3.9485886903035823 -0.18219094111187978 0.9981161311682553 0.8919676229339347
Ni 8.983743354304556 3.0390471230972476 11.00958363817612 -1.7604348487530845 -0.32843631736708595 -0.07303424217885486
Ni 1.1341018736999422 7.902913188075947 6.3889504369490195 -0.7748001378812914 -0.6388229763213127 -0.20371621677816526
Ni 3.3893390845791966 1.5560309242434633 9.46133077417432 0.8477850148794496 -0.8931734703165778 -1.3425423962056944
Ni 8.633525859651153 5.871411563564148 1.312858564790057 0.288930803073296 -0.5139172420841471 0.12439022805332771
Ni 8.498899141992952 8.357812426958356 10.616171659624415 2.5778929305142184 0.29845751161680856 -0.8711236896053901
Ni 2.0577604899279485 5.197551923694816 4.668180271253932 -1.3265323939306832 -0.23266580993297994 1.8567771695302602
Ni 5.796628250996494 0.3451593353243931 12.98987256302589 0.9455622683309393 0.2979458620877127 -1.8571111558309115
Ni 0.26814760291248946 3.2930814003294935 5.968836515351316 0.11140615708883393 -1.7568257912455874 -0.5557812293077847
Ni 1.1128043607356912 8.519759162339493 3.930306153060101 0.0077490478177995575 0.10730344777437002 -0.7329045260887701
Ni 5.215600821263733 6.070619638279157 10.241792471613799 -0.11162650062975615 -1.124299960786896 -0.8735724082561989
Ni 1.97411562476328 6.5133994008156515 2.596081193489387 -0.6571500567652747 -0.4777922142268159 -0.36675886709636835
Ni 1.4595032977402795 7.700512348087014 9.174278835999987 -0.28958360616594647 0.8567370818664148 0.5596682230670168
Ni 8.522728527127779 2.995456103336938 13.404115706028072 0.8878134915562451 -1.241866481050171 1.7188768228056397
Ni 6.984523099967593 1.9968000824092067 3.99831577673611 1.9750494576113085 0.32923387356771683 -0.5306852055711054
Ni 6.05398561045262 4.922843793187394 7.408863014085302 0.030356500804670297 -0.6705341913816645 1.1089916125645998
P 6.162018361966212 6.820751927287071 0.3867136873239604 0.20105486789591825 -2.391790055942442 -1.2149089786247205
P 2.8817266394395515 4.465757091216436 6.80166794080136 2.9386385015369716 -0.3019025327426155 -1.0682807651087989
P 2.8452378934518485 8.998720495195938 10.284257180592343 -0.7440278896954412 -0.6718171718591462 -0.9040165836786689
P 6.495145719468231 0.07394649158186521 10.847066300721245 1.0558330262637492 1.298987651543195 0.2641901057935063
P 9.112031083182751 6.775178228216715 8.244378037869085 2.6031846152014717 -0.5919977884376578 -2.822728800150829
P 7.981801484567217 3.858964138806644 2.0600968866735894 1.8572854766252467 -0.7872203659225151 -1.3228523739759348
P 3.4631729450828854 8.02989774745458 12.960786750631048 -0.04908441623147675 1.5748850184713006 1.245761959449835
P 4.170989458769347 1.0936663857992837 7.03874798284432 -1.104979148971097 -1.1580503177644637 1.4542185191264632
Ni 3.5250083378370465 8.394654890381654 2.470661368345583 -0.052115489748316694 -0.09800248208841832 0.4839677469099084
Ni 7.8165316669622 1.2917388413789603 9.424519028317798 -1.8778437603925724 0.28083877009378083 0.914725999676373
Ni 0.7675835902777474 0.7380937953380426 10.021646186382275 1.2355119995870527 1.0043875659992638 -0.13018163792412418
Ni 0.68463126661856 3.650447710523344 3.179257922061067 0.4940235884840137 -0.6291569139864583 -0.7097810526974292
Ni 5.507976206843772 1.4581535864728774 5.472687307631022 -1.33406444064167 -0.44202559815016773 0.767133365364653
Ni 7.542158637183237 6.651721534840465 9.350079193996812 -3.0391300685958305 -2.2946190686163837 3.075553601530187
Ni 3.768887201326286 3.3866489703979603 1.47073475715578 0.6692296136376281 0.11543070486719476 0.47719906072750723
Ni 5.323791814787986 3.9336543678386158 5.056960413070053 -0.2342346970819966 -0.09252937478898904 1.0394224461162098
Ni 5.337893970443948 8.253409933336398 6.486155711591976 -1.3243392429341063 3.8006651139370993 -1.424344100164534
Ni 1.0154482907649294 5.143312147452381 12.619975347258405 0.40547762382280494 -3.0552454861004543 0.5394009881775484
Ni 1.5126912300294977 8.773560730732532 11.997535052500314 -1.7503165293721596 0.6211366147851431 0.8583779599039475
Ni 4.616468643840645 1.241157248088864 3.1757970762043763 2.0906909929377284 -0.3997839158721373 -0.6854741005209485
Ni 6.585613607798457 2.1966411251668587 1.651698458876937 -0.7665659228969572 -0.5379907380935831 -1.6161381115838165
Ni 7.195711025724993 7.488607679104856 7.313919669359442 1.3494962018157082 -0.7135947700165646 -1.2865892778788424
Ni 3.8378993346815995 3.812161737065274 9.110274596864414 2.4001631104974854 0.9533709657420807 0.5565870130385318
Ni 2.862728289806668 5.962959220908297 8.57700181344306 1.1837837179748256 -1.1290058509029974 0.5972454099898423
Ni 6.440356750365267 6.97860298709816 4.853857723222072 0.9693783969139304 -0.8017504412178902 0.44582157485749024
Ni 5.7262291729595045 4.534303806893335 0.7148526981487323 -0.126632230009969 0.35651764898433436 -1.4317146815969923
Ni 1.0413441303919166 5.15628799232658 7.118501025382085 -1.5521842344396752 2.3588462540265698 0.9604926643885263
Ni 5.756779189370638 6.588461963990355 2.6452758420978086 0.3938585515266378 -0.8422741123635493 -0.03972817182755738
Ni 4.260694062106972 6.1012255048116995 12.49458251633995 2.1501066158918847 -1.26001178450063 0.5793456468912861
Ni 8.482646756662716 8.873206655681093 5.467334073493897 -1.0312393960847852 0.5558951291778297 -0.42221704806467286
Ni 3.313922803968898 1.1873828895248433 11.882183142575974 0.8703605861871204 -0.5124712536662399 0.7725074851923728
Ni 2.5783022381739507 6.834221114900389 11.237045358476964 -1.079249862525793 -0.8151695428372735 -1.704917018191438
P 1.527323961838852 4.649867016443675 1.2697757811345762 0.48579091616157627 0.9671549069000505 -0.2674230109085072
P 7.001306061451222 4.32151484432219 10.695448114459486 -0.33824584725834006 0.03607591978695077 0.3633675820266323
P 1.0554462860478784 1.1566746311030494 5.125528537960159 -0.44269639896494734 -0.6970085835231092 -0.5618413194589357
P 9.11290606841817 6.383305851345208 11.5928422802592 -1.3910495997774623 1.3704666334197881 -1.0402490557825634
P 1.0434757433590554 1.6589161562337902 12.636010847950502 -0.03331944008773617 0.25714759712442814 -0.5656000151704195
P 9.189336959567413 6.694149010404737 4.998868840121059 -0.1593621161428223 0.05584641754565865 -0.5932082638059912
P 5.201554515729181 2.5311926607648263 13.10951655478057 -0.6580301453773828 0.49880352637116027 1.2377573439778038
P 3.494290771061684 3.038442080115309 3.5915518958260493 0.36625338821485953 0.9474011213118909 0.4346177357218708
