# total energy = -340874.78289822786 ev
CRYSTAL
PRIMVEC
9.20496886990569 0.00000000000000 0.00000000000000
0.00000000000000 9.20496886990569 0.00000000000000
0.00000000000000 0.00000000000000 13.47240239361675
PRIMCOORD
 96 1
Ni 1.753380856727529 4.9249160183808245 7.263860836436875 -0.2954513778006331 -0.5681016985463506 -0.35647959665754736
Ni 2.328755838150801 3.25588949524414 13.043724226505894 -1.9214352718302778 -1.169595856510218 -0.09034882219790247
Ni 1.9897276342568284 0.6141315818325785 12.78768065685332 0.41229824628906414 1.333812472531864 -1.1010926694324972
Ni 7.7464138335196076 7.760018777326598 0.44141138927126566 0.1307601361354135 0.18793401424324407 -0.5673319102598616
Ni 0.3361258772482724 0.06190709680618286 2.5857180636842525 0.43403280975267833 -0.1143241020665773 -0.9935843047361727
Ni 1.4643356331258177 7.800078801310377 11.467722197022168 -0.3982906191560624 -0.20038612396366778 -1.868461547846724
Ni 9.15020838720119 4.808758517771609 3.452747877348804 0.5177134759017857 -0.03009990470917397 0.18652530682117555
Ni 8.550421828662802 5.544916688286027 9.296456010145096 0.8345880565732013 -2.4450810540560988 -2.685130300937343
Ni 8.078768435072531 7.432929417896541 3.815222977633282 -0.12895085084081662 -1.000997309370792 1.2827791601041327
Ni 4.813112467988596 1.0528090953862013 2.369971085712237 -0.8910435684577686 0.6658799804391048 -0.3321698162675892
Ni 4.107487178805565 8.905752032206422 11.454990804749198 -0.598612208430382 -0.44496179796035623 0.5462303523945561
Ni 4.538021977006235 9.159431765884953 6.966566119844754 0.24464946465741735 -0.26297757354264384 0.9718672247740553
Ni 2.26622648545737 8.80939441937044 5.562903197216245 0.24544547819615148 0.3779462511717555 -0.3825737226414379
Ni 0.11303425471360568 8.559755666971522 9.185618981471226 1.5839864665519365 0.6960225654607561 0.4136899844302682
Ni 3.696522144159471 2.0448009622657786 11.41425053357507 0.8709123449255325 0.8007117155407307 -0.2862545417927135
Ni 7.234249372476991 3.374219368477476 10.562902304666668 -0.6853689424016519 0.572241431746337 -0.29892262417868515
Ni 7.15852929957015 8.61846495763525 8.053384813257809 0.1834322697181486 2.3479771725225502 1.6958590217542278
Ni 2.5350483927235192 7.294726017140002 7.3654164951238785 0.3055632694236544 0.4327418588553966 -0.31267751187093246
Ni 8.700831017976899 3.5240578497293042 5.833846849778411 -0.04230673118801101 0.9534815231780158 -0.037063994731832944
Ni 5.882085488493253 0.3005265811189371 12.897790492996233 0.061367861584520116 -0.8347335810121301 0.7727044316945273
Ni 8.921547758575027 0.9197531131525777 0.017190279133664388 -0.3846262342950924 -0.14185856004142022 0.45522589889052567
Ni 1.8432121467224047 6.172658736906845 9.348904081067609 -1.6162311855182552 0.855781659931681 0.4771396682444815
Ni 8.139263489673036 1.5987373817901465 7.549287586824426 0.4222275895876341 0.9236729244570157 0.11491262758019564
Ni 0.5903892059453173 3.943445430778238 10.437178080039448 -0.8460623757613881 -1.0873465234909983 0.051069564982305596
P 2.928072943283128 8.281903685365279 9.789828527492196 -1.1133079805517665 0.8226727931928541 -2.05978581871844
P 1.5713802146762237 2.00488821778194 11.160443771327838 -0.09862391772250112 0.5469677447812128 0.07998701934760419
P 0.4862524740218588 5.726098088118914 5.568615800820181 0.13785946618435613 0.11417857762764852 -0.7717387253471483
P 3.538233501598564 3.6002934008859353 7.901442996647458 -1.3131384891222804 -0.27003936548543167 0.5393847902276323
P 7.361029407019404 1.5558146125262766 11.910425043408535 1.4441958447831387 -0.6858883052402316 -0.07911207294181859
P 0.8645904969467889 8.181514296218428 0.06549611412035461 -2.5072917232568885 0.5063386584059408 1.488847164943926
P 1.4977588746435342 4.259562467462737 1.446827782570407 -0.4131407967950175 1.5185855725486233 -0.03174103985702276
P 7.736269957961214 7.289166216017254 9.792765833019132 -1.950831722714524 1.7514488432043902 1.3117626918206764
Ni 3.574482668521387 3.1472892739756135 2.0992023275562506 0.6924399903158204 1.4037102259642664 -1.0092199543909006
Ni 2.8634816775905323 8.886403187901758 1.2563079419444265 0.11987202846800003 0.5084323077101759 1.8959008750045996
Ni 6.045473683739593 7.414537890341489 11.4646771933609 0.5123825506071756 -0.33457045528928187 0.4193366411930843
Ni 4.053343552639988 5.744793379642594 8.366847136955885 0.9007340562726551 -0.37362782630205976 -0.4924127923534681
Ni 1.8350013146007296 2.342185887551613 8.990524271378348 -0.10733584367420224 0.8723768452862007 -0.5402803054587082
Ni 6.0061224423492785 1.048344685544259 10.350752628480695 -0.02419305230643575 -0.8523476945494677 0.7751300104168843
Ni 2.2565888831800223 0.5772537155443861 7.615894740672456 -0.22498823878306415 -2.4402900604253586 1.4908333421360196
Ni 6.120043135553149 5.4615933111947665 9.711311985080238 -0.9223752886915146 -0.09901112585859077 1.8485707224600678
Ni 7.976519642238934 4.541575094942296 1.1973059332745675 1.0769291848124163 -0.08132373588115673 1.2535068935025766
Ni 4.438746389077682 4.509716698111446 6.2459404135927965 0.3403922041773815 0.932691068795226 -1.3586678410126471
Ni 7.429385504929226 2.169509878840282 4.139502980601976 0.10728879248635072 0.30224886033844073 -1.3817864293079816
Ni 0.395998675961529 5.8601868678458695 13.365929429519177 0.033499417309026176 -1.3303435401466572 -1.9517125826575805
Ni 5.163959851752782 7.876931085373008 1.9845654877839185 0.267722544426797 0.3069943454432261 -0.917021223468453
Ni 6.679033272608056 4.081593601722299 7.758406066802251 0.9662375372921036 -0.9022908592368137 -0.9504368228144213
Ni 4.711130619248641 0.09625727867664893 4.689891074363491 0.03710898903715545 -0.5867085150142605 -1.5971800824240752
Ni 6.264349430588468 1.450445335287692 5.959476263227541 -0.38551403621668445 0.4053747796963535 1.1631950951901968
Ni 6.669892738643007 8.203937600084348 5.952323082014812 0.5259006396982684 -0.19508708034825759 -2.414861335939609
Ni 3.922945965380288 1.053876871760769 9.013764976468936 0.5013504611627302 -0.41290245553196636 1.2524887366507074
Ni 0.6488306320185283 6.754762550483642 1.8518086670345488 -1.1403107343928554 1.6140922847983816 0.7941353478747936
Ni 8.687327328826116 2.2977627083821 2.0369196680252197 -2.548126240774747 1.3476257242658727 -0.10614902245495267
Ni 1.5766454567990917 2.144509183725405 1.7028713522229808 0.960795540340926 -1.4709376316533571 -1.2503806891687692
Ni 7.442705094705083 5.821820558111405 5.623609966097914 0.13789006231197543 -1.1160390063296846 -0.29071669132912514
Ni 2.6221181920945136 7.10464341252947 13.323976863961164 1.9026945008876652 -2.6403671377890396 -0.33568348584780255
Ni 5.7873479501566125 2.7357075064235197 12.97059535230113 -1.2516035058322768 0.7683561820281606 -0.7562048913776074
P 3.2139332476986286 8.28676390886331 3.3539279353731923 -0.64957070175612 -0.06340520372952306 -0.2379034041828354
P 7.605356892451724 6.482258655718983 2.116231519736855 -1.3455531580075601 -2.04884963142191 -0.7820992426458659
P 0.643558946417538 2.411011438867494 3.859573437549699 -0.6124982223838548 -0.10246771694862354 0.9163707343686477
P 6.427783650678541 3.6563884804257216 5.483981636179451 0.21907701550495173 0.16350596310786678 0.23545365709076221
P 4.810691561208326 4.386554216286316 11.362395262639815 0.6466877237813702 -0.22911048848155383 -0.5095299116497289
P 6.633615956813946 8.954667236124116 3.5883204980376586 -0.46723346487436307 1.379997712838675 0.4869039467200969
P 3.339185257429162 1.613198387690541 5.708512915826035 0.24545190595405472 -0.2227431515026293 1.2422593456132154
P 6.0696735465735445 1.4728318192786276 8.295429466441052 -0.315371770873644 -0.12886009089922323 -1.3245760415352608
Ni 5.0974815674672005 7.961469518338777 9.192879860818286 0.07938255299438586 0.377577297868111 0.0017696903059130813
Ni 3.7892898191844075 6.561660716124332 10.673712638931175 0.5019194462923227 -1.8057831949808967 1.6650461501384293
Ni 1.1944735643913391 1.887598506016932 6.275566605502676 -1.1090486910547803 1.2024913216866582 -1.8105122250254497
Ni 2.1209720786411856 4.0435586708627005 4.611724320763892 -0.38229732905159963 -0.15150353933035196 0.40936487469235305
Ni 8.98893733476649 7.028904929685138 7.357574782248928 0.46503722855399265 -1.4597870143531764 -0.9560562258837279
Ni 6.944145577469458 0.7134449101329902 1.6116224970411792 0.9412099048995145 -0.2467839945019169 0.06985687289213774
Ni 8.29595046767209 8.689969154856296 11.600101614052939 -0.4918718322483334 -0.22284728118066138 -0.5698055686113348
Ni 8.323307634786014 3.2343038435341303 12.722555502973439 0.975671943232126 0.9450449623748887 0.303119178758536
Ni 3.2192261047277357 6.6269331495041515 4.765835748507739 1.3660343086800473 -0.5831166838979441 2.998940126640506
Ni 1.1234480255450985 7.4756220629417545 4.162029380117855 -0.5805892894904001 -0.9320328663859367 -0.23437533642491895
Ni 8.56484601468821 0.2890562695642066 4.722818168065783 1.2039622498052298 0.38982886154195445 1.8793293437991632
Ni 6.467788444849842 5.168230957251053 13.191880039470902 -1.6770094931478925 0.7361240614673322 -1.280844404975265
Ni 6.609268814480054 4.252750790590495 3.3266324415498696 -0.1244953861726243 0.6350167152013451 0.3312868994420037
Ni 3.904775357075146 4.701962470377352 13.332868863770063 1.1803081007213996 1.9009173543825844 -0.4084799009842384
Ni 8.938650590505603 1.6599688338903529 10.14919142784356 -0.6823764354322313 -0.8200063021042845 -0.19689353742937704
Ni 4.492650686055856 2.779154958905927 4.245208239199799 1.102347624885521 -0.16834169393361328 1.3581448786296415
Ni 6.548341126348475 6.502610841616993 7.734532980358792 0.01697390885017722 -1.107862898276795 0.11374354697275894
Ni 2.9171558503500483 4.193489201801991 10.064207474390471 0.9820781038687861 0.007913855530437984 1.1138329998173009
Ni 5.542394526849549 6.790063605625598 3.989676465809518 0.6753773784065787 -0.7995369785063392 0.9792506617223201
Ni 7.913714140483115 5.699477318504694 11.459274797203712 0.8010765550793171 0.015775260556385735 1.0436405979626155
Ni 5.028803295651259 3.164741894718547 9.299137417540885 0.766695506496286 0.34427559839218774 1.0317263630235327
Ni 2.576065733456911 1.2294616505959217 3.693768938007461 -0.40674492057100275 -0.11181830492558807 -0.4521580585984793
Ni 5.094959406030722 5.287297227984092 1.796167392453954 0.06732973559490985 0.6693337433156601 0.16751765537042118
Ni 2.613732465566659 6.11255949596243 2.687191798149414 0.646867443892344 -1.373043907228661 -1.7729820892904757
P 4.068366061633905 4.790007996435451 3.7143678170678696 0.44234132961837364 0.9339282836364368 -0.2411255106645589
P 0.1023739804085472 3.4945743348349922 8.07112739051625 -0.6062195884639946 -0.0017210964561647781 0.3579466681213771
P 6.414988744121222 2.9540677750226023 1.4920416685552242 0.5164428367194783 -0.07706778881828018 1.6388000719577067
P 3.8969419286720677 1.3764742064426443 0.1483877781774155 0.40728665200708564 0.4729251159425017 0.3422223154075848
P 0.07892616352116658 9.055111855083446 6.913929347062943 0.9647910346535643 0.6812937438910137 -0.6341970475135271
P 4.987472985980495 6.963788980774003 6.367110940181234 -1.8679691815913377 -0.1250808263624491 -0.21706281328840035
P 4.824968467733796 7.2777796696781145 13.391527527105689 0.37701756870989905 -0.737805305824497 -0.6374343235039022
P 1.3351162818656408 5.566511544964783 11.46804529142516 0.6243713196723569 0.8855673758345459 -0.09439059636744387
