# total energy = -381166.96521050256 ev
CRYSTAL
PRIMVEC
9.24785597934438 0.00000000000000 0.00000000000000

0.00000000000000 9.24785597934438 0.00000000000000

0.00000000000000 0.00000000000000 13.53517201337804

PRIMCOORD
 96 1
Ni 4.226048203755652 4.802781489921704 11.928966555888886 0.44978441615998016 0.4898807699602338 -0.35001687175133916
Ni 1.350741834670859 7.19968702476469 12.804096709661337 1.0274089665951014 0.2791927498499256 -0.6373186238616443
Ni 0.21801542879511915 5.831374263858896 4.14725832094702 1.0494271227374055 1.8658115118183867 0.04664341089015192
Ni 6.457454109177376 7.645248722658994 4.515969411417673 -0.28994973125611356 -0.10698128854826092 -0.4180410623101123
Ni 1.9874844578571706 0.28152970320645326 0.7744801891563771 -0.2551714472346638 -0.9180272961354641 0.4237142014354896
Ni 1.9567445848019471 1.6051226072731548 12.481337290437404 -0.8458222347261241 0.6896369736493865 -0.782673369981781
Ni 6.859874559236957 -0.02772784638431903 12.760391342615915 -0.08765096365076518 -1.8080732765666538 -1.0353169085882685
Ni 0.44641712456626764 9.046881508419773 2.5279365557048545 0.552378631384139 -0.9737703553340391 0.19225475310578502
Ni 6.664060458132473 6.925867259033008 8.811383008020893 -1.1113279740072604 -0.9239297776628281 -1.2056175260204656
Ni 6.923157637250463 4.768176013094794 0.34500606140854356 -1.6476696065331948 -0.14916306412263342 -0.6774368320387687
Ni 7.997915707905969 4.076945022868357 4.308244996682679 -0.4974387848131498 -0.845066587507022 0.12732874185636137
Ni 7.4865277716220495 0.42968220450587885 4.791951325861844 1.914843220435057 0.05484831529844748 -1.9347278751741261
Ni 3.8919046739026637 1.628223751344138 7.009066519541018 -1.141885535079143 -0.011961543237250368 -1.1840454562766447
Ni 8.098032996021447 5.226582982852427 2.2947398466427518 0.11517230899948551 1.3983476761007725 -0.26875895611111134
Ni 4.872649041345354 1.20331251570384 3.6243401579106185 0.721463374131364 0.31391781203593677 1.710781704502331
Ni 0.6477253768687373 6.126121927521977 10.480621925125325 0.6437247844983043 -0.19673798568811923 0.5242417639386068
Ni 1.47573585519264 1.7398176286478026 6.589233281582615 -0.09960350802695105 -0.7149178597033623 0.47553041477583263
Ni 2.0338809509733125 7.840998088772084 8.488054845658304 -2.6252518794141566 1.3983129662080949 0.8124297753086073
Ni 6.6372231802725885 9.191693684163377 2.112988960025356 0.4327457155101386 -1.2179732193723414 -0.6802509044487962
Ni 7.498217061496239 6.529328445334174 6.427109119569642 0.2690340641493689 -0.7867994763350127 -0.3582320605722798
Ni 8.939014517049097 8.409029142523886 7.184090515767206 0.2475735802827478 0.8227219012632347 0.4803741160213792
Ni 4.70217406544283 6.268538908584083 6.900203534088498 0.32611846786718673 -1.0715149557753805 0.9633730712601152
Ni 6.436674176940587 0.5668001641297651 10.421838853799148 -0.2539005509420401 -2.037260126812098 0.3601750432312636
Ni 3.0645914839146102 7.145772024791178 0.963405562391174 0.3884476649237117 3.4935013327955446 -1.1163544806875743
P 2.7902723339636197 6.804202466639951 10.801121168364093 -0.759583320931537 -0.29002917834379727 1.5658578752720258
Ni 0.07976460682187521 3.705902547922005 10.074255414947615 -0.4470361639908817 0.5235215979431307 -0.07074364637246526
P 2.2657246987153257 5.945594532241888 7.311673011159071 0.47675657387344994 -1.4815249202509 0.11973781688298088
Ni 4.176535183196788 9.317862182386126 9.333989518313022 -0.5607462866225439 0.1321189641561531 -0.6298973916969087
P 5.9279773667273865 3.6419998635623196 3.7447352196868033 -1.028449492044474 0.04700336533273195 -0.3984070901292687
P 7.781969024478616 0.5105695010356073 8.764429793978781 0.7731122086559072 0.024701873622054234 -0.7901128569789618
P 6.515928302116057 7.549746114644165 10.820923602230863 1.5563730757100422 0.1826683949689306 -0.7692452695013332
Ni 6.679226941829997 5.250581168946983 10.854098435748012 0.11086365432180263 -0.22850576501801936 -0.25796829325351056
Ni 4.514516573253722 8.302799021649834 2.6474798899514407 0.02644482445508994 -0.6631913778633483 -0.8489456108464541
Ni 8.110008969428941 7.403972161885593 2.9801604089989726 -0.12804582252804397 0.581448809277218 -0.42746441250654127
Ni 6.2015659360612405 1.8344324424949723 0.08895974995629419 0.08800783276955167 1.8210622326271542 0.5275104073875496
Ni -0.04439248273976808 -0.003056416379287409 12.28280339490887 1.8546467534508186 0.9570887809133001 -1.5297007086251784
Ni 2.6843843837583523 4.797741408449051 9.950760471869353 0.41322821430250123 0.4217370231044608 -1.1700226596349914
Ni 3.6551318189589557 3.2652144700939174 3.627291148732496 0.6645327223825911 1.1365196427815394 -0.219363436397119
Ni 8.564605822550368 7.930730034697124 9.573901095553644 0.6274741269673968 0.395294512642216 1.0933729321907362
Ni 0.7263709931251245 4.4991188931583705 5.951617660798105 1.0754518289359412 0.6566420067806046 0.9953336833271117
Ni 2.3517575022751163 1.1299215311772894 3.026099133247415 1.5959773203652254 -0.45424630858607584 -0.7116255621053357
Ni 5.684915969762755 5.369850766658541 5.174455593426922 1.193655468562583 -2.421107573959637 -0.07329675181162215
Ni 2.062160894355645 2.80084263327232 1.112835192592202 0.191258964851419 -1.3108707761340261 -0.14597952418832924
Ni 1.8686957486530957 4.093905590613026 11.934543013004498 -0.8043683384567114 -0.19735299356429883 1.1376072194187634
Ni 4.684316455674588 5.67498377251206 0.6678385386941903 1.7637824250690786 -0.522930501326351 -2.0538748525506434
Ni 4.293196885540843 7.118823772660336 4.607900497478854 0.41387690363009366 -0.28769538800429806 0.5531769589157182
Ni 3.9061741155766136 6.835719159591878 9.057128132771513 1.9504807671330084 -0.44371121338270686 -0.006457582699885653
Ni 8.812781283834957 8.357666550782398 0.7497634446573712 -1.118919670311589 -0.4360392986597458 -0.8991415149745547
Ni 3.3926684202885897 5.552690125916911 2.370144089401589 -0.889928481016719 -1.3869448335804695 2.959769627088632
Ni 6.908777221305555 2.0490751782385748 2.647561271083476 -0.10139942358510924 1.469998407668539 0.40215935808284936
Ni 2.7183332628154298 5.6908068539794145 4.619445520800798 -2.002985007679311 -1.941300386185321 -0.1571406830114713
Ni 0.9856734746443848 0.1329444022502935 4.703485411411311 -0.46942044522335286 0.8130866921663158 1.7811121745967777
Ni 0.36057945076624404 0.9817616315931336 10.076217809972379 0.22754134422222105 -0.9994865291532206 -1.4499162922066837
Ni 1.6936338362176626 7.495442704722301 5.9447418799266964 -0.9773089646149169 -0.5467528005569294 -0.6010804674652164
Ni 0.9678990955793609 6.661017913537055 1.7089103694005519 -1.331620607086868 -0.4326667826430871 1.1580498035438314
Ni 5.053564846573794 4.832013962463088 8.79554697955526 2.1147590896305255 0.9972707524488245 -0.22934368753828244
P 7.678920166038678 4.070721215838825 8.810896570799862 -0.06132440994109439 0.9512912003949164 2.7016478389763923
Ni 8.495468851743855 3.9509429860520457 12.403996546650358 1.0249522775244928 0.648597024988941 -0.4716187384262523
P 8.672870471725307 7.853945087050458 5.097440374168018 0.6477452185116069 -0.7798109608323215 -0.2833813340099765
Ni 1.655995062651249 2.6163294120936746 4.454208530487468 1.3731912314398027 1.5958222828446003 0.5516813482067983
P 2.329192733847094 0.9456857456760377 8.367659783882118 -0.04725301944969282 -0.35149319918654953 1.902322205149911
P 3.7431991508196334 9.081413002399378 4.808180388203786 -1.018763889325594 1.4760718675561286 0.6852786966806907
P 5.46414190554875 3.5406711063222223 6.897753777057112 0.06086881046091453 -0.27603826338134396 0.3375573058317477
Ni 6.356412035470585 2.7303647233584036 9.903062805426234 0.5796678061173952 2.2194143011487717 0.8213664156766047
Ni 8.397571049047526 3.3193699143211703 1.293642797906459 1.1123942104882454 -2.77623065658929 -0.7992045348675849
Ni 3.865705498100784 2.802923400852773 13.206388614523725 0.4290065601826806 0.3386672510664748 -0.4891608610750737
Ni 2.3872692689815116 8.883980526510097 11.059020750141332 -0.7345729149301284 0.24639601503487887 -0.5895606397510751
Ni 1.0236636667354972 4.05415830589842 2.5890343653660897 0.0696928365104477 1.2334695152357273 1.1425802471533224
Ni 5.778347058053044 5.822875484274735 2.9274679755771764 0.2983050451993443 -0.09995549204973107 -1.193859357043273
Ni 6.8268134743475395 7.1162898601401405 0.5393525277796137 0.9649496717186156 -1.6655066347146155 0.892537893615108
Ni 8.327879206886225 7.15421531723986 12.0265147896317 -1.3076383852396578 -0.3383682317688173 -0.8979554650862536
Ni 4.2095222852389 2.9265949779789775 9.047843285434737 -2.061152874269295 -2.0106119280969503 -0.2482847474171595
Ni 2.078659069304658 5.07128373850334 0.455418062726511 0.27558652055590604 -0.825081916854979 -0.33289846690349767
Ni 6.460653867323316 8.530148311418069 6.791854729424749 -0.6753336696528369 0.7191997749081678 0.727857707693482
Ni 1.856544065983251 3.477341789029151 8.1176245787734 0.11153265536436921 0.8456196317970146 -0.30943560789486707
Ni 5.944031644592569 1.539980710221111 5.776039718002719 -2.9772600705639114 1.7768117474492109 -1.0368647126913626
Ni 5.0602325506871555 3.3859174854720093 1.6185356974895495 0.3049644594973909 1.1351968102050578 0.6753123294965983
Ni 5.895091991100318 1.3522214916169588 8.02840034013799 -0.03635437025931803 -0.19460756960867776 1.8251135198783923
Ni 4.244026035650765 1.1423321538127016 1.513733445568483 -0.27089040063181735 -0.11463983353478321 -2.139203081605503
Ni 7.823362427545757 1.6969260729227347 6.844749690891042 2.4559020559310025 -0.278935639533797 0.8374370959862223
Ni 3.9523301644390143 0.14194256605376293 12.7254030045542 -0.3630649631845489 1.355740125842891 0.7916706883843849
Ni 3.536981211812886 4.073532564036414 6.132772985494695 -0.6658249588314533 -0.24578203559996378 0.3304592613343857
Ni 4.90174279604804 7.441980849688533 12.036368380107131 -1.5151657482337972 -1.9423558240330288 0.003603401080542181
Ni 0.03253673145914339 6.111760007288896 8.09951450253873 0.26382912290966176 -0.8773311039676827 -0.06880863413328149
Ni 4.420243930075338 1.735572862783679 11.091004459816869 -0.2550166668243543 0.5578751357223359 0.4621624781093589
Ni 7.7074498015306645 4.227370647151228 6.8600585915696275 -0.5813881312426116 -0.4191391804702975 -2.4317324006633347
Ni 9.154434072689401 1.7042781183736682 3.2437178290238613 -1.0813142012539894 2.5358317396781103 0.1434935245416819
Ni 8.160936911942516 1.9162482237583782 11.462788612807456 -1.1705471646798937 0.2929288684890955 0.8395793391402057
P 6.079152067339221 3.385251639846264 12.107346599025947 -0.24512743273510043 0.3289088861281303 -0.23324790768869508
Ni 1.9830084955952187 2.531304624828415 10.313719395962043 2.1307379815572856 -1.4736231489053202 -0.8584964877596828
P 9.055167587317932 5.80601664294511 -0.054690895084622715 -0.04064502721487193 -1.1167596865457927 1.260427788992126
Ni 2.293523753590176 7.9505481899189485 3.4482748531086114 0.22957611526406269 -1.3648243475323463 -0.287011474563396
P 9.058746507556311 1.388685787482406 0.3762897083914587 0.6739894969201167 0.13223620646030776 0.13074059575138774
P 9.146157241647156 2.6058423434881917 5.451358594320039 -2.4358708483117404 -0.5528540283586607 0.04011203752953737
P 5.230938722987507 8.319759589394502 0.4848003505336878 -1.7523903811820531 1.150723187975431 1.7115329808460586
Ni 3.7211430144668327 8.164118174376629 6.890972324316018 0.5091445032858521 3.003346483238318 -0.4657663934105333
