# total energy = -340859.2990369881 ev
CRYSTAL
PRIMVEC
9.37226698481624 0.00000000000000 0.00000000000000
0.00000000000000 9.37226698481624 0.00000000000000
0.00000000000000 0.00000000000000 13.71726009554005
PRIMCOORD
 96 1
Ni 2.732625046030964 -0.16240826701645314 7.038422607543832 0.0337639838243225 0.2962486768909478 -0.708702732031586
Ni 4.424684769198643 2.701509119383997 1.132130497608928 2.3134685972227187 1.0487897462637228 -1.5406443521208757
Ni 6.8356348651159955 2.3707055811516686 10.360537009448166 -1.325558202942872 2.085149237183893 0.3142669678452394
Ni 2.8635368723577197 7.298203105977754 8.813943306128348 1.9435871253369688 -0.08075423653093189 -1.856224896571216
Ni 4.607097203032953 3.7147261669593767 6.626643619119598 -0.2236453516019245 0.14930318924492353 0.5399031246249475
Ni 7.636523202394078 7.593973109931057 11.791658759199724 -0.619040908598379 -0.6683868060213585 1.5497105760882022
Ni 2.4737724020362144 5.651486410857673 6.5097180269299715 -0.8222282494562678 1.1297280737810027 0.192386650697959
Ni 0.8097901165338919 1.4675751824905272 2.7830675245871808 -0.9221685719973473 0.4265683830548331 1.10266978411163
Ni 0.770062950910048 7.539464004696493 4.524199500866561 -0.46068049424719365 -0.04718874187066066 1.2016788530876916
Ni 1.514108488455042 5.723905918448369 3.1259163004480275 0.543652821475367 -0.8585641077728245 1.8226786851846544
Ni 9.110621482759994 8.59854892727496 10.11720671416206 -0.27243177697700827 0.43761898444203995 0.7301279917848974
Ni 7.778944172673386 4.623011312504805 4.282789583101531 -1.2459540208559832 -0.187801859540754 -1.5572729618164922
Ni 6.567962917815586 0.12685269746205646 2.7736990064316656 -0.9179563336882127 -1.6911572454031842 -0.7481198003766277
Ni 5.004743749953885 3.7235360979979757 4.048100518046905 2.0340660453548325 -0.7464349564750371 -0.7238611849395792
Ni 5.835267195683084 5.003740917378216 1.2105660634269395 0.13098819298581957 -0.666514271588994 1.1035529580475318
Ni 0.36206754669888014 2.8150916239124877 5.018816208947988 -0.5645463770949244 1.241690360483623 -0.7674285280075688
Ni 1.8797581156251482 3.1538241000795555 10.88995481958547 0.17519111275527893 1.9610071205856292 0.6336074935586443
Ni 4.67287177327645 1.0871080010948624 12.770138436135248 -0.349076876435573 1.4206172861322501 -0.530042429780784
Ni 1.3471040616712175 0.1248292250032974 0.9652985205390507 -0.6429387982618991 0.4535647091380189 -3.347873021299047
Ni 7.443304544636891 0.6892805694196267 9.047233091710568 -2.3655604328219515 -1.0661002125177124 1.2359825114655683
Ni 5.316587191919101 9.259368733306381 6.867600856385517 -1.9945085947771843 0.35969913203610954 2.7496971290751357
Ni 8.640527311447178 6.70764718611269 6.351804699196616 -0.8602988310757442 1.7404324374892286 0.23272751640885078
Ni 3.1303934324237073 1.7621267917257273 8.762489559956105 1.401724305882489 0.6531946716619526 -0.4509833215640879
Ni 8.019811436175507 2.42663927097971 12.723211494954116 0.15608627360502797 0.26628092688426397 -2.2281503954701884
P 9.036908602314695 0.12493888052792677 12.547795458481842 0.402968484247706 0.48412869796780494 -0.02464993733819626
P 6.880012549656173 7.967907821184272 7.493506155929605 0.8503844001755095 -1.4995486105218303 1.3343382631283471
P 1.2707013405790275 3.0890898514799776 8.882461138940993 -0.6139336692788007 -0.15077925956981772 -1.0618645771698099
P 0.15291884661583457 4.1720646828003485 12.54402312098925 0.45540793299434473 0.4971199680211504 -0.20415638963937743
P 4.383934152011591 5.418604318892665 5.3981399737620475 1.4216750379728031 1.133491654588493 -0.009275511764654994
P 5.123237322423041 1.392250272110506 3.7343179540264906 -0.18832122237933374 0.9051491546212153 -0.46281810941548684
P 4.184492308925011 1.5482329128290193 6.689071352795135 -1.0795411685139666 1.9771919578756076 2.2725286644752476
P 8.38096237515569 1.5698922220100853 6.418827655412817 -1.8799312390492204 3.012666732197979 -0.5564790267057578
Ni 5.787599845404026 3.7794041819565805 12.144178777442198 -0.541431645454332 -1.1875526980989548 1.1923912571381787
Ni 1.964024168782641 2.949283743711062 6.766738392714034 0.5857183831868493 0.07669137931546792 0.8344021658146404
Ni 2.1038021597503698 5.369437405883634 12.085742692308513 0.3866072692808632 0.5471004137043352 -0.31969225262586876
Ni 0.46031421063326455 0.4500600132403591 5.436973025108144 1.3117467509810765 -1.0731643184533453 -1.3043430023178373
Ni 0.2055703685186444 6.411867809892324 10.847087944495742 0.5013031528645625 0.42033191522681806 3.1228832398540867
Ni 6.795334116747937 5.089544022333932 7.61008872314475 0.7003386763376068 0.25459937678127764 -1.468070337407891
Ni 7.351109553544659 1.8132618808178507 4.090719965286187 0.4997172964346813 0.1512448863523266 0.7137027563493387
Ni 3.455311186940887 8.286742974377994 13.071300305329515 -1.3469196993377834 -0.10214041551619184 0.1020044041589598
Ni 3.1249200284593006 6.828615037086304 4.130980412905878 2.277805339493155 0.624047360674035 0.7177792404115575
Ni 7.898084431569844 2.879657171704943 2.006917286220143 -0.29455791945208626 0.991471372158228 0.4929542666792349
Ni 9.054425369454208 4.274091182040975 10.167480491911155 0.5030021378335401 1.1093507956762314 0.8629987465054105
Ni 5.1922546970701084 3.789826142929902 9.005477767494433 -1.1030022277503841 -1.732763865200377 -0.18112367618963
Ni 6.103201566461241 1.9812503956432206 7.480913577904646 0.6744561521438901 0.11620075026399988 1.9307856026969263
Ni 5.261084626375928 6.009357056366037 12.900534787773575 1.2831409143189256 1.1171008719352953 -1.0935205135121941
Ni 3.706319243404458 6.160072482995516 0.7465245021829827 -0.9382428518513904 -0.2622180696688 1.5977207854188937
Ni 9.29322136193555 7.767913014341013 2.1695907883944603 -1.2836962726017633 -0.935032572444209 -0.7997776337622354
Ni 0.9491669744713523 6.406881763815159 8.840856708224562 -2.43934492290327 -1.3567305147806183 -1.1452791341417243
Ni 6.860855635780751 8.855667701863178 5.501321136304753 3.1807178914743672 0.20296494043443752 -2.528317947799568
Ni 2.063604506319996 8.68620774110902 2.8805972100912958 -1.0828005559915288 -0.01814067546476876 -0.9726917775578797
Ni 2.651695519947664 4.839248258167098 8.6763724840538 0.5088624532690591 -1.5378963570620932 0.8136065692255278
Ni 4.102831746010848 7.090551156944564 11.009006979171541 -0.8328844436185334 -1.6513707095338654 -0.009191436691280945
Ni -0.04419961146599223 4.724850366404183 7.140396622088909 0.8125506171571878 -1.3895606739367616 0.21446111399949516
Ni 1.252462908875715 0.5739051502021109 9.09140271192196 -0.45216551479764705 0.5164896307970137 -0.3534009577322236
Ni 7.136840783965457 0.45130558753294403 11.540153035355141 -0.41701287815591404 0.028321215542196385 0.1650131437810126
P 1.1819084824304247 7.721557781450683 7.2319318055799515 -0.6070405417033932 0.4523110392365759 -0.7753817214163743
P 3.6025307579561128 4.536205374973418 2.488091351654056 0.5789622954099384 0.2485572843522558 -1.0463587682247268
P 1.8563743093046114 7.624648540026094 11.640769008402884 0.13856831932592265 0.11314833659092126 -0.5552796070810178
P 8.024338241166618 5.80516347387885 2.3920977807214583 -1.2234352709281768 -0.12150647874762945 2.645793965231566
P 5.002991136013227 1.0456169748098862 9.790914048066835 0.9772336312922912 -0.23883517196848544 -0.03601884129677023
P 5.190108447912832 7.757790965913687 2.346556997838845 -0.20565688544430388 -0.43124933347027017 -0.14271756560760582
P 4.22972286976786 4.989129553028029 11.166439509604599 -0.5839312093794394 -1.3393370018945192 -0.16821082478270383
P 0.7012714478991836 3.6997024228584467 2.5973766717344637 -0.3339978706152635 -1.4821437847818215 -0.2902366663689131
Ni 3.2014727058244885 1.6623121475118134 4.937404011110977 -0.9808622291838138 -0.6967471023316064 -0.1987388181682319
Ni 5.507931396263821 8.148005305054184 9.472302892055906 0.7056909417884556 0.9689605926502217 -0.6039197366862245
Ni 6.333543774052354 6.824753663056621 4.054835429157902 0.036921041396065446 -0.2871585416642216 -0.937101796268412
Ni 6.889113020973704 3.2205733860975356 5.836982320555492 0.8519980245195327 0.7594647930758017 0.5923564573286573
Ni 3.0965689205957245 2.3743982543742304 2.8594449405583022 -1.1613140761174 1.0055563894963842 0.0732134480691965
Ni 2.8818221653963434 4.163835832319615 4.697393372818355 -2.916171945003339 -0.4495918405331999 -0.8269318255795243
Ni 4.829576078558763 5.909195638270817 8.560366311262989 -0.6037323032657668 1.8324301081444634 -0.07307923648417737
Ni 7.4859952211058465 5.1410352575744245 12.132779289014275 1.9595462197693865 0.07024973745518225 -1.3254733565385495
Ni 0.3310256609617061 2.620448381561825 0.5079899959526784 1.6828122158725989 0.0034229096386199113 0.5305167983140412
Ni 1.9138263063967516 1.071849950317374 11.653128216977994 -0.05476269756317665 -1.3172851643008023 1.7953725411705337
Ni 8.224764172294744 0.6364312926818014 1.0112441853587568 0.07185950514446333 -0.4076676894955882 -0.48923799416991226
Ni 5.493441871385445 8.800015180047007 0.36156238150422004 1.6890034322849752 -1.0395589716940743 1.8631545338115139
Ni 3.033465446464994 8.913110326688255 10.208124265253696 0.5319337332662258 2.391310545202862 0.8169006665957673
Ni 0.6628479646237111 5.471042153106454 1.1777612542553397 -0.9965066205892902 -0.8881544198354316 -2.664844554105114
Ni 3.565857076941179 0.44141128519523243 1.6120524281633126 1.7873640690437602 0.07301907267020327 -0.6817066630587163
Ni 7.58256706091619 6.549443318100402 9.758582538381884 -0.7002677138903552 0.5095273405465676 -1.7440152697444802
Ni 2.2628963931335795 4.0235986002658315 0.3126644525598771 1.0750533079459423 0.9510723995158911 0.7652371767832047
Ni 0.22338142484391404 7.472855302684446 13.357250985081608 1.142043400813246 0.788939662606467 -0.5480676627136108
Ni 9.253201781579362 2.011822730800571 10.564896481062354 -0.5861942943820033 -2.447634673715888 1.1412926386901507
Ni 8.46312904049122 2.8123642941973466 8.550502937406584 -0.8183379132629262 -0.4157921183749355 -2.862069249621664
Ni 4.119673709921872 2.7670118938826866 10.808254893149645 0.02645742286058024 -0.6317465290905055 0.6465398853495962
Ni 5.032748083936155 7.3256263594021584 6.009092758434879 -0.39829807535523015 -1.6718351480358047 -0.16954651287499187
Ni 8.84883531917473 9.401414812903194 7.64933415424159 1.9591996350632455 -3.2672753649506374 -0.9624942681995875
Ni 8.002257179967746 6.005992412490658 0.43648897053409175 -2.079100716996968 0.7843281319763847 -2.2326459693476965
P 8.5918946176607 9.144642812196286 3.6041006126890545 -0.05295315515826364 0.9240200233837892 0.7614643400043337
P 6.588797467495166 2.145490003643655 0.3949407734200353 -2.434413289929607 -0.360169901024941 1.047764390323002
P 6.967296472807739 4.559336130083271 9.63442717938037 0.9404200620083675 -0.6435887731410723 1.1335132518550477
P 0.211033462989282 5.256473470981256 4.956210402198267 1.8833911725733627 0.4190137106360267 1.1183725395588675
P 1.8998428839397412 7.231013323407843 1.3621718554273403 0.6547535315086401 0.17359651457464942 -1.539616939297626
P 2.664976022374999 2.045647242628554 13.790373437286906 0.042334499102152895 -3.0697547354602226 -0.9247725852790977
P 2.813770134256698 8.937178308504341 4.628614990981378 0.7743077716259053 -0.26641848090339276 4.094442960690051
P 5.5257949372846396 8.325806583493824 11.97872077472366 0.21857076529249453 0.07876780222852241 -0.05007377672793957
