# total energy = -340892.61909434944 ev
CRYSTAL
PRIMVEC
9.07896385829911 0.00000000000000 0.00000000000000
0.00000000000000 9.07896385829911 0.00000000000000
0.00000000000000 0.00000000000000 13.28798132235508
PRIMCOORD
 96 1
Ni 6.455515439094653 2.034686558237152 11.569313475553917 -0.9406293498056961 0.4055133621567468 0.39833715612328174
Ni 4.727815880963131 0.5448195335917775 6.246732865808369 -0.17477407982251836 -0.5095144850307612 -0.6512699438354139
Ni 2.729672151680085 1.4438457575724901 4.775035571246436 0.2255986186735534 0.3667089876950394 0.7677630285288519
Ni 3.601479642442311 4.382588285688634 5.050642041166483 -0.0777326760957887 0.13662867910104856 -0.48999929781596896
Ni 5.026468392378111 4.539145935995364 2.8461262034635673 -0.06541580640164862 -0.9314723658967764 -0.42307836762370354
Ni 7.027826074816376 5.870503333135217 2.6438169313062967 1.0896564025710975 -0.42149559651761603 -0.8848222701384051
Ni 5.2419394382334605 4.614528571723548 11.626890447643643 -0.30750548075168976 -0.1661860810431912 -0.8472296565966119
Ni 5.435039917494296 7.657633787747129 12.337411963796209 -0.41948782205896784 0.7536718405431084 0.14618264133807082
Ni 1.9098417281879836 6.425064594793517 0.4737203529444758 0.25446028010025207 0.530972397794221 0.014504107153445987
Ni 2.621133140463606 1.5199910262527587 0.5305256131184003 -0.013276662504248101 -0.4410141261665179 0.6514275524592008
Ni 0.6124323921724018 9.08813346865812 4.8481466502530495 -0.6483723105726447 -0.03198632309860943 0.46760833171527855
Ni 8.583724402563169 2.3099244222303583 1.3715853774660007 -0.1082195318307362 0.16096365630198728 0.12847391120439808
Ni 6.871549872384819 0.5052525018241039 4.778158734764501 -1.0412132194680455 0.7925587474162931 -1.0533264577918118
Ni 0.7704744530465851 7.706696507664642 2.5838349417283872 -0.0719093845457923 -0.9991435439915051 0.5370160328851397
Ni 7.74098775361735 3.6249578426100917 3.6092412485225256 0.4371176193255891 0.28098249476049675 0.5052030021396009
Ni 7.600626974578726 4.391349485673904 12.884584764782991 0.2094693172118586 -1.3844891729511255 -0.6881421342714148
Ni 7.659340632925607 8.969961676939702 6.839948723380956 1.214406070846373 -0.6477413618568651 1.1012119686191808
Ni 6.842043240310076 0.6783311424035764 0.33877335996928704 0.08261057301338032 0.07968542894678535 -1.2881756485293556
Ni 2.0039270291696964 6.665493711902242 8.9292443404693 0.3513574449396336 0.23370504983077167 1.1023144576547401
Ni 0.3051421546786802 4.744648279691308 1.3350434564082672 -0.31837584780729045 -0.31266645612733895 2.2310930230382806
Ni 6.495199589494255 1.9641884049878036 7.05959881623446 0.04889518303880611 0.9714813021895463 -0.5360325859259478
Ni 3.556357192777242 4.272760061624581 0.842783859557137 -1.3758111855611532 0.9322161860413365 -0.16191007937565663
Ni 5.953239929472798 5.5157065101047875 4.957015227852395 0.2445535625095014 0.4119490904797615 -0.09946441134592549
Ni 5.7195655613682606 3.023585444035675 9.173876109881839 -0.11388444342599742 0.8421036482239562 0.6035201872549606
P 0.3555612717752587 5.452989028759456 12.588793942731076 -0.2614099719452078 1.2369921836770053 -1.525350916296915
P 3.7487131970134233 5.997772246496372 12.759372236703355 0.9154063135728493 0.23436170957816413 -1.2958347077365102
P 2.43279003818959 8.377713636899168 1.4260001464936851 -0.4706422334455959 1.6625172130689885 -0.12133164373266199
P 6.25063046493135 7.670789206170608 5.678233579054332 -0.2697673427709677 -0.1370948201041897 0.967374221999708
P 4.541869625109956 1.1120187127417833 12.523988299731224 0.8808699703588765 -0.40982818748201677 0.617993184060155
P 4.222871156008977 5.978515764456209 8.147738038612246 -0.934338888811294 0.20230519536325156 1.0331916347151497
P 4.713035328034614 0.9113100618875212 3.773999018856921 0.6024017573798013 -0.5327243474883213 0.3073589278714965
P 0.196156458447408 5.6126335267293905 3.5495652200218215 -0.18705855361682625 0.04645289214590065 0.025145388917376048
Ni 1.2767292724648587 1.06632428836265 2.7580666106997036 1.0921413737764802 0.14333385903536605 -0.9536288473891577
Ni 1.6417036138201464 6.851839442158891 4.853129185540009 0.37599966896834597 -0.8808918247357475 -0.3592173073036846
Ni 6.348074982487726 5.68817958380445 9.25130514403145 -0.7314755069517273 -0.8553021491921011 -0.12653889896521434
Ni 8.404768948770778 2.2977495318881336 10.347856026291469 1.380897598945125 0.5244093998647227 -0.5419178410621311
Ni 2.365496759131744 5.582881762634335 6.791566925742091 -0.4225870298095819 -1.6326949875012335 1.0056443212245003
Ni 0.22272513786387851 0.15776152089538034 9.275714845876422 1.9737921881654394 0.41626134470187026 -0.31803517663842
Ni 1.6006394609358185 1.1750811947082964 11.517716816863464 -0.668083672958643 0.2741202204230247 -0.42655732731123963
Ni 4.084017484947092 6.9908202187127895 1.7352904796938886 0.10919655103202486 -1.4505428700470888 -0.6473502970660335
Ni 5.7630810344557215 7.747479212673794 8.0623758059682 0.46186577280454644 -0.34660038987062247 -1.7973551188182013
Ni 5.372649278842716 2.770836173165281 4.900301665211995 -0.11393200883448121 -0.256345670048423 -0.18901696289477768
Ni 0.623831031116968 7.561887036405516 6.934758525667149 0.11116267361946017 0.8042007025305956 -0.06446449823197285
Ni 5.326328405967227 4.43668983046814 7.133944634306355 0.6527809811633016 0.15891551552370697 -0.13647904089706173
Ni 8.195008571092357 7.3127875089486745 8.974542922030444 -0.13100310538415502 -0.7078185296544197 0.3699868871153628
Ni 4.709085978818456 0.4024023692716352 10.468032453198227 -0.36247900877409184 -0.6852979799544004 0.16704894326411876
Ni 7.965183683603109 7.1583180202964645 4.456815169335858 1.1930620579529583 0.43553947620519184 0.4255749087933122
Ni 7.442961690698727 6.158333719801553 6.924234190928367 -0.6176710248340459 0.3093109093915447 -0.19406069596627223
Ni 2.377644412582823 5.481805659591836 2.805066590061098 -0.7073904409780656 -0.48253975621413026 -0.17847543993350554
Ni 2.0905403430137124 5.368354929005377 11.207268915789559 1.399718331196054 -0.2704144894366633 1.2041915922072164
Ni 1.1821264705513737 3.498496957019599 3.8874651836816962 -0.18907506982622277 0.3544967618995637 0.3307886196493464
Ni 3.691869805191894 2.50481345734311 2.7281950042836045 -0.1532025242993297 0.26502571432092425 -0.057980690279842075
Ni 1.2481759315802223 3.3010022593205552 8.156348527799842 -0.21208207224435732 1.0011477189057274 -0.15164546422485498
Ni 3.676943988843932 2.8438038045451925 7.2313056253965495 -0.23186259730539424 -0.5461419064458077 -0.05124002912189885
Ni 4.064987976999811 6.9708737354302635 6.152959881178464 1.392264703131486 0.562294090725638 -1.1018025510153282
Ni 0.6917344165364822 7.341422560506748 11.168335595689214 -0.8398053391080827 -0.14025984809573264 0.5199508498727368
P 0.3837532699040258 5.681769835421443 7.971632471530091 -0.9130069601027372 -0.8331418110449781 -0.10238004233082366
P 8.683384187266078 1.7286710072490592 7.957361248466001 -1.0225120435141164 0.05494267478446666 0.14685009971874063
P 1.8654546745838545 3.224666332402265 10.555135123186497 -1.1079359176065757 -0.1631112987726094 -0.8639089170245057
P 4.119561627892513 6.200205900456543 3.852079014704921 -0.6268310940667592 0.8177064503265143 0.5082240483541118
P 7.075381686757147 4.0657596889156125 10.524572607631663 0.5750709307753322 0.23786278075288714 0.5696705856953673
P 6.275988010588199 7.763322004357003 10.063891462375109 0.4800056769383668 0.3935919281288125 2.5699232820451803
P 2.52353428052407 8.541543537141859 6.126343991150673 -0.2407339316530951 0.2818625833726049 -0.7799467150792374
P 6.755511637139498 3.874302502087246 1.5361833580390063 0.4152886963759557 0.31967554045532043 0.29756688148173915
Ni 5.104611033075748 2.675661396537732 0.6754131634654772 0.5826955372001255 -0.5932278041900171 -1.021439122164912
Ni 1.5450398871432869 1.1701785543020315 6.997410638473731 -0.20076741856248648 -0.25692596803192524 0.028425859440860724
Ni 6.833935725712308 0.7462054751392015 9.103901812838863 -0.16726645859156353 -0.3758562014119462 0.18261440180254354
Ni 2.556300260572608 1.5143439108218384 9.195960689119321 0.37789560043947823 -0.253308425883996 0.7345032380344576
Ni 6.3475574815559535 1.951968119827002 2.547638021291835 -0.1485118036918797 -1.0730157086906231 0.9001306183607014
Ni 4.091307892810482 6.928819975500968 10.26636052429377 0.055755143383433015 -0.24275044786249161 0.18051072519597947
Ni 8.414456203055009 6.910180862993445 0.7093975404446092 -1.0899009144817358 -0.9414721574219657 -0.455588424436267
Ni 7.800818124501215 3.9137505994302493 7.98845488339818 0.5816316147119853 -0.19548200179383107 0.3715791713031472
Ni 3.040544948255866 8.541107746883524 12.510660380997155 0.06929045886570646 -1.1234473829786138 -0.48062351302802386
Ni 0.2020586927587282 4.753191584547411 9.940340384655373 -0.9832878079061712 0.06610537626950551 0.6630633369259161
Ni 8.812096655857967 2.5190583514124243 5.774545041939037 0.2627397465002249 -1.0812697211692992 -0.15428290184770202
Ni 3.495355635574103 2.894600606532328 11.908236638424507 0.49527134484818575 0.5878290017719489 -0.12553976827673863
Ni 1.1582669539075503 3.276361951797215 12.89109528966324 -0.293195748997237 0.2127901540549755 -0.7371082797574724
Ni 3.640619055018994 8.53316365363263 8.139685905693142 -2.1618185050121737 -0.2476368294205154 0.6071634404345028
Ni 5.747247321736228 7.732408132906387 3.375346261599707 -0.9640089050719012 0.8534136739201368 0.9363381786295101
Ni 3.0422154775794823 8.407265663792487 3.6739542860924814 1.0997618664362157 -0.513531062389322 -0.37778504300354293
Ni 3.511207506221027 4.11960702271109 9.491471879088804 0.5371402171678298 0.6892129987380904 -0.5725209106599688
Ni 7.316573436817957 6.401241394004556 11.549780085120437 0.9903287739133526 -0.3779038279695944 -0.47029384896724163
Ni 0.4236571312255373 8.779875413632348 13.369436835138803 0.8775007967763275 1.016916808814526 -0.07957564284179844
Ni 4.636999006918929 0.14041252913180277 1.3509225639463367 -0.059089607073304684 1.0529881006157864 0.12741230270910317
Ni 5.782582648516197 5.63041013768396 0.38815929099506363 -0.1923578543425526 0.29128979022377577 1.134634767054001
Ni 7.875401811422452 8.999159624248126 11.130730527980418 -0.2661837391847674 -0.24017034584014121 1.4175846699535135
Ni 0.15264098535994797 4.99655320693618 5.907689860616738 0.023722026207288176 -0.9750484507155144 -1.353803056721178
Ni 7.734441820778616 8.732782828841056 2.2172590711737197 1.4355556526096374 0.7128509498720046 1.6014439999067518
P 8.401745653853581 1.2908379820784437 3.5043864807817178 -0.127286061543884 1.4593684387585188 0.3412378400071285
P 1.7717052952596082 3.1465690865232054 1.8732998071302498 0.47244200565849603 -0.2544116862505038 -1.433201550555164
P 4.6896842333588475 1.3178932939500547 8.476270327510669 0.07293885425157115 -0.1409072518717444 -1.1978209127941823
P 8.729169401282364 1.6071036831011165 12.541781252820481 -0.9767191535497179 -0.44082437875321495 -0.07668623710914535
P 6.35367670310007 7.647810349007169 1.1981798941927773 -1.4707926214350606 -1.046527175481791 -1.3428529854675777
P 1.982391727236991 3.2155873686869594 5.944405189881434 -0.7861937244302137 0.36357018495574156 0.32287939210459876
P 7.086566970054403 3.818693849330999 5.8267799517786765 -0.291978074540052 0.793238289981821 0.11677307782770212
P 2.2169649127493436 8.474386442539743 10.216304565745805 1.1661328376622822 0.814136730697385 -0.40034364503034925
