# total energy = -340861.2229635976 ev
CRYSTAL
PRIMVEC
9.37320484886118 0.00000000000000 0.00000000000000

0.00000000000000 9.37320484886118 0.00000000000000

0.00000000000000 0.00000000000000 13.71863275437751

PRIMCOORD
 96 1
Ni 8.579641129388143 0.6066750544498584 6.206981186337109 -1.0459574190212502 -0.05507328682505999 -1.6249752502594723
Ni 7.444817855363221 7.831575030349934 7.1726087411607065 -0.3176276567873562 -0.22521166764777986 -0.2506635320619812
Ni 9.159580054568163 1.3617110685508413 1.6295129018731573 -0.7473075888879775 -1.3328246546972982 0.2581325867455167
Ni 6.431171372531846 0.7838792398018486 8.6756630509556 2.420176320394619 2.4065505020810685 0.31809379779049735
Ni 6.7080933340898765 0.5804469528782471 1.1405315557264148 0.47472257416255664 -0.9529891569226299 0.855803514308552
Ni 1.7800934364124805 8.850732957582748 4.350658287537579 -0.8740272364054301 -1.32405076515941 1.166000940070108
Ni 5.123365604580796 0.4108397499877647 12.996429251179183 0.862801800003256 1.9954095093248987 1.2814270169516124
Ni 4.696294275902601 5.558713473065913 4.501632496677004 -0.10807117917833002 -0.5649829504117108 1.645226801419657
Ni 4.249511097604974 9.160358030563605 4.474154009589829 1.9671335451983412 0.20528844636129162 1.0513222828775894
Ni 4.153529480818005 7.9349614789007425 12.179347308140569 -0.1849816164831395 -3.0806305018324625 -0.4073560717924404
Ni 3.0658534267577737 5.2038533138922904 6.429085834471778 0.634494524149288 -2.2381123917789068 -2.1030364018769587
Ni 5.121819025794678 9.125255378721105 7.239061950978536 -0.5509794370437673 -1.1192307737941045 -2.7917796600674825
Ni 6.065869463250735 1.4645163784062598 5.6052411241956825 0.38794475714536414 -1.1883325136877727 0.4012515015565993
Ni 6.61692017134702 5.715274112244893 8.08177023584289 -2.847472839864728 -0.7197111673269475 -1.6484751331536254
Ni 8.852926287497606 7.772017687277238 5.029621371771077 0.7798371860845666 0.080904388955551 -0.37479305025475457
Ni 3.42050737542658 3.5271275796210895 0.2934787904537832 -2.3900897854218837 0.08645745756329626 -0.5732125374103547
Ni 1.834879818260121 6.368811441234608 3.8612598337788224 -0.22619280061412655 -0.36041852670063734 0.5101300071275732
Ni 1.014180755502943 1.5132382967713642 3.7221802214853597 -0.23275888386741847 1.4426467551284639 0.419148179331362
Ni 9.304002393577306 5.105490903095175 1.2033629592232993 -0.6551422823066266 0.4928125988950481 0.1925252331583523
Ni 5.287284209499792 2.033469907602458 10.747588405744766 0.7140881647132153 -0.33932879590987364 0.20766568834421656
Ni 3.550935519722545 7.512342422485616 6.204306073697364 0.41079389382939574 -0.5771344981725801 -0.25948087324329505
Ni 3.13495269228058 0.5729315172981894 11.742586897697462 -1.93890231826679 0.9111894472780243 -0.14301555646399886
Ni 4.539274349690168 1.8123278875970887 1.440923084693908 1.3395959119828607 -1.6078324199315985 -1.1783882579908673
Ni 7.8111414439636455 3.5799174688539233 7.012690620035135 2.0998148096158675 -0.2783985360834044 -1.2704221812006766
P 7.3746406712925126 4.94848972329227 1.98766493056002 0.15212703184696383 0.3815095430429817 0.31795727221263304
P 0.860613917925697 3.293397345617195 8.054168022452826 -0.590704523547531 0.39125685223773266 0.12248555483144713
P 4.1220261396050155 0.6731170164219712 8.78996647109545 0.15180641528275146 -0.6681386945662945 0.590282605518764
P 2.070540932445472 6.3055141894609354 12.355810072995698 0.841049753038145 2.3502528559306044 -0.3815211130072075
P 8.516690686190753 4.041950851303152 11.353018698601922 1.3281408760683837 2.4923248175344113 0.3073152191177546
P 5.755672624779253 6.834181684579947 6.216584971938664 -0.6504225082334539 -0.10124875693985788 -1.226239316035875
P 8.647549997905879 2.4230859100422992 4.994227213260404 0.5043583947511184 -0.08070075758517714 2.105882355966186
P 5.47637924241584 5.8339951237901815 12.136339295399813 -1.7906910765344644 -0.1841218395860055 0.17285038043724424
Ni 2.9823756651264497 8.06840779513083 9.654926744070377 -0.29517498421079486 0.5154578470983897 -0.14944845657353617
Ni 4.680969086112885 5.682692852484004 0.4663347461155903 -2.104514529084382 1.0908100565595664 -1.0605517718956574
Ni 3.6236903351034493 2.9428863534542327 7.50999068541024 -2.469207000570025 -1.9467035594787634 -0.4165523935797278
Ni 1.0199452764330197 2.5044078345778216 11.19775156168042 -0.41128214631972393 -0.9116118795274235 -0.6314881332227963
Ni 8.006094729857413 2.1359471552911238 11.823815090185342 -1.0681740643276056 -1.7133636062968944 -1.3082657344110113
Ni 7.6543089818464995 1.5302319170091354 3.391095196196518 -1.3723466240513202 -1.1769551250887667 -0.0016123387924423846
Ni 3.1023526861101622 2.0571278764276837 9.86019899108922 -0.9350855371693314 0.8002923686151249 -0.3257505430048067
Ni 1.2343573354175836 1.721154724854232 6.633411387809421 0.43098065318991585 1.1002202941298729 -1.3891760369038333
Ni 8.126306080960234 9.023893542399396 10.521011801617027 0.2973537370296685 0.009599727873293143 -0.9131265163997371
Ni 5.334515788307365 3.6628890774279714 12.762594974602404 -0.3656579207227057 -0.9664398831108969 -2.2360909904735036
Ni 2.086878428349739 4.151907916393771 9.579460260551146 -0.07915372481303143 0.29047166519785456 -0.3327740255104914
Ni 2.0082559867863496 5.8063441697353415 0.885323560325483 1.0595726958118399 0.10766468776853072 -0.11598554892940026
Ni 1.2310017281119454 3.170177195785017 1.903419503458496 -0.2361296001118643 0.7727995625114948 -0.17395184103153913
Ni 3.7589737994673493 5.458973201168437 10.686197663820165 -0.7489129857018844 0.9674156167606048 2.9710613979523672
Ni 5.812089944255891 6.3655401927718485 2.6360216892764776 0.6236642663030033 -1.3332195761428718 0.7407129663895953
Ni 0.22546962864507059 4.838260835263484 5.753292768089583 1.291625554751169 -0.28157333426696024 -0.7684623685887216
Ni 4.646194496437137 4.272325478001408 8.999107039720542 -1.2603095182467068 -0.11047721751666136 -0.7474456571277386
Ni 8.57689478039219 3.950833927788881 3.59690171588693 1.809059294629007 0.2239106894481692 -1.8883428601516834
Ni 3.379387126125365 7.629488735630494 1.5456236565526786 -0.34444734808336164 -0.3085573190549718 -0.5042478373151832
Ni 1.2648764901303156 1.6091543011249836 13.664046071045432 1.677328567050208 -0.33069580282522404 -1.2154969899177066
Ni 9.292670189017205 6.443422151158854 12.849982299940939 0.07586862630385643 -0.6696559025417693 0.17313165912308892
Ni 8.445219999862566 2.889243502587843 9.430846224371384 -0.1715864261231561 0.00460433154123078 -0.3321500187732473
Ni 2.015735804188303 6.088205810204187 8.07010903179556 -1.1727667980390317 1.5300781465692552 1.3211269066443956
Ni 6.729454867747836 8.414119706454443 4.813291555091727 -1.4295701244501637 0.19085273055193583 -0.7817536863809891
P 6.391897644569209 3.294128455588815 8.48670299218816 0.23731539288984935 -1.3339891073190446 1.1796146741988007
P 3.1315877117701776 0.5107553008143333 0.3155629981990742 -0.4020601135008237 -0.8731926563192768 0.3579749502561512
P 3.4868134259296095 5.488705006680964 2.676628286956605 0.4307042596000776 0.4152424165190526 -1.0205549197877457
P 3.074879822945845 3.1123070295699042 11.790355561138034 0.967391962611521 0.15596414620486687 0.3984394860291009
P 8.320293926763275 8.6794657601285 2.7489125674583397 -0.1542512772788182 0.6384429672740747 0.3761068839701716
P 0.5865517211412699 0.3480027225680218 11.397343646612066 1.1428011049148767 0.0338611715238191 0.38011960467399053
P 4.103654658266884 6.382674411081085 8.823838421152391 0.1577945145453863 0.56605690020218 -0.9407514772058574
P 5.431200395451661 2.543803414202395 3.256377873400385 -1.3953196879077259 -2.141432485156654 -2.1928051832016755
Ni 8.612850393868246 0.2930016943312777 13.14438435106401 -0.4377436829453622 -0.8522199107223517 0.3466564399195385
Ni 5.718789064031525 7.626395578058257 0.7381408125132376 0.5999237281529539 1.8792761219637248 -2.0091733958782108
Ni 5.5877516614258775 3.9607039124057444 1.325742332588115 1.3265174815323477 -2.1051709317214584 2.3284501582332156
Ni 7.167849027781368 5.0498984256378 13.36508957972736 1.2594181167806888 0.11472236594626048 0.3778740031729234
Ni 0.9764817259407171 8.099329997648429 2.098004422405025 -0.31556434650042425 -0.11254361312738682 0.43997720026157133
Ni 8.685595836044385 6.320436331445785 3.259931255326551 0.3910766179061265 0.9957746275192723 -1.6782557068501678
Ni 6.411375164069534 4.8723605541962 10.276737649573713 1.9110626703467024 -0.30148164315511305 2.1587552927058176
Ni 1.3364315353013827 4.401553852087536 12.568160964252582 0.1099362574115268 -1.0227776384706773 0.2711649944494427
Ni 7.388850449715271 5.477569639420913 4.842279128145963 -1.7184407637094854 1.9847474016253626 2.263820595178288
Ni 0.6646436393149965 5.880017559183154 10.497099818942688 -0.4082613572155292 -0.0695722517721834 -0.12195616469053835
Ni 6.495040389796144 3.4663142271099705 4.562680179307233 1.5076848664757196 1.2985626481906345 1.528746315131709
Ni 0.34589281417556605 7.881093671120008 9.037409703669592 0.8425055116480651 -0.5735357250777283 0.42426930260801127
Ni 8.987403656251772 3.215918435035057 0.04519946801466073 -1.2321099158840392 -0.6516790063483744 -0.4579466402557984
Ni 3.3535077077709876 3.257329253683967 2.6759149860740385 -0.06501651408070093 1.1794616935607043 1.1669792448229772
Ni 5.473229845615017 8.461482510128716 9.807875887453653 -2.0706063063727114 -2.4652690989681996 -2.571903545700003
Ni 7.207338339453584 6.905249323103268 11.843487572344765 0.723352877844593 1.7284721798035585 -1.3805109050296676
Ni 5.4326626153949 3.759770521872319 6.573680640448584 0.5556459892815011 1.8016676301506265 0.5014157671830268
Ni 8.037785535165689 7.613020014859527 0.8132389290852299 0.6312153391773838 -0.039373616701616064 0.5250053815775088
Ni 8.870126118240194 5.871084895042724 7.76216738639038 1.948541898239083 -0.5989140559415169 -0.45536576690249964
Ni 1.0677486207312177 1.0101127846352138 8.901897533109443 -0.8194676559919951 0.23334740938103682 1.5378788735605966
Ni 1.2653545235732975 8.24398666677668 13.4954989776138 1.1816070220384811 0.5996460490115351 -0.8015948894766324
Ni 4.090991458630245 2.770644342704491 4.974678457403872 -1.6388959741056226 -0.465637838252469 -0.003870024478367528
Ni 1.9250125552741348 8.893662235403482 7.278845581280354 -1.6650379226083132 -1.6415148997857083 2.9814892781539104
Ni 3.0760139807223315 0.2426882057971862 2.6603582781266426 -0.6123863793963389 1.4761885956396514 -2.0552143972976733
P 6.904836902093636 2.3273198769649093 13.654223889772867 -0.529966582237526 0.05073300757849328 0.6481157144771483
P 7.8288755473778 6.682101437278327 9.418334870651925 0.8875219284577553 0.9329900880928835 2.5602520775040034
P 2.9346191868520735 0.47517555284932755 5.918122448511675 2.157282564815033 2.664289195822276 -1.4348084900309679
P 1.9432996777693867 3.8389272361072764 4.354952152640129 0.007784786151741431 -0.08318521456992771 0.21416440869468278
P 8.520158771953563 -0.03595280151462697 8.139662897749437 0.10246694561767512 1.812486575143001 2.004118607063123
P 6.291135693352419 9.045311315285943 11.441833563026066 0.4254913479405705 1.2794614085848095 3.6025721568829825
P 5.120844212499185 8.346876335474978 2.6199297713370373 0.35933300694594245 1.8675279802888611 0.6060085008944531
P 1.2433181191723046 7.315336404748455 6.010818757028739 0.8820614195638163 -2.470487667054661 0.3412401539999736
