# total energy = -340858.6627567367 ev
CRYSTAL
PRIMVEC
9.28923737569706 0.00000000000000 0.00000000000000

0.00000000000000 9.28923737569706 0.00000000000000

0.00000000000000 0.00000000000000 13.59573786983208

PRIMCOORD
 96 1
Ni 0.5200626100209765 6.664832883072227 13.236158442909096 -0.9707086856895798 1.119215604285453 -0.09987964450647314
Ni 5.208131804166985 6.197686414873409 4.510630822687047 -0.877015886720109 -0.4061785065445714 -1.0893239589323434
Ni 3.6858022618239206 0.803251519833633 2.4605155982066287 1.1613819532408578 -1.1723847321092649 0.50662096553305
Ni 1.739493338273625 7.977179210126974 6.452591454130443 0.770792302273479 0.26519052203356264 -1.8543495339253742
Ni 6.007647192649635 1.993832662962595 2.2768915234492604 -0.4809641841968942 -1.202689039519761 0.5165965886885232
Ni 5.82578249948818 5.024641494430637 0.02029884193974936 0.9271056042876485 0.5264346578248676 1.1344506760676527
Ni 8.015302241117606 1.8573551845721517 7.677037441747576 1.2700082335917096 0.9673449114236695 -0.41066199623722177
Ni 0.20052955821249835 8.758822105523372 12.129383872220288 0.3552940609898784 0.40614791041695214 -2.1896362985553903
Ni 2.370892105199629 5.428806931899315 -0.24288383691663856 1.2859346750139788 -1.6779168354535101 0.1468189893704891
Ni 1.4504680004952242 5.43580172779014 4.1647692848316025 1.6295402439223357 -0.8358430120262251 0.7245834078175845
Ni 6.542456467314284 6.642380795863563 6.22446914463759 2.033594762145369 0.21898831244588737 1.329601262663994
Ni 7.738938134148229 7.963403270809452 13.495238065530454 -0.7467977391310945 0.9314178585097571 -0.5577962028552845
Ni 8.31321737925128 4.773878526206431 9.877834317787974 -0.15310842192362664 -0.6386877362950291 1.4669825036603512
Ni 5.673011698398523 3.601465273918473 11.612351411494911 0.04726536074486699 -0.022909814718637962 -0.1998932434876493
Ni 8.285851285367652 2.8593387951483296 2.208070349058348 -0.6270930894788943 -0.36921555616697704 0.06803678896426348
Ni 3.7521088396044124 2.756321150487969 1.5008472515367932 1.136949017009474 0.8643768577998598 -1.97085804523778
Ni 2.2154181359768645 0.8548123618942101 7.814857214967003 -1.3851769430467693 1.136411142228133 -0.3210958178416148
Ni 8.633593893831188 0.6260620999415696 3.393237724531038 -0.8967223640101007 -0.36206223295164736 -0.27353940821889017
Ni 0.0219467526848123 6.713378438617317 7.545988593793518 0.47270142996746983 -1.117939565786507 -0.4476097771061647
Ni 5.494556155425558 7.69301214359811 10.041567348134953 -2.6930888936627873 -4.85468705513404 -2.4665045140371977
Ni 4.569933315339143 6.223882064823114 12.210114778100744 -1.649713890656733 -1.1497489969876198 -1.8589898609108628
Ni 6.940138016958532 7.6811404979826055 4.102201625173365 0.6632219739909675 -0.23805252816619 -1.735861016068462
Ni 2.550573827531943 0.4047032843240282 13.576662877457451 -0.11351009080571418 -0.48296655933890376 -0.3326436705802142
Ni 4.0995263247529685 6.86633502445839 0.9149508859276794 0.4601179368755044 6.112674095895156 -1.3083822053842176
P 6.566840715937678 6.788258982675673 1.0814363173668904 -0.38571663914579374 -1.920769099001189 1.6387167682152812
P 0.6818235352316699 4.086772201568237 2.3613892151646834 0.4932077774509377 1.15999047220997 0.10177686152918602
P 4.815633649087253 3.7168468937855907 3.331010050967892 0.5617207347206713 0.1906562982704136 -0.6325769954116008
P 7.417567671148244 0.9618448150326779 0.7376676447361507 -0.04021256766314364 -1.1674813812703764 0.922887966661875
P 8.954211928587936 6.135829381889339 11.341728053344301 0.15738673758400637 1.0634907999193233 0.7603209704285099
P 3.2250467890738252 5.556264560608494 10.60164427791598 0.32838746640702154 -0.35667165806369544 0.06136683314325561
P 0.7032761004777148 3.953973261255837 8.479675871901534 1.003300503582672 0.6681014135704558 0.1608178747527424
P 2.578998894498643 7.509085239695932 13.117208826891027 -0.04546378875975396 1.6454006079933596 -0.7962621644098093
Ni 1.1491994475984866 6.1309525321646605 9.679418061122837 -0.24646363504802069 -1.4214305260621651 0.24935715454573185
Ni 4.8292052251782165 0.9267157053111191 0.2290270812322508 -0.19938673616487598 1.0531374817094574 1.9426805543622991
Ni 1.5602482101071398 6.370949274044289 1.8805355480063681 0.8190688778916798 -0.34840581851047736 0.1268417749176138
Ni 8.397972382847414 5.555670049403963 3.956564029614338 0.1362746381957395 0.22990110270364922 1.2741227699807154
Ni 1.4667613231944374 0.037327872254571126 9.97776236203228 -1.7688402992079602 2.1307783478769173 0.487084181051703
Ni 3.8536402062534423 2.9092591578539007 7.381289482739175 0.7652487467474304 -1.2578741693323368 -0.718608164070756
Ni 8.874844682782877 2.3639623339717994 13.584045963478736 0.9887588583230714 0.22374279641173725 -0.7820987284252338
Ni 5.76893236555478 4.263917962043718 6.313085684291913 0.11858364867387963 -0.14900699816074336 0.8712851548839188
Ni 1.3199820803379574 4.035969361293438 11.686026212516577 -3.161988433385664 4.998630779839263 -0.46921475697044995
Ni 0.832208860113141 7.587662900307474 3.9401536625217326 1.2086897371878862 1.8382852813736599 -0.5353856963705682
Ni 0.2930810189018196 9.15968057441684 0.7631712464868288 -0.4449245169645176 0.6913069051526417 0.8660066800937988
Ni 5.915089229494015 1.7734362123573906 6.844570340829966 -0.2934335760396559 1.0977607768457869 -0.7144208654622858
Ni 6.797752583473049 8.531895320905884 11.272376463488094 5.080818663492927 0.7107045929529632 1.4182241033097251
Ni 6.815773704360434 5.883412929377529 11.60941415457502 1.6850609026974592 1.1561469300941636 1.4132770437170952
Ni 2.5486230876420715 3.4239014977523055 3.3765969843466763 -0.9694161921304013 -0.5924189351354765 -0.7764839533416175
Ni 3.8826504951871037 9.091599752260322 4.595413693995894 -0.8682060017379628 -3.729602393662319 1.0527682712954964
Ni 8.774623098631332 7.423977245072106 2.098610618142626 -2.0683190530004314 -0.6196093795073393 -0.28238580286592657
Ni 2.6980033170183795 7.6083128754274005 10.784887493932944 1.3159541041942047 -0.07289103173277123 1.5562152099759392
Ni 1.609731978646882 1.0179982561482668 3.876239992339483 0.4117153772024006 0.3826007192246314 3.073349909010649
Ni 4.090525053546847 1.7489219144080044 11.770061300200972 -1.2981139906889902 0.049444627784372905 -0.09123456723696545
Ni 3.0360851184082653 4.917880287029236 7.907566592695027 2.283287188543332 -0.1023972687220043 3.461415508004593
Ni 7.587876552771602 7.039347074214858 8.967857818579468 -0.520830938484845 -0.06119842588619138 0.45153096653744174
Ni 1.4895942691435056 1.7596416945647273 1.7089029500291675 -1.3604082207425217 1.77673744256785 0.03943609450843531
Ni 4.8194050795410055 8.356579540231854 12.657129610636089 -0.25407590017763987 0.9886210471936263 -0.9472232009731298
P 0.958900126722729 1.3480169993266833 6.101944101078513 -1.510387095898231 -0.7076285251308007 -0.4436114545800489
P 3.8930451520288485 3.7757035030342876 12.978356090453724 1.42973441794217 0.23174355522902668 0.7298708814687688
P 7.756949965798043 3.059540443274578 11.910314853663953 -0.0821032943596586 0.37086697572747096 -1.2636928328966428
P 1.9285664797900346 9.031591277552844 2.256253624338176 -1.2285008583765422 -2.3281416258538616 -0.6800467588577901
P 3.26205511155596 7.017210821083601 4.031462223224079 -0.6847739891301303 -0.6022804013105886 -0.3869361133751917
P 5.513636249396016 6.558164568046535 8.159414543867504 3.1782007814794686 -1.8754343796201312 2.2153339604318103
P 2.2794860075027894 5.664660673822359 6.387699627231986 -1.4963267611504232 2.854575769458097 -5.065818590539669
P 4.854118960343149 0.2442781514760182 10.449752238700523 0.7083733737166252 3.359528860370421 2.8548573052542574
Ni 4.2636671526293055 7.448872401761896 7.062564594599357 -3.6010744892915336 1.3969047730066588 -3.6049712532427787
Ni 2.478062039054145 3.788336866130599 9.785450992298685 -1.1370701159683707 -1.1025882801414173 -0.6431617129059827
Ni 6.1547980050089475 8.923362370615255 7.59406225607001 -0.08300935111369576 -0.9090937410912602 1.1588954393735782
Ni 3.755480832842619 8.859034400437345 8.943317510764883 -0.6155002424349723 -0.2096338678141809 -1.9488517161700178
Ni 8.633853992483171 4.924252704002817 0.6299394277036285 -0.09695038667482013 -0.6007307974352816 0.6298801653057281
Ni 7.42390293117154 0.06758384794647926 5.594944945853376 0.3842901911119123 0.8775272791388888 0.2715516883649001
Ni 5.554211639105344 8.57348323751043 1.7296904058651419 1.0225904621605355 0.6876019454972288 0.759793380059814
Ni 0.05908047987415335 3.058890196644621 4.384612096877587 -0.04598032338485629 -0.582216797791494 0.005630201702583852
Ni 0.5026174218629822 4.485772822947541 6.340426697234098 1.6501890305209386 0.32031034582584195 -1.357607775179249
Ni 1.987190858099461 2.975064116805568 13.418639941445253 0.2938562653993714 -1.7653734237052823 1.2517045501865154
Ni 6.2656743446542205 2.8237238583018174 0.19591838068234477 0.6970016415445738 1.1128559806160125 0.50554110220531
Ni 4.011501509531907 5.082355527458123 1.558397793983033 -0.32817149374147353 -5.970659212781531 3.2304509970334365
Ni 8.71910132567056 9.013458685814607 7.651763284164897 0.9394427856967628 -0.6435437788357496 -0.014183747699549767
Ni 4.411282426867159 2.784393226426978 9.618237284633922 2.2707677159200825 -1.0076101867016194 0.3529471580242567
Ni 2.255027444978828 2.971125480075542 5.689667301362998 -1.432735666662339 -1.1000883965376989 0.550266984357775
Ni 3.798731522972343 4.394617534665113 5.093820304468025 0.5962519357283215 1.5551188915879668 0.7637027424165492
Ni 6.539186655689357 1.133946519507205 12.318459800507968 0.6212420300147559 0.515508497830667 -1.0543554132769584
Ni 6.608632995768784 2.3897771251811 4.4844593247550275 1.662859941120388 0.8744201009684748 0.6747086344743283
Ni 8.120326361093264 4.373800353268912 7.693868611302139 -3.812761897200634 0.2156301946069319 0.192432673444546
Ni 4.379392474286544 1.8350052789767657 4.860191334943192 -0.18146409024818427 2.834765419600389 0.01928815880565065
Ni 9.427368533495072 2.5084192674355754 9.99371012509386 -2.117353332720263 -0.44233952984616076 -1.6171935494315242
Ni 7.036374518192196 1.8760915767524895 9.786661379954161 -1.487087244830026 0.09335675578629084 1.6119073613319206
Ni 5.789526605249281 5.145856755492227 9.85168975864491 -1.778811294377743 -0.1593402617659514 -2.2110091078042116
Ni 6.679454143008694 4.870291522953941 2.6610525878091837 -1.4305800537719169 0.030544962666392554 -1.2140371175427285
P 8.479801276608741 0.31031627029071346 9.757606502680161 0.5129656768041553 -1.2157471582552997 0.4149117726525112
P 7.747326315674677 4.032829598994503 5.617323648085232 0.2516480074624376 0.11615395618646447 -1.7774676358656551
P 6.223724147784409 3.411881224335668 8.493855893053386 -0.5184210434917716 -0.03909927999430685 -0.8450933269798994
P 8.93309749158947 7.595029265701132 5.643142154989561 -2.2818018622470575 0.31804366127885225 0.020297573906771497
P 5.926264182291707 0.3230081555837208 3.812856737622527 0.08142478023539526 -0.08167520568330451 0.0038119175469224667
P 1.8794542807531252 7.813809388969014 8.520000452196452 -0.5216436641941274 -0.1757243595509296 0.709930690901416
P 1.5757612368504044 2.13305046643643 11.272579897790894 3.8105463776065536 -4.032215579318714 2.0571702354724635
P 4.033424110199035 0.665428959842935 6.826107052234209 1.309452555630261 -0.4868954620796647 -0.8171012126423476
