# total energy = -340867.34747901687 ev
CRYSTAL
PRIMVEC
9.26585733439068 0.00000000000000 0.00000000000000

0.00000000000000 9.26585733439068 0.00000000000000

0.00000000000000 0.00000000000000 13.56151881608914

PRIMCOORD
 96 1
Ni 6.304980508541251 5.580464581763271 9.658011715892192 -1.362356345607828 -0.8812813468646822 -0.09399541781155424
Ni 2.3789347768676135 2.0500153686319273 1.1624462948990468 -0.69773774837965 0.7923461171848548 -0.45487082954395214
Ni 0.6498692524671041 5.713021938634636 6.537424735453789 0.9343643427325907 0.7188264507291491 -0.08484383321927325
Ni 4.5688367956244536 2.764412979059878 0.8937012182021569 1.3514199012009822 0.9263211607131401 -0.2814296096002444
Ni 9.246250909005 5.5997931604319175 12.62691290331179 -1.191288253881987 -0.374859898936948 1.540311137151173
Ni 3.1799959521507213 8.32917193242269 3.178480984455456 -0.3820042232912131 1.1459481351842908 -0.370601123660594
Ni 7.753243295927752 -0.3237712978290225 1.190859120224809 -0.8684695398119945 -1.0048650198563145 0.8550630365981016
Ni 9.168436238027386 6.64088637330434 10.707090244726569 0.5003593008940543 -0.20486704255315685 -2.6004453618934376
Ni 5.50379887711112 6.880862815748873 7.5334099010229 -1.0726932923541979 -0.7401159562355448 -0.07172452222849582
Ni 7.3973695083310425 7.458144267433467 8.748277784521118 0.10651848997922946 1.3228266629443217 0.11361113515995272
Ni 3.343973831680468 3.0945554804807327 12.452010577832697 -0.6693597114575891 1.0790727135179805 -0.1206976096930889
Ni 2.0708913454969617 5.867085350678548 0.24785149470267467 -1.662214594226905 -1.9187883211257342 -1.4869167806904326
Ni 2.068556349416186 7.1404272808710285 11.779413103593626 -1.1105378740057972 1.460772003974265 -1.8560775723600742
Ni 3.949386426623937 2.616835667240345 3.213144557226026 -0.14224011175055504 -0.27519648420633896 0.9198910888170804
Ni 0.13603668634887112 1.0282600002856161 0.4869143236013168 1.3297830396574968 1.040220773647789 -0.6356553772266086
Ni 6.274468039914284 4.230290161484297 1.8920213798520429 1.3351720718835522 -0.1788035126968856 0.9286665210168651
Ni 6.10359636243177 0.31009303904155505 8.933908119771331 0.39420873577720494 -0.639951176388485 1.4558288010363767
Ni 3.7040913819954135 4.365191780293902 5.244524433327569 -0.48932695433929274 -0.27548316220882235 0.04399157508960166
Ni 8.983193215619142 5.858885066823441 1.6353562015301846 -0.17614807735190954 0.5022395486359028 -1.8042163647144087
Ni 5.0395608864799755 4.147777700772742 11.30739086610748 0.16183346050145034 0.5887278594371345 -1.1688769760663225
Ni 3.88156961584933 1.8694886676725526 10.42964916080028 0.8579187608793418 -2.1916440730140385 0.5585179115126575
Ni 0.0320709858523116 8.696692902850891 11.806875251943643 0.9638271280783981 0.5122221137699114 1.7149453489617172
Ni 2.1740203390645765 1.1168508634931602 8.75505853901283 -0.5109725576335264 1.6162916064425454 -0.9433349216623174
Ni 8.56881480399854 1.5724716066833444 2.8712714802565102 1.555095494549199 -0.8757442190965369 0.2235787600300472
P 0.17160738656510796 6.280481581408028 3.5680899059049036 0.5356577190850325 -0.1348952413497096 2.1254301961911266
P 3.4705639763454053 5.330462481543342 7.352567234324023 0.7117019238692258 -2.1612677747150264 0.6199251109755453
P 2.7510979418849755 4.250406338037333 1.6050327563954696 0.019683851582172552 -0.7952465786611014 -0.3935420487274835
P 4.655648614199025 1.2772150586121813 12.600576556643574 1.810547192028443 0.5597664392077779 0.8596789381035581
P 9.189627254046178 6.516723883294812 8.52763270050247 1.313559635820099 -1.1942043990875175 -0.7254480698107248
P 9.38779614761586 7.707025198900325 0.2960682371849565 -1.017990244384363 -0.805741050434522 -0.7695535447703714
P 1.316622750404011 2.4828699000345438 12.48629425044727 -0.7960310222356097 -0.24962557771577007 0.42879213017902923
P 6.46637321383871 7.289042368726462 5.400441016864159 0.42182983992858314 0.0210125976959251 0.6812232956643945
Ni 8.506233202690755 2.7230038620559545 12.030708717515445 1.219240773230855 1.6526158947948764 -1.3098369355528732
Ni 8.6687934060286 3.887953791641611 2.886013459480776 -0.3704607414279878 0.6279466957284411 0.8315055609931358
Ni 6.683861420219578 1.7979747797700505 7.364759249574361 2.3558270075842715 -0.3178017204713752 1.1401798652419461
Ni 0.18239191806675634 8.87071497187096 9.303147906758992 -0.1102357909298166 -1.1232555786827816 0.6580561135193118
Ni 5.3677112285462005 -0.34947478643248725 6.445383266926876 0.7977585464496777 0.834675216970369 0.26498637644255657
Ni 2.634931886866361 2.9668256353477975 7.291445932152468 0.04043522519691101 0.8452049128570992 -0.8150286463840352
Ni 7.199145019616579 7.5866895080231815 11.207551251939373 -1.3093365988776868 1.5945035640331766 0.43593979696740404
Ni 4.696251601603633 7.026355309639142 4.24914896117955 0.36893607725334526 0.23480985285917627 1.2959930876912455
Ni 2.1015891312731982 6.35755498378857 2.356503989120221 -0.22249118339282326 0.08908486788381431 1.3764231081135392
Ni 5.053329950670585 2.403405906428446 6.084348396723054 -2.486742695460943 -0.43527233858673425 -2.027762728844624
Ni 0.4556531736913061 3.633921043425104 0.5482190897506477 0.0344430121692181 0.40382826114483994 0.6929133304078131
Ni 6.946261237725533 6.639477962969903 0.6833903450124375 -0.4610394202485092 -0.18720613493828403 -1.3099294952666796
Ni 7.338253337714566 5.299236541891692 4.721035917146729 4.233120809010645 1.687105443931314 1.8365960665966952
Ni 7.487581896594681 5.377764683893987 7.377317266194504 3.0389536909189663 0.7987576771381535 1.1595089045878613
Ni 3.4741683948986672 6.017071785438564 9.748439998634728 2.3243610757655064 -0.19719358516829913 0.8071335599066743
Ni 6.723204251009164 6.734332545822705 3.008473811474277 -0.41845629547065993 0.032457606308073136 -1.029708818372872
Ni 4.2693642824074445 0.5375920778258769 1.375355314521503 -0.24477879114643009 -1.3406685762217492 0.4154257361744523
Ni 3.019881935183212 0.23634607949037395 6.326828473854197 0.54782597901645 2.0532737286315346 -0.410494360311106
Ni 4.330268763514356 5.1528637915424005 2.897744035029437 -2.0642618522119225 0.9274678727230737 -0.7546095218660295
Ni 1.8583603728590121 8.576246021684186 1.1063415279581745 0.1572309287324324 -0.18434989643641153 -0.08949007374203298
Ni 3.216966723429678 7.217102251380643 6.6670596408812 -0.3385548938583266 0.9979289548581136 -0.35820814931287986
Ni 4.929769741396178 0.3517560405399758 4.226799712977836 -0.6585847323292723 0.19023258046943367 -0.675939421557636
Ni 1.79933686081717 4.06810985830245 3.548818775552529 -0.43279379513925464 0.02380353017750094 0.7012565601661859
Ni 8.621074240092103 7.417022392010908 5.393036670165158 0.6391618477179702 -0.8143519320319846 -0.1779869303328612
P 9.651595109598789 3.1901050026432882 5.367473096009391 0.37160411100381163 2.491314373992026 -0.15958811611069934
P 1.060051157242533 3.195247553535474 9.421079107624385 0.7796559233116959 0.6106663113814387 -0.4806646506786044
P 1.705482990570416 0.7748675228198296 2.670805580621651 -0.45721876095083835 0.3748958943812059 0.3125517849263456
P 3.4320921361573786 5.514426815621637 11.999896961692409 -0.27514454792248094 -1.0270783227285603 -0.10415050396768516
P 1.229004802230124 8.482985166315089 6.263699260370323 -1.6214669799958976 -1.401563869045225 -0.23657440095876672
P 2.7910615851246092 2.133130110078603 5.200394860572391 1.2482577292884955 1.2022123569936585 -0.6553148033287489
P 4.765004263982043 7.457134288969956 1.9380902965743092 0.5432643277876966 -0.15758805496153502 -0.8087106745858071
P 7.150471470361351 5.3665437305058115 11.771547317192947 1.836270050715844 -0.4016649349449341 -0.16960179159295952
Ni 7.58180640113997 3.083399388094802 5.64509115781323 -0.3537187460829586 0.36303539549819414 -0.6423620998228228
Ni 9.182010719211265 1.6958742963808728 8.527741111034793 -1.9644338868789908 -0.3396823225945505 0.13457539611644564
Ni 5.39370195873103 6.432580631669699 12.20582786405918 -0.41794901681693825 0.9743092585566445 -0.2841644920329041
Ni 3.564779215033232 7.465742270553454 -0.10211623534686536 2.156872730971124 1.7646614852399223 0.9114365302918238
Ni 2.015842886306917 7.207966115921733 8.729034451741134 -2.0312368034361534 0.9793144250807199 -0.40875578035344445
Ni 2.4374579326064323 6.402503658343511 4.653255243216229 -1.3863254548289154 -0.10586594399689511 0.1595770603671058
Ni -0.0021645043034496676 3.769193296533245 7.583126785828505 0.012191399859869325 -0.07198060410335991 -0.5064435594149214
Ni 0.8207131323772281 1.1768472905686593 5.116123740114284 0.33051685404519854 -0.24117410451430724 0.3287348224441113
Ni 5.7512065372412975 4.7018945087988415 6.4976223181340185 -3.092722914220622 -1.0965808976050726 -0.47767728591550634
Ni 3.3051035596215153 3.7177399900389982 9.503329344569725 -0.6556552173873031 0.9396037367546591 -1.1781902830474484
Ni 4.50490237912701 5.2869685466101535 0.5161147468114679 -0.2614426249553562 -0.3978283348076633 0.05715279506190802
Ni 0.8917692869210385 8.553396417179448 3.920133188026244 -0.48089990661786214 -2.1514564450515596 -0.4472323391620879
Ni 8.082533338461975 8.94094090558605 7.1106570074268785 0.356744934503792 1.0950942857572172 -0.4523861154488854
Ni 3.866308748607115 8.784977992762142 8.568764768368238 1.0046863281866052 -0.6859464121716767 0.07991271446624301
Ni 2.5985911938949156 0.7586161354147768 12.545394669106058 -0.8321869033308765 -2.0578466927141976 -0.5344539285849182
Ni 1.454368987454879 4.818431198115993 10.849988298527087 0.4809083912582943 -1.0354866013969133 0.545940331957963
Ni 5.693591435533891 8.68987323175783 13.376119560472487 0.2363982803922187 -0.3769538053514992 0.20148604189606587
Ni 7.643822785142491 -0.5111223028101892 3.682386110887405 -0.8399817167849469 1.34127818478129 0.6142653415866066
Ni 8.079345883494565 4.292167557624866 9.972165053674207 1.7738611494613195 -1.2737736141714127 0.10496760055234179
Ni 6.3506611858358015 2.2795491897152114 10.49896148096948 0.6857738911495543 -0.38939383088706486 0.17773753332621645
Ni 7.20555699298125 1.283284195250707 12.956973865186965 -2.2215318617124065 -1.624930770174782 0.10700494269734474
Ni 6.439502227194858 3.918994414143993 13.150143828655148 0.7577033303000048 -0.6232058386093461 0.21718416935761306
Ni 4.778449023161432 8.904183249028751 11.087097884672444 -0.9042937485994554 -0.04579983194293403 0.32699341427297235
Ni 6.267574241961516 1.532980522174344 2.5405063132141157 -0.29234188563737395 0.22815223833334256 -0.4138902733665324
P 5.787232191058988 4.417636533536732 4.069744355558993 -2.1851216985144886 -3.124372165694787 0.3280578509817447
P 6.271317648376728 3.5400949707507405 8.640518641979043 0.9511035098641425 1.1735065044185338 0.01673531047680989
P 7.870085758541196 0.5688643467648438 10.727554817520227 -0.5541529496757424 0.8259774320860549 -1.2281856411289687
P 4.510109791021439 1.9031422619796126 8.193788489024987 -0.9244396274197111 -0.7085158128317605 0.7068744205735955
P 7.6960358919487355 2.6425576875587367 1.03626106820526 0.18878916315468777 0.19001583647293727 0.8233651912741884
P 5.398019848308973 7.432857742415855 9.728193173491455 -0.9136551352096975 0.9300181499487532 -0.3665624348148461
P 2.3990787509930396 -0.259729397385004 10.222429377660351 -0.4517037446698801 -1.6097774594731113 2.089300026127473
P 6.711445877888112 1.1174253466558908 5.138039346186711 0.60935324899697 -0.31319841737140897 -0.5530926267320282
