# total energy = -381174.8430045008 ev
CRYSTAL
PRIMVEC
9.13472748823390 0.00000000000000 0.00000000000000
0.00000000000000 9.13472748823390 0.00000000000000
0.00000000000000 0.00000000000000 13.36959703143550
PRIMCOORD
 96 1
Ni 6.001342309897403 9.21584373004591 11.479750710067986 0.5637367367094356 -1.6699255897179177 0.6870758977904297
Ni 7.380750083015159 5.129843646959262 10.1169745350385 -0.3077713328185667 -0.22990907312344921 -1.0006759214756313
Ni 6.947142845109938 3.0067137770914987 0.8308427319162979 0.6540264235346285 2.878702487302971 0.6203940801921638
Ni 3.1433692982649646 4.3003464603817925 7.48966161027766 0.183674981856574 -1.128584447094863 0.04239929090181731
Ni 8.843804554487557 7.3077179378425745 1.9928988024403744 0.6279058151881767 0.5300768825631451 -0.8363790870353531
Ni 3.7206566626766997 3.3929117800441597 3.721574702775492 -0.4991351986789662 0.3206751853644284 0.6296482518005801
Ni 5.992070561635968 4.684297320406066 4.8426012319290646 -0.4361066615625715 -1.6241208726789769 -2.1029523268035843
Ni 2.637789543559895 7.496496213281803 13.096549950642416 -0.7883287684953455 1.2508296037807296 -0.7167757388477075
Ni 6.995045355339461 3.9641610896767734 6.683421439536262 1.2110834342310433 -2.16099986576562 1.3929689282873623
Ni 1.3031602039175616 0.8038295161934251 12.567233606915337 -0.8046172212427238 -0.6283637286612017 1.9281227111527826
Ni 3.9047853618941843 0.36558640415748683 12.332089282387052 -1.6711597192353347 -0.46287775900882866 -0.9864896026729204
Ni 2.5532385071974883 0.6952029924242814 10.350942306683955 0.187435991560903 2.9764414313173577 -1.9161195160443196
Ni 8.845202167772285 1.1728350487984542 10.44415489152074 -0.4546790252481202 -0.5774754264517667 2.5920280843640198
Ni 0.5155146841721997 4.624136006071277 10.501885454907383 -2.0343846050365157 0.6781312870026321 1.6326430512173753
Ni 6.153462924476395 3.3763139804470885 8.829282164944672 -2.1844424130592763 1.0167561148669457 0.01979543745937236
Ni 3.942091588396352 1.4530245408408162 1.9692078870551213 2.311227366597026 -0.6735894332682205 0.014323101490891462
Ni 0.40465928692937086 1.1874506125603221 5.011767247745336 -0.4830920291731745 0.9521710318967085 -0.5997884881266703
Ni 6.947416886930473 6.738761444775105 11.77932318007679 -0.4324508099775391 -0.21583074065351213 0.3340639479665085
Ni 1.8245613063948536 8.024081526175834 8.774292933236113 -0.5218282694011078 -0.39166077254437065 -0.4684871347758061
Ni 7.808812541418221 0.26569085279058885 3.5177012903884597 0.08814641522994497 -1.8383989241333887 0.49695181787440224
Ni 5.57561834169624 6.686921867057229 9.922500757095818 0.44922031612639407 0.6508120303623889 -1.7639786002402846
Ni 4.073896569346349 2.534530585582297 10.925501128035897 0.10857948627331622 0.7026135884147126 0.1528803650732206
Ni 1.7849622633275422 4.20863379777607 5.737348689448661 1.1089036808364838 -1.5827502801519904 -3.294997256345938
Ni 0.1764436530969469 4.516072181506965 7.139886505692309 -0.402580504780668 1.181059119954811 2.348798125761949
P 3.899761261851042 5.3655835557108436 5.652946549142078 0.07062537562704611 -1.3371981011746454 1.2204067685144981
Ni 5.918901395553115 5.796130659953423 0.41059503276215953 1.0661488063674607 -0.8413204902010285 0.6304231822933917
P 6.001899528265824 1.8959217964621744 7.268140818120907 0.3395170006612798 -0.7108264632428081 -0.3351602663544808
Ni 1.9471219432654685 1.8104024790005437 2.705792107852927 -2.2331856439012507 -0.9780314446032382 0.6849207991206397
P 8.164062088105126 3.342268851609287 11.401044072264858 0.6790283448956048 -1.2295231289934696 -0.7531838451630964
P 6.776606620190992 4.269160501204906 2.6577955099316872 -0.9963490119655033 0.12724440967267117 0.36013184869815396
P 2.6830155786755254 0.3925557731890739 0.7338785145563896 -0.9075405376715274 -0.7802465057078434 0.5540472773358136
Ni 8.86378220320456 4.7207448825372245 2.066912930803209 -0.8585078006135924 0.12730097394221948 -0.8429014615349031
Ni 3.2199548523771533 7.894879942520922 2.3515921413386702 1.8132897877705867 0.487999750887437 -1.3660566772775506
Ni 7.590638713362935 8.432933652959393 -0.00017995412881800056 0.9571420027487387 -0.4731470021453207 1.9456244674819718
Ni 5.637131595679001 2.338024330803981 3.371905561027415 1.603122416050439 0.3331553201093101 0.014555786326987834
Ni 5.482736433989567 6.839316523456757 5.054402674184176 -2.1271646623837297 1.8400832538143472 1.0896805709408137
Ni 7.453288952910781 6.325542918317689 3.599590467200736 -0.9228465719009783 -0.01272310399362325 -0.4996262793827718
Ni 0.10687356959045488 6.628742788557642 9.409869906348383 -1.5160412088602149 -0.03628803579775686 0.4987616173896314
Ni 6.155180253218415 4.041139437065062 11.933260691925932 -1.8000118397147582 0.3255014031084781 -0.33730508061162556
Ni 5.226708295791044 6.251569896227935 2.800702838504293 0.9004481496011203 0.021941280157781566 -0.7350776224806889
Ni 4.132212668756202 4.935255684924693 9.712664194693943 -0.5620758040672449 -0.8170251079887736 0.3882849140936023
Ni 7.813014515999758 1.456020731411999 12.668361433001907 0.6963735210422717 0.6690840891986993 -0.031561576856365
Ni 1.2739290763938254 8.259593066743637 11.078221894201862 -1.761805760958682 -2.440422729348481 0.34290622884848687
Ni 4.699935973631265 3.5650831211589655 1.2451428100920912 0.2876570785671949 1.698154245546308 0.7490795931867357
Ni 1.9906215149117281 3.488881225595526 9.486544067315878 1.8673397755374552 -1.449848929303858 -2.61161114870227
Ni 8.109911424367406 4.6788073492680144 13.026158655147054 0.020546970913416226 -0.8025590531621145 0.7491808946512905
Ni 3.302258745811173 0.21900782866244717 7.932783580191856 0.8534632962111495 0.5451371193303772 -1.0295581517276202
Ni 7.620052535433695 6.192212437900048 5.9376787410961755 0.6938322426776568 -0.4115536548135557 1.4135518946450365
Ni 1.8227252261972688 8.904431739917257 6.076802465599927 0.733798241547633 -1.1337582779863185 0.5146178676955976
Ni 4.546573036132513 6.4125786005196135 11.953729788974428 0.10457499309961345 0.9496207546710291 0.15650253520684013
Ni 3.483007595908725 6.490552633189179 7.661768094828272 -0.5885468537745799 3.2825970829093722 0.6657447404128212
Ni 4.565198745201544 2.8284495728334638 5.8772479523045265 0.30988966471315016 0.2888007052533349 0.7973764805199107
Ni 9.187343380710265 0.575846817908456 1.5617424118834717 0.41636727415211516 -0.4765832815203792 -0.5864699166408931
Ni 1.7227456353387403 1.923389921607135 6.994371212460945 0.43392508053022044 1.0043274021852895 0.43220501251532023
Ni 7.2607837087122755 8.45982629028123 9.450647329243996 1.0115586298264063 0.1215051931960488 -0.17103826692916993
Ni 1.5083353149521355 4.705179307130835 13.035811321539033 0.6504955275632346 -1.1836554199270777 -0.19878664068703183
P 3.3887554790993786 7.992986914272461 4.745191239874419 1.266710022456412 0.4063484564635324 0.11767167838257155
Ni 8.595440452536662 4.056869437563773 5.015390080612809 -0.5575987421324978 -0.10322516393993834 -1.05508252125097
P 1.4257847838796345 6.251926150594631 1.0786057688074853 -0.5140226573137598 0.2484708952860366 1.1119517236341883
Ni 4.01232850699948 2.4686052582889206 8.447887201633254 0.0972028690052584 -1.10299785687501 0.17668852323641182
P 9.112466020612745 7.62353286655449 4.760525706678825 -1.1824760549069957 1.1123433026456522 1.578271161334714
P 8.250686707576248 8.419633489936093 11.448746531965389 0.8856409093849588 -0.08266765150356085 -1.346698584465913
P 0.624575107490524 1.359137813125516 8.752473723485114 2.6898683298429606 0.31479455821393526 -2.669062448841203
Ni 5.0658366124096315 0.30494460316402605 9.346765382861047 0.14486880762265372 1.0277054147895979 0.3009802780386623
Ni 9.142035133048473 6.47913422400022 12.596927865115777 1.8163360307960783 2.75560089615408 -0.7454965038211677
Ni 8.274373055597827 0.8824539414503946 7.31002719691695 -0.7802639892093401 0.37391964651086573 -0.31937806381955963
Ni 3.378698144285743 1.1748081499063063 4.6419377627332326 -1.0359841098586222 -0.2528147740770291 -0.65870840239133
Ni 6.599392909578341 1.0286799164696792 1.5289341251290183 -0.5623169735437734 -1.941712019801443 0.4059126544776945
Ni 1.5583753513818313 6.484852563322051 6.076923044000963 0.4441346740733706 0.15374734105920618 -0.436741466933093
Ni 8.323490484565054 3.141578891704136 8.819815846990657 1.8694161984505095 -0.5954980882814325 0.3747362288748901
Ni 8.392284116246696 2.386548002493383 3.0352862907732154 -0.6423093922080164 0.9431387464911113 0.4763020028345345
Ni 2.9209021483546307 2.7353941053071202 13.33904773068839 -0.363820867513967 -0.57727796572898 -0.08390409501382323
Ni 2.1999620616184346 5.974933813125176 11.139895919386003 0.829082810484256 0.28405059216285916 -0.5613474105416525
Ni 7.140936085864958 1.9931518343880017 5.179301801256689 -0.4552693505339514 -0.426987987090755 1.0602962042414255
Ni 3.563192232597274 7.838308576035141 10.425518220778887 0.7346492766940187 -0.3862403728597477 -0.3961820574534919
Ni 5.380043829107742 8.171634777079245 0.34553476414893897 -2.087782561041682 -0.42250604006000136 0.32739399214550063
Ni 5.340965465499447 8.956472281636858 3.6251393861292165 -0.10685581871399015 -0.20251345471931573 -0.649884376341797
Ni 3.1016144595427777 5.662105940257093 3.7931553397719764 -0.6220832949691286 1.5004551814965 -0.6255915652327033
Ni 1.4351113405051765 2.631943318055148 11.422087743663742 -0.6467008364074927 1.233010830431754 0.6261824047391668
Ni 1.6271963872455277 8.452838223857587 3.6356077836736542 -2.7517033608718866 1.1193228192872788 0.5456950487163763
Ni 0.5874570563717899 5.9063776843546645 3.7307861618364098 2.457233887368549 -0.07456096323602643 1.151902810105829
Ni 4.994759298890198 0.15200186312342787 6.031211954862985 -0.8292597023817525 1.0987437095843464 0.09639322861976948
Ni 0.2547730266604734 2.80142904932871 1.0323840484105777 1.4154249432980333 -0.5875256115989173 -2.6171030250547767
Ni 5.264672222662496 1.9767001904285488 12.972359678412353 1.1802579642097544 -0.2637357918649071 0.07548193238839904
Ni 3.669949791150369 6.024809424462552 1.0870709206438123 -0.38165326770969754 -2.156041236208764 -0.208386368560325
Ni 9.110876578053642 7.713299832234413 7.298088108268973 -1.3421173928531338 0.344444005649252 -0.40328344438496355
Ni 5.384309746780737 5.375138480520165 7.316391361462508 0.7407533327092276 -0.13781472898934977 0.5304841453038928
Ni 5.637971990595309 7.873020539969578 7.66667527036132 -0.3815149423596204 -0.16679671804399662 0.15171154157610003
P 7.155049239622511 6.482724171849229 8.187380306614452 1.4573735198156772 -0.26022083673311314 0.35448776303849916
Ni 6.661773962659464 1.97655403479093 10.515615863588922 -0.7529876699918903 0.7359564255412163 0.06641725108296948
P 6.708927425246191 8.007949597673674 2.0381412800652368 -0.31581939993402386 -0.909479406565453 0.9779113740856061
Ni 7.077559347502557 8.46006379319236 5.619736334384172 1.836784271348101 0.820023271385149 -0.04055940947960111
P 1.065374116239319 3.507251162298724 3.727443765098618 -0.11906393074440784 -0.28278406674560974 0.7551160291888028
P 3.9892633204377814 4.561910243355124 12.548850881593847 -0.809017921413581 -2.0734915983403064 0.6731831989687374
P 1.8070043604259094 5.5706764541992575 8.67991658413479 -0.0887007450715182 0.12252463559949868 0.27595418830796986
Ni 2.2617128185123274 4.042738014351516 2.1131319107819118 -0.24484718249052023 1.7507669866460172 -2.308829812899127
