# total energy = -381168.864222369 ev
CRYSTAL
PRIMVEC
9.17540950129310 0.00000000000000 0.00000000000000

0.00000000000000 9.17540950129310 0.00000000000000

0.00000000000000 0.00000000000000 13.42913926974664

PRIMCOORD
 96 1
Ni 0.4553737352561411 7.147460442915926 12.952632806074973 -1.7089503077205468 0.40017780887644633 -0.8706323517912682
Ni 8.947281231769374 5.694791270095911 1.2659716117680289 -2.805978577275684 -0.8268816890678792 -1.2116202805711198
Ni 4.065495465621512 8.945904920353886 5.039284421749783 -0.4573776551262058 1.1643603191428913 -1.904291670171456
Ni 5.431218458620388 4.780388316464091 12.19709656159207 -1.102809652123604 1.0333451295738785 1.8860898024514485
Ni 4.964401152714929 4.194290687882945 2.1311237201670576 2.263921639532527 0.9870634728985194 0.9790832829065201
Ni 2.450238037585099 6.690148861186776 12.483190415529707 2.3243446207052747 -0.40126409996208956 -1.206978410923734
Ni 7.98575337527122 7.249968117141524 10.949193166086577 0.4748287607231177 0.6707650764455481 0.39712693786526443
Ni 3.1959969657723706 8.338575394336468 8.653536003902564 0.2057733564175101 0.833271394644307 -0.3959213475929375
Ni 5.271905824572852 2.2855577890171577 7.091753779603549 -1.1228398313016017 -1.063707801026136 -1.2324480159497484
Ni 2.0734957261186584 5.374211639790846 5.818295033735262 -0.3922459556238793 0.5849128565664184 -1.595834367029458
Ni 0.0981722932668091 1.9867422298956872 7.175175684660094 -1.3368098645972912 -1.7832585315158191 0.8659444593972958
Ni 0.2514539306916731 0.5274291431026367 11.2143652514269 0.8621937341056118 0.9164393828230539 -0.3986677999898231
Ni 4.6805231601562305 7.033455980666278 13.156971009309752 1.598623499738821 0.503657512029352 -0.45623299999880135
Ni 0.6426612751349 3.791242477561797 8.490881685738222 -0.4115467128350202 2.5288072287311607 -0.6861338455921344
Ni 0.4783975901553798 7.089692065103147 6.174516541996765 -0.8065607181223399 -0.616051744063068 -0.10325524584692539
Ni 8.592202061982725 3.7465582336055974 3.254403952081936 0.20440321554286087 -2.576759331130407 -1.8395255815386642
Ni 4.831788960127875 4.49293191422512 6.613864507130956 0.8860168046671386 1.8896903753185132 -0.3635516730129803
Ni 4.734447041415078 1.4365112768021775 2.1451841175876902 -0.3548181497947244 -0.586397411531745 0.9768397382879822
Ni 6.322398450968195 8.872712679278196 1.6174861349885614 -0.6256807825123999 -0.5128384071976716 1.138426115775633
Ni 2.2441124645920745 9.006306640674966 12.836135385081404 0.040663796267949325 -1.787295163479038 -1.6972533309985933
Ni 7.309498173566129 3.164543662223735 7.624340420350493 0.9525726382105014 3.3937695267208454 0.97333661023073
Ni 5.197080360617449 3.8156398912536935 8.958336682599523 -0.8007687940309113 3.643001725652939 -0.5188144222754484
Ni 3.9881192378427377 1.7856998337305343 8.953797607551241 -0.6151703698993793 -1.9481045535913484 0.046318680560881516
Ni 0.9291661874152957 3.0887547802774904 1.2352917952348983 -0.5437402389828506 -0.04526504248538656 -0.5781763091735332
P 5.411995975850728 4.74760457854715 4.3082960676735365 -0.28346592330398274 0.5756787395626602 -0.46532673476995345
Ni 2.2133014397040007 1.1340439047249438 5.651733826232819 -1.3834746156436817 -1.8614974578240648 0.2468806679807813
P 8.434385019673355 4.972310355649271 6.928092919024012 0.6726296404581126 0.8565895005449571 -0.6160843970732164
Ni 6.1940711745880295 1.6279470192872194 13.469829532573923 0.9741994724516578 -0.06906780133193911 1.3735969515186537
P 7.03813543947894 1.1840131845166202 7.5131601491254285 1.430934094677226 -3.336357050239648 -0.05733457205541094
P 1.2010152182026241 4.976898060367568 13.137431057373584 -0.44872435032658203 -0.8091955846420257 0.09764407030773506
P 2.997762244894814 3.4333372816686785 2.1532015903533837 -1.0930507729646273 -1.851127941664283 -1.415414144664756
Ni 1.5811340803417302 1.8136940079215746 9.102377765180796 -0.434828051960464 -2.4325376701734496 -0.2897759246824106
Ni 2.7540725456683846 4.459138881270154 11.512317404520385 1.971066304593844 2.033606074999278 1.819044173755861
Ni 7.368762143117072 8.107520233904225 4.480027618393498 0.5339643905430094 0.2820315048503014 -1.3281385620755384
Ni 6.278714326640584 0.6997414972399347 5.456997688973435 -1.0839230996317462 -0.1789606071000402 0.9777676494188902
Ni -1.5598196042205285e-05 0.20666875723167077 13.443642914041893 -0.08926870175984626 -0.05329588320966305 0.9286071285338395
Ni 8.353935029733321 0.13506202690662458 9.066522100184484 -1.0433184387365062 -0.2588244706062187 0.24562237009364793
Ni 1.0897450279650809 3.171443570120052 5.749712518360516 -1.7361335530035582 2.1811146342376238 -1.254435061743801
Ni 1.737813371880964 7.138596997400178 4.20337434322517 -1.1621861943097083 -0.07772599122756936 -1.1401423271357913
Ni 1.3948732687789258 7.912102363723702 10.384081533968805 -0.8571461443793754 -0.6473204722693626 -0.6398969261117817
Ni 8.784206679852836 2.540909433637495 12.631354009570842 0.3419610913263981 0.08962197133420695 -0.6660126493622271
Ni 8.572924526756447 6.742861588399993 8.839382086958835 -0.15616752046492458 0.19883549164709627 -2.2796786452564675
Ni 7.230855739285104 3.5974394794421145 0.8758552235068127 -0.1437390648935847 1.1989051469972964 0.4021303046171268
Ni 7.244618853439991 3.880666017930816 5.244213521352275 1.034383598140722 -0.9121734084578484 0.3229012464814697
Ni 7.552352910533828 4.678403640576378 9.833983624312125 0.5436317384294443 -0.346855443304222 0.4380481015596585
Ni 7.061560259770558 1.7121681025056912 3.054068062443401 -0.3019840367128283 0.27117476464145557 -0.9522191115258246
Ni 0.6040915240272445 5.713830244676838 10.501063416580626 1.046868875091926 -1.3790191509754894 0.5822160264605457
Ni 1.1594964905020484 3.2658034807659573 10.82291934633832 -2.8217497240670113 -0.6811217370895238 0.5613065300013881
Ni 2.7970501634693785 0.4323342821608603 10.728203429806277 0.224854027198045 1.4248994584473718 -0.698821468362132
Ni 6.72338219416611 3.182912831915791 11.691570038355522 0.5526087451170741 -1.907768830086779 -1.2784000571998304
Ni 1.919394724631107 2.3470146814234467 3.7073553792468172 -0.13130932377066418 0.2641497394738741 -1.1867338017420852
Ni 5.347125831134028 2.6691633067421683 4.482271006000745 -0.8808717701310894 -0.7311073249790312 -0.38449845046797654
Ni 7.503466329055669 7.639849614921164 13.439345152261792 -1.73584456100823 -0.9913173630788668 -0.19686859772871254
Ni 8.164582105190386 5.12913645373949 12.356835852178408 -0.002358215819531422 -0.41920731470407163 0.035264736739565074
Ni 8.977587609138435 7.422025394896485 2.6467486990295197 0.7252976602757896 1.5360616178461997 0.7071184182636016
Ni 5.249682982917427 7.641813152540594 6.658838694025352 0.4720864220912902 -0.12674253033558816 0.8701307295645015
P 8.193521346553394 1.6829077218124013 1.0987571151137008 -0.8396117350400379 0.1292753240597709 1.2599865876896497
Ni 3.2257895202129827 4.567271081480383 3.850026573199207 -0.1247373269801013 -0.9826023518033723 0.9610891603219447
P 0.4693974310390273 8.849884260599957 4.331810806977632 0.12862586340123008 -1.0064567898234666 1.6967041433633423
Ni 2.936259475441343 3.662860148725011 9.503895517207921 0.26888391172474985 1.30263270449495 -2.127318414352775
P 6.068643327589824 7.6801663639855455 11.575690122417036 -1.143310697561444 1.2048220267023637 -0.17705207722341765
P 3.122089042760627 6.599055396300298 10.378831364689185 0.12817077814168248 -0.5465638244745749 -0.6227620662037082
P 6.471003382203229 5.677394693804134 0.8705059598052799 -0.4915753840538372 0.12290490175705285 -1.6024518723459755
Ni 2.946324899593283 7.4917034541579595 6.350156817136715 -1.3049762650264622 0.12218859241631858 1.2262308313954429
Ni 7.733080950206368 8.134954708119633 6.758791934263803 -1.21975447964248 1.0110076424189427 1.5010277661705183
Ni 3.8450103768602224 6.5932748883552454 4.277463021802815 2.249962092028641 0.621264141501943 1.226164754044198
Ni 6.2797603233163555 2.1839951819635277 9.522159169691456 0.7759046837993798 -3.6838143887939263 1.293445124458411
Ni 3.9034760857901825 5.977871002033627 8.42423334667271 0.7634273772679755 -0.31138836074586373 -0.5151380018651257
Ni 7.077039175490087 0.5861563512015395 11.604441267886594 0.17766348555517145 -0.7412310436765943 -0.817799781371269
Ni 9.0094996831589 5.492179878917101 4.295645930683308 0.22758016787995644 2.052521166736226 1.566120127794477
Ni 2.714508180177803 9.046549986463857 3.0491133413476414 0.39655486741187834 0.11714511645514017 1.245737533969803
Ni 1.6378656368881745 6.567666320617719 8.196112482178288 -0.34345953024879555 -0.7577041016309531 0.25487936991554166
Ni 4.612331517223484 0.5269786304992999 12.289716814608799 -0.6578154582634155 -0.711098228846956 0.19406866638607223
Ni 6.2927343522596955 7.590449210514556 8.89667059085808 0.5796618925801242 1.0232957157576765 -0.5081538572378087
Ni 3.5293671168320437 4.888887533051783 0.20367206850968003 -1.169422307046831 1.5659604622881613 1.1876881952355545
Ni 8.481913640554897 2.3858541895685375 9.920037954336028 -0.18014999942245102 -0.42943362041777017 0.1119625438129362
Ni 0.30337757269334353 0.7850214227073893 2.643498769007079 0.0043613622924892625 1.0237114631388564 -1.639202192492132
Ni 0.8217744427465996 9.08053570301699 7.460625424855281 1.5540521408863495 -1.5045447781848411 0.1143996924995191
Ni 3.2983578334469836 3.1360173142853727 5.744502720882419 0.6440415444077746 -1.2333412171879792 -0.33078527721523676
Ni 6.554995080185786 5.57430896878403 7.8314707006768245 0.03401723748570916 0.29595711379245804 -0.3742407772957103
Ni 1.8567909060452439 7.636509765886244 1.384530747262 -0.12399196417364454 -0.6724738316065386 -0.027546542159700947
Ni 4.991844802339775 9.098216717001302 9.982872993239694 1.167080546287532 -0.12136789628723614 1.0139541266417762
Ni 5.544956833996374 5.925901482984774 10.25079770141099 -0.6570955493782554 0.41775489852826125 0.3883340221639829
Ni 6.958584639663693 6.360522277177233 2.787110442426719 -1.3041717668472959 -0.5492665681177187 0.8101733751742628
Ni 2.3558781269391935 2.1220795190854096 12.454156667449501 -0.08219585407346489 0.5868887493458667 -0.2544389399440134
Ni 1.5902819635500118 5.114006203578551 2.2073612796347515 1.7684314938053158 0.7603307406205227 1.2424555207844215
Ni 8.336877943590698 1.3115422002758035 4.92160520802078 2.0230046453343484 0.7388550872452502 0.44298179141585003
Ni 4.188858845496483 2.8363209158579896 0.44362187084975496 0.4816774082138349 -1.9080961315192104 -1.707886128122091
P 3.839073886954748 0.5289036313990969 6.904242359734537 0.1933950373578153 0.6117284340973659 2.8668682136722046
Ni 2.3360684179655933 1.0882769624552262 1.1344320245441117 -0.14915046571714313 2.0129398048991787 1.8238500797849364
P 2.640792940764228 4.330407886874777 7.411031419309562 0.534795371084737 -0.6694391585452729 2.5968985250824437
Ni 6.5864942607816035 6.10534496533619 5.390483310885697 0.31267931164314533 0.8562169476968866 0.40843799200270947
P 4.472819416740112 2.634149944332136 11.531158190257482 -0.03872415604307525 0.37907779367303746 -0.3876197697057776
P 3.8238151810616965 8.681304463021464 1.0213010612728277 0.9918824915537178 0.26066872290380916 0.16404949431616264
P 5.249756386192921 8.053871614928475 3.6812623498910386 2.847751547447412 -0.03327470289272979 -2.5495624590006414
Ni 4.114427924146854 6.569446350048417 1.9005860528270382 0.11355097134597864 0.4020673125896753 1.0821240987497944
