# total energy = -381171.1258400754 ev
CRYSTAL
PRIMVEC
9.21982959269801 0.00000000000000 0.00000000000000
0.00000000000000 9.21982959269801 0.00000000000000
0.00000000000000 0.00000000000000 13.49415256356748
PRIMCOORD
 96 1
Ni 7.358668721592362 4.287571131389889 1.1232103545670222 -1.2245174482487622 -0.22517104421783157 -1.1618185265576444
Ni 8.864773990770784 5.692368912595904 2.1331689318762126 0.6664978165287618 0.5459673285411565 1.2473866395374518
Ni 3.8477022795810467 3.3198024944667317 9.626876810124623 0.47529413039531043 -1.5620493001592128 1.123132422841356
Ni 2.1465791740727784 0.5085787101420748 11.105944006930649 -0.3781115731050262 0.31096412872425155 -0.12466405054000465
Ni 4.452384805852461 3.4857133286552515 13.148257049702814 0.16693247229091251 1.4066793358949194 -0.7073148505451239
Ni 2.9341370210515723 8.382318745901827 1.9501073706103103 0.5373500191857907 -0.1085496614766453 -0.02360452679281741
Ni 6.626356093755419 6.647893615770667 1.041809400748349 -1.5172609401999289 -0.9965631848588385 1.0665506697915696
Ni 7.212515982300535 8.40856760085791 6.074244114050248 -1.2528569186234038 -0.23403389392510016 1.469231447595528
Ni 0.08533044520690042 8.104285563585126 1.3239583150117982 -0.38683301213842414 1.1141831840678682 -0.9673248568190115
Ni 3.454135412173135 7.375135337311211 10.426837171921441 -1.8459723656052722 -0.24655773742372378 -0.43550193809903714
Ni 3.060190531750402 0.5682798729440156 13.43573686945822 -0.6216302665921101 1.3723165421443333 0.6551034586488911
Ni 3.28052602024372 2.35876433317334 5.678082786584506 1.0052134043346688 -1.7150337949104657 1.1918227862292183
Ni 9.32539667907634 4.519800200105668 11.438858225118823 -2.110770280186107 -1.1756975985325817 -1.2474779136996774
Ni 4.979464026129722 7.074393714616278 2.8197917719996437 -0.005900681755151128 -0.30316365884322627 0.537794562922377
Ni 7.028681799311655 8.52461759640839 13.181898364056082 -0.08346803591766916 -0.9343355463771845 -1.9467318416135377
Ni 7.256494569634753 2.9685638648893007 12.538820779274268 -0.40325850468429897 1.5766971319793748 -0.19740518695847292
Ni 5.392623031500991 2.1714173950955 4.250927840509152 -1.674322947454665 2.0711778626054653 0.06490261421065598
Ni 8.92275749931269 8.869337806437542 4.739902426909351 -0.3514446053368012 0.5612713058880785 -2.0624386829602543
Ni 4.772607928555194 8.16940522026051 0.7557844701085255 -0.07444320671123954 0.0582020622620288 -1.452682542097911
Ni 5.963551761497651 5.621496082231516 7.196107451508353 1.3628273717069754 -0.1131359952957471 -0.08386655690766846
Ni -0.02351978538565796 1.840951041674042 12.002427687104964 0.4130109560853726 -0.051917771915213816 -0.3431219444037188
Ni 5.7254773207965695 3.8982269459524326 10.980785741688875 0.05131022023820195 0.8228689683640602 0.7866986890910903
Ni 9.05883296481913 0.21816514059845943 9.610926504865043 -1.1305176595618336 1.21971462754348 -0.12904906698157773
Ni 7.077362499757077 6.025195542402594 5.032725137935237 -0.21649099994533036 0.9192017760595396 0.06253668508164069
P 4.3320568093537455 2.0411319825965846 7.860627594060229 -2.0095888861490745 -1.9482909585705417 1.4181382284641384
Ni 2.398151445351909 7.079178806194151 5.379228463014795 0.3528692535984697 -1.5873065320641049 -0.8343628279362727
P 7.368921172140716 9.03342311435936 11.185019719716683 -0.6108848551501479 0.06723434766762615 -1.9117159876599852
Ni 5.588728807727155 8.003420627434952 9.877813835142257 2.3020685829158936 0.02231640410901318 2.42075070484085
P 1.4335728694806682 6.2243162029177075 0.4944069100180863 -0.49998623382535184 -0.5515353095472372 0.8783682869829453
P 3.6687638261255984 6.196887209769009 6.845314139702043 0.7989949899599401 -0.3171718001968602 0.5563949516323837
P 0.25120347809393834 2.478465381257227 8.645906299154532 -0.7017098456535206 -0.6270758630877136 -0.7630152294312215
Ni 4.254877615522565 1.1428808610822323 2.0511520934382674 0.49506694214686353 0.46569800206644313 0.3875629483259132
Ni 8.443870328510473 4.147060927831508 7.377968590956454 0.08906995548547887 0.15594074916609918 -0.15480766400292048
Ni 5.773494193508646 1.695019578293331 6.498028051086914 -0.02179652704980117 -3.275562287549778 -1.7184564474387696
Ni 2.5265006936285634 5.381107464293351 9.28102163906804 -0.6330737325423613 -0.14235195473807097 -0.6076300956582761
Ni 5.474873131628569 1.5497796021348558 13.37077579385247 -0.156428230325479 -1.6819691511460129 -0.026919192988347187
Ni 5.145863511288622 4.377150996073171 1.923078518067545 -1.019854037065979 0.4409207951217632 0.3661155770854146
Ni 6.305736518378604 2.193683283651503 2.2417158300739497 1.3305700543351666 0.5090244327682202 -1.192295612100579
Ni 3.69508643971872 9.169111347021346 6.761407236189986 -0.311177016066006 0.7149857368268202 -0.08787902050117123
Ni 1.5855341014392785 1.8682786166968137 4.067596138235096 -0.7182176135005566 -2.2834496822631256 2.0213298287350865
Ni 2.4588548036346105 7.572319833604064 8.222864558403067 0.08579205606515547 0.12594471702464116 -0.19799268403082676
Ni 1.180820460008921 6.322249233245603 11.594108170306388 -0.2063523688494317 -0.07447303150791044 -1.4842993976722436
Ni 6.048143698351204 1.491731554785541 10.67190485339674 -0.30820842035598534 -0.3679372036751857 0.4219797352428862
Ni 6.346349867897938 3.7541394484976847 5.862480301163768 1.433811416225021 0.5489410664574998 -0.2729686233170847
Ni 0.09462034554190196 8.50321837183759 12.021468479256459 0.057474182957068756 0.296984783726024 0.6642280466579786
Ni 0.38400867003068195 4.093254002111909 0.050294170630640594 0.7288925767158995 -0.39485022601594577 1.9718710598833264
Ni 0.1534327167675286 6.279284827170665 9.151140977089874 0.6398506462548786 1.1462828928158906 -0.046404298296152335
Ni 1.410163722050568 7.273348418198054 2.9254381117958412 0.08330528508755976 -0.7782155913207436 1.2823562136341011
Ni 5.2240661062087135 7.6323040451756405 7.833503777272277 -0.6389353335294609 0.8534581540048269 -1.6148019092708963
Ni 8.522395617467605 6.433246762158944 -0.08721129045138266 0.9560274295283213 -1.0502213365039268 -1.9607394687465391
Ni 2.818400499708505 3.6364022241249474 1.209980015179137 -0.7105678102647827 0.0383685724758694 1.2575481534514856
Ni 2.2125193955852147 2.74839433332932 12.365258408475963 0.11997050171907726 0.20865299195815035 1.0562004369054971
Ni 4.570066711247419 8.729685047034735 12.017285442553412 0.7644187946469673 1.5003824192770352 -0.8473870081100825
Ni 6.627785167348041 2.993236128978686 8.034971806411141 -0.6219814792839418 0.6382709604725846 2.4850701928545265
Ni 2.40958403409288 7.675074834828352 12.712260526338492 1.6421710453124685 1.2281154500126654 1.3753118773272315
Ni 1.496608844659713 3.1798270410268805 10.23486925523314 -0.0971892421585036 -0.26810126792245437 -0.3900972847119927
P 8.769560810183686 3.0549813280095566 2.0320172590245495 0.5430211014286389 -0.20425846243488052 0.47521828285205253
Ni 6.533936521546154 0.5728234049855884 8.492436703068485 0.14051644419122897 -0.5799277446470013 -0.010663393251117119
P 7.31634970359151 7.190950800796397 3.1386457500023495 0.3434875552732536 0.2623957328972449 0.30258978861762725
Ni 3.9736174928354293 0.4662873516301136 9.480047335337968 0.16048440267272363 0.7239563157565467 -0.7146946879489627
P 8.573906805609383 4.227365643907197 5.1019771222507035 0.15631458756575015 0.1031058647532547 0.31593818490007525
P 7.696824412925085 6.941987741302504 7.644990530746265 -0.0220135281566137 -0.3472107697611117 0.1362710386513137
P 1.2384536150248944 7.973815754493616 10.11733578909522 1.3272744143030302 -0.8273781690883235 -0.37993859901143595
Ni 0.926353162226028 2.9781524877043086 5.988232323433703 -1.3862994866869867 0.060724057352934124 0.46734736474440797
Ni 3.1170584409071007 5.440022175627869 3.1336661200192863 -0.14142712893095644 -0.37964960701610745 -0.05746749808884942
Ni 4.746082478710217 7.487230025950502 5.204087657383868 1.3662795919216342 -1.417407778056017 1.140029969927643
Ni 1.8739580317487796 0.9330744180261632 8.151750168502378 -0.4236776917705994 -0.5878179460283555 0.08579668405084578
Ni 2.1959237022515476 3.274191997288037 7.930823688929788 -0.6870766691213779 0.25623331284027484 -0.3815954178885686
Ni 7.852823930261555 3.037435992224019 10.160718775435354 1.0515359415502923 -0.5394125581417744 -0.5841327838672843
Ni 7.423686960141817 5.241427045401655 9.379447930281131 -1.5094761540481874 -0.6719855791162104 -0.5475593556186247
Ni 5.024954665523229 6.50572384287892 11.791460467498501 1.043921619538144 -1.2843089664850977 0.857587088571536
Ni 8.459119926718186 1.1870161855201566 7.066590972800564 0.7326016501363705 -0.3206898406524477 1.7038047589638656
Ni 8.784469274695095 0.8988918996736243 2.606530658781283 0.28729583857303426 0.8163697337929617 0.29639163022671533
Ni 3.594765473516703 6.011264379831944 0.6112756264396947 0.18032894820247652 -0.5282719681439224 0.41067279487049924
Ni 2.677438524498264 4.490896034216198 5.491027195122968 -1.202569226112445 1.3843590751311643 -0.15307371203094927
Ni 4.782233430688721 4.982543449226081 4.89408655979171 0.31219594424882363 0.8021245367278572 -1.0374390971375937
Ni 0.6597922139177069 8.055199190635992 6.679119334760925 -1.1152339939298859 -0.2153124062561969 1.625895962301529
Ni 0.24297754609821745 6.26756642371117 4.577554134889792 -0.4478694585254545 -0.7551283704839769 0.9536864400999704
Ni 4.1964146758399075 0.19702222729136776 4.3631451528825185 -1.1890647638681069 0.4530833986262262 -0.6370023781728062
Ni 1.1780176318014572 5.387404607930515 7.213757893351671 0.6883835608582596 1.056991565348225 -0.8687320494447619
Ni 4.937071249491833 5.396725855686259 9.412333218604754 0.010423509326169145 1.4750290281139113 0.022215359754774643
Ni 7.720795969962604 1.9595088308838327 5.163280691442306 1.8581833058491675 1.8173374754773992 -0.6942485042794689
Ni 7.011560575689089 4.148425462616721 3.546034064008316 0.43658051587519653 -0.3185846213839868 -0.372452575047036
Ni 7.685032250828551 6.675488565852703 11.183049442124792 -0.5537431158318333 0.4427161964592891 0.2478936826263279
Ni 6.616168182014473 8.925901461216457 1.7914571522552696 -0.13473891827750345 -0.10501670862272236 2.5413177024933455
Ni 6.793585363581003 0.4990122149181788 3.9408861756666234 -0.913906074878239 -3.039358125446237 -0.4546612846363073
Ni 4.296357629027102 4.088321393259958 7.421932426563263 0.37596804439946213 1.1137152432925141 -1.07605295285505
Ni 1.0096266634425168 3.9444551717163248 3.4824495089662975 -0.5597777520616875 1.2113616275930945 -0.431097124163122
P 6.500219604589921 5.29995452389172 12.783078037725101 0.646113596445455 -1.019965880053495 -0.7001715546321232
Ni 3.2697019402583174 4.911163528232053 11.432232855546838 -0.1829303903810656 -0.18248456109289862 0.5057920418738515
P 0.7293585944235498 0.833234726930823 0.24011755494704884 0.559278700938082 -0.5640229004912868 0.22545437978620528
Ni 1.953313105372597 1.2589031971438238 2.07409195154021 -0.5956140450340065 -0.0829926389431474 -2.571821784619474
P 3.370013686630704 2.930310791755199 3.539516566443 0.5450239907912807 1.1929610135987196 -1.3548695503124795
P 3.9873365993245944 1.7448250979535913 11.577848078771247 0.40848170075645135 0.1338346612956792 -0.2180064081485923
P 1.7433314855535613 8.983931068906513 5.052885217403791 1.4359937685883204 1.954640297827337 -0.4870304449956322
Ni 7.62729767768665 1.3070122681521983 0.5632605976935444 2.4406901240772547 0.7842011194802172 -0.3548019518448083
