# total energy = -340893.2310021807 ev
CRYSTAL
PRIMVEC
9.04665769557991 0.00000000000000 0.00000000000000
0.00000000000000 9.04665769557991 0.00000000000000
0.00000000000000 0.00000000000000 13.24069798765808
PRIMCOORD
 96 1
Ni 6.55574173869403 1.9533995091864012 11.598096197761732 0.2637959556788812 0.776382908987379 -0.5571331153499889
Ni 4.5861487126779705 0.26086398613960193 5.8464168496048465 0.3665004712286591 -0.5066505332194048 0.4896907654366147
Ni 2.892551112046925 1.6202292087380197 5.040614786840695 -0.6370489151400255 1.1696344230576372 -0.7019582142189007
Ni 3.5697296085648778 4.380463908968989 5.1035740946755075 -0.15114255644650745 0.5455940043621378 -0.28506386391872196
Ni 5.083886758739921 4.597782714154473 2.783710776305248 -0.15144620372985532 -0.19240387708913959 -0.005201084584965236
Ni 7.11248208462359 6.040896463400302 2.4848019769391443 1.7527829886347812 -0.050164022448900704 0.7320846012906359
Ni 5.125456149707672 4.852618007771571 11.543770115128341 -0.37576467013940446 -0.6570721523394877 -0.4247421284793717
Ni 5.6706891473649845 7.827882708854 12.184368452260417 0.39532485165951914 0.30074425076845623 1.37777653681764
Ni 1.8424332089447415 6.493781181841336 0.2000975880698784 0.4442442030680414 -0.553420442385092 0.4223070366753179
Ni 2.6258646971746042 1.6087128138083253 0.2673558675233795 1.0751623227199807 -0.5699096982893668 0.23950725833484557
Ni 0.27797031070563444 8.923514345570712 4.504366024693736 1.6164327600061 1.5548522681901418 0.422873193591433
Ni 8.814583543254567 2.3224669463834298 1.332808759663525 -0.9007998765135841 -0.1060870588687657 0.5654418923260003
Ni 6.780650689477325 0.8748814343616799 4.702301461633844 -0.4380095350122392 -1.3679803766628247 0.40887173710601843
Ni 0.5108285593873768 7.3869486249001035 2.476910577648357 0.702490689683603 -0.5110188374904295 -0.30351744263821917
Ni 7.684058948765797 3.909341129115335 3.9038208587413368 -0.31811410950547153 0.01855359463247127 -0.5557488334079526
Ni 7.50920515363529 4.16429402927924 12.77498219766779 0.35810119142137037 -0.8568183287263116 -0.2311879398358728
Ni 7.8637798456026475 8.869370100751999 6.807373610909238 0.305212570952455 0.25544244150786327 -0.36210568459507314
Ni 6.76431242612852 0.7541049387847798 0.5376672780346075 -0.04920782918321848 -0.20801612970509983 -0.9111866190645469
Ni 1.8708668532998316 6.50258357953701 9.231798196048867 0.053646838791178576 1.211536976828694 1.2157260752093773
Ni 0.3262550354960968 4.809474498408089 1.3667581510638902 -1.181832507785726 0.3909388067766815 -0.09700000896583295
Ni 6.2756391308282 1.8914299056762618 7.077669642102806 -0.4602899436769944 0.30525910791967426 0.24647803322572392
Ni 3.508737044058986 4.335547254745946 0.21056185673851757 -0.9677213209264817 -0.2066490741542441 0.7682075722654382
Ni 6.033360597747171 5.654133764237458 4.815376537726339 -0.5331750618724946 -0.28572000944548215 -0.27877417425526824
Ni 5.218184388536713 2.7675715394202722 9.354156047347457 0.7036839386607558 0.7660463029480613 0.4779002005595898
P 0.16036919189253868 5.416061926869162 12.244825454645463 1.6612774271246162 -0.042385664055062486 0.8827191077524732
P 3.925905558900308 6.282939783387715 12.600073217926857 -0.5452142524252158 0.3537524275343714 0.2539990241931174
P 2.4194652075273297 8.172415611055483 1.487526504649088 -1.2111034888357013 1.929747134130083 0.32406029978657735
P 6.240348120128483 7.752904011935454 5.575750810121706 0.9442072969649415 0.0569735891715664 0.46933765570155944
P 4.652714018171053 1.3508016566593377 12.556352531818273 0.03020866237289636 -1.048861994262555 1.2837363818110794
P 4.235699296506325 6.186068175448069 8.330927524174205 -0.8665345275728109 1.0502673592505138 0.04831462794498776
P 4.744220958244784 1.1131821521633785 3.6334198863213865 -0.6509339006522338 -0.32503294811249184 0.6501000918970288
P 0.3210966314199681 5.448412773898689 3.526686517099054 0.09719181326166487 0.31710726550751195 -0.02380507283939771
Ni 1.709067384864964 1.2946309605725559 2.581009560222199 -1.0899016858126842 -1.0778038741078857 0.24191741043823498
Ni 1.8744674229636324 6.51209161651353 4.805910115374075 0.341950806913753 0.3032456770340713 -0.07266888841963613
Ni 6.257799122343237 5.730994165904924 9.026659810449669 -0.6754884500631463 0.5306211851023894 1.578263190914914
Ni 8.869162027630724 2.2670923561519607 10.111046451960087 -0.7333161597048918 0.4635346758665372 1.066829377374253
Ni 2.384418456578676 5.384715258816223 7.335161034346265 -0.15777137461693475 -1.1707387118654096 -1.9685779909543513
Ni 0.5339291991776164 0.05596171829976223 9.374466697981124 -1.9366454039118133 -0.9922897542944652 -0.5892099412798755
Ni 1.3863550204250088 0.9740807472623706 11.487100043550498 0.4081937372023874 0.22370808651905985 -0.4921330563295202
Ni 4.259193465895497 7.111468858989555 1.6802972048528553 -0.7736310572738546 -1.9602201059079596 -0.22632366976503604
Ni 5.801214321006487 7.963745410389077 7.736936661541967 -1.0252824071704019 0.5076488925769321 0.969103545985989
Ni 5.310197941427462 2.8869150444576093 4.84498353355227 0.0979052943889217 0.19565169460247595 0.17879322828424046
Ni 0.7544423791075431 7.331709734530335 6.98975060637245 0.10403249033258212 0.24918540485455798 -0.766909422279305
Ni 5.122724059158758 4.497916662599958 7.309315638686686 0.8520936695571325 -0.45212643402959557 -0.9999004767621876
Ni 8.129986787630292 7.3813668372554675 8.772386314260013 0.37191110072126915 -0.5049368929624078 0.5959480313346575
Ni 4.631816239469093 0.6273042740140986 10.49086946019554 -0.9785574923100373 -1.0863941868800582 0.8341604821174796
Ni 8.261452813646255 7.025742733024288 4.701916978692358 -1.0430063068127262 -1.0054728286436427 0.1303449029748658
Ni 7.268166012624464 6.079471410753182 6.881150911718856 0.6265194763636113 -0.6271743363387908 -0.2869091446575769
Ni 2.5393605586689176 5.179220434913622 2.5636245986068076 -0.918476982078373 -0.2291832507010182 -0.11147891930829833
Ni 2.3438984778747467 5.1293281190948745 11.241312312045881 -0.13170861609161189 0.07386907937532439 1.204732295202035
Ni 1.0049298491557392 3.2529066181227475 4.0780685278229125 1.2658553877656005 -0.05648867911534787 -0.9389792157967829
Ni 3.5326202197183676 2.788813091105207 2.6659884322823664 0.6973705948482183 0.13305278882433216 0.08588333022738111
Ni 0.8881266455294456 3.2538384238397615 8.104365749075392 0.5479645614768435 0.30390079411956694 -0.9007235147496939
Ni 3.5944450767093596 2.7853029880158737 7.344945899040654 -0.6515051997746715 -1.1445263151360998 -0.14516139916240806
Ni 4.217768821446895 6.6810650843036585 6.153494780645353 -0.036200875400589264 0.22628356055571996 -0.9291714856777418
Ni 0.7129317914131965 7.3454425605344795 11.368780620136132 0.4014433058524312 -0.3611674890515199 -0.35836987170172474
P 0.19732388289670924 5.508084526417357 8.038917705776983 -0.40438413364831 0.11942594206951691 -0.14344827312604327
P 8.26867204628875 1.6752962126162996 8.05732222568662 0.6173527222626787 -1.041742095388322 -0.22632726930946181
P 1.931027125320624 3.0336789682160017 10.053039284411618 -0.6151006930037084 -0.026478505906502782 0.7612429680221471
P 3.9310078737002674 6.2287050719945345 3.864932897040799 0.6065777431343617 0.007718708800496384 -0.18246064983349866
P 6.7527869845413795 4.0028383338273485 10.50587153223946 0.8469278090854768 -0.27727085023686443 0.4461072244187092
P 6.424872792069551 7.685352620780679 10.028557220029262 -0.20316960024607594 0.9483794260647603 1.2881458237326846
P 2.292386810373034 8.55526110754389 5.674419988896019 0.11319384511687601 -0.4821777448890212 0.4861729820913434
P 6.972584573867269 4.020886415433586 1.6741934250735426 0.4773654111020424 -0.1734767011673335 0.2438151416815801
Ni 5.484925083353714 3.0079864610672726 0.4916849275643394 -0.8443014272062234 -0.30937235875709945 -0.07625120645425577
Ni 1.2184490582135947 0.8517545592648448 6.858508937461167 -0.6237748237389387 0.9499328865948092 0.9403663259522965
Ni 6.763073034058318 0.7563340351796556 9.494466990349094 0.8931151062748167 -0.5409685897749844 -1.3645752076360176
Ni 2.4979540075352085 0.9982534159600484 9.05201578194138 1.557604891234614 2.3747289866950974 -0.1997556894685205
Ni 6.424375225909981 2.052044261985607 2.645848763474443 0.260256575067055 0.8122328288064528 -0.7877829232942045
Ni 4.172047014711093 7.139658243593583 10.5012369296295 -0.08423885264542266 -0.9798656695984995 -1.5137184742643093
Ni 8.203174246374383 6.887066521023277 0.28875030771916466 -0.15445388020792752 0.6024480372367044 0.37837819650285154
Ni 7.501135535192802 3.7599536746973885 8.547916126362885 0.5046299032449502 -0.08464842937901551 -1.5279981241117748
Ni 3.262369421812033 8.436134722285273 12.482535425715888 -0.005292615857507014 0.34196289109861105 0.5593476065028045
Ni 0.20127184420646468 4.874411405560757 10.158699720060767 -0.7211864663208934 -0.8895510430726422 -0.5548481759705541
Ni 8.394004438555825 2.2545355956158915 5.800749322813725 0.8434745604295538 0.7364937861019251 0.5950787413558267
Ni 3.584774199898799 2.857585781015292 11.399565490761628 0.15479455137679793 -0.09933019976090635 -0.1401408060193651
Ni 1.0782258677891918 3.0996743342899387 12.510248051472473 -0.8221619149947067 1.7390759234613342 -0.623919576846919
Ni 3.077102923960333 8.102412575732641 7.78506668849009 0.3795616752879915 0.09843391319888209 0.02449798514136426
Ni 5.7652267176833725 7.80299535421803 3.396781944158398 -0.5416103371240414 0.7954782350559333 1.2629875792995022
Ni 3.11255677449409 8.513031310582527 3.6798808049705864 0.5018070890841745 -0.4716087111239233 -0.6902419542232371
Ni 3.5278797712162784 4.375795833726474 9.314102876167778 0.009152355923229398 0.5330051119535336 0.2427789871075819
Ni 7.297839049049757 6.16001380200147 11.412607152136841 -0.24607925512540843 -0.16037667345026574 -1.092564063136196
Ni 0.7083044261291912 8.820391497335372 0.23329158357344096 -0.36927160621589306 0.26648327270305716 0.9755822117317973
Ni 4.442858705379125 0.3331666817854029 1.5495322947890142 0.04359999607813782 1.6180289008486264 -0.2111898994473911
Ni 5.716148601034831 5.610148915731429 0.6023906840715332 0.28419585949147186 0.048711606273090305 -1.3744127625517297
Ni 7.932905355153155 8.711623534853269 11.557076843566744 -0.42466756648769444 0.4672589187956598 -0.2902955446313065
Ni 9.249573973265958 4.851396709016261 5.686588647827622 -0.4413288291934593 0.041115024872755 1.4929087366078095
Ni 7.78975104771601 9.012171588548721 2.556897504129415 0.4928771335843963 -0.7002301757842005 -0.32598348495121926
P 8.5331963100313 1.7245281224414353 3.599139387258471 0.3107684677736777 -0.023756221879333277 -0.23773705380830024
P 1.7851226340196709 3.250364507380215 1.3858637869256514 1.3405245944447173 0.13125970147965135 0.7497575930903668
P 4.602351276165075 0.9975025433919693 8.364599183190956 0.24199017265769937 -0.9687533617354218 -2.0672893261843366
P 8.523371640044147 1.5209692832324357 12.540807660327546 -0.2153985382121 0.13554650178046335 -0.4341356538791298
P 6.386107864910288 7.750696627518452 1.2501865418682327 0.0001534948587287679 0.11985351652523875 -0.3559417218762063
P 1.923256046573878 3.4647612422104035 6.109853705122299 -0.41565610701770345 -1.1491792405270789 -0.2139795463773863
P 6.91197196897414 3.9463057714426975 6.0494229380438505 -0.21556823102074485 0.29780985073048066 0.15700955675024572
P 2.393555580599879 8.424383114261964 10.432716641462179 -0.027952776459184116 -0.8634186076516486 -0.6103464661481747
