# total energy = -340894.4656395385 ev
CRYSTAL
PRIMVEC
9.04985394700084 0.00000000000000 0.00000000000000
0.00000000000000 9.04985394700084 0.00000000000000
0.00000000000000 0.00000000000000 13.24537602469442
PRIMCOORD
 96 1
Ni 6.335313867221039 1.9968683135537617 11.496548587588336 -0.11880964864175668 -0.14120524272813748 -0.3873392623508813
Ni 4.537316088220981 0.41469144504456806 6.03563972751451 0.033649569733645274 -0.7854249645849892 0.8878523152139807
Ni 2.588918790961629 1.5694618240929046 4.6882142534178834 1.2737975254308125 0.34537217389047614 -0.5328040516863211
Ni 3.6419959642406834 4.1457470193213375 4.5134280944549765 -0.8017959497438449 0.7479817321368667 0.3285725858346341
Ni 5.057103484017412 4.514917700370223 2.379571240805976 -0.8738850544006111 -0.17107451948374408 0.674913808506599
Ni 7.161637906767324 6.092651090723974 2.6358169426869624 0.7439474141664929 -0.10514140712604474 -0.9627272101459999
Ni 5.268842910499915 4.294372766259927 11.756251333573967 0.10812337257250412 0.7725283111279793 -0.9426942027545249
Ni 5.550465307076785 7.983102174889021 12.379922904714897 -0.48068984748958504 0.5913460137862719 1.1647907218120908
Ni 2.051918573471404 6.347666917490246 0.44071972920520097 -0.9705824445243608 0.2298365680143009 0.031131945518114126
Ni 2.6010093954742 1.6109192037875812 0.3355758142288505 -0.1422054018578777 -1.1568665818690076 -0.552836544857164
Ni 0.5195421447617813 9.0846051151941 4.805568230975342 0.3689756722420291 0.19760830410821453 -0.05905155474651765
Ni 8.715181038242255 2.1577204128100775 1.326074154316305 0.12900638666910041 1.179483805047891 0.4603099982816524
Ni 6.942079406707829 0.6792503425133147 4.867953397298253 0.12331859225570373 0.49553128337779184 -0.4368088298359187
Ni 0.7816783964011752 7.658275776857798 2.6794336174689892 0.6506410520021634 -0.928859867974594 -0.38568938545228415
Ni 7.464690356851507 3.6536069265083695 3.735579596129939 0.6449154623722958 0.27582589026022175 -0.24857116830932674
Ni 7.610845493736254 3.9589489895728507 12.578709275629404 -0.6265061066271727 -0.1800993486901737 0.013558712521041166
Ni 7.976586280241527 9.029880650008831 6.946589853780483 -0.22844791519689042 -0.02839500620292529 0.4026887482237581
Ni 6.782901530381771 0.8074342799661282 0.4487587142265459 0.7728124180273013 -1.514483377454792 -1.6179772216750843
Ni 1.8367583022989662 6.387667270742913 9.293140893474918 0.24667883638262034 0.6989230269370028 -0.08590287061140689
Ni 0.08239801274439229 4.646502572834881 1.5830338896524125 -0.6063193472666525 0.4287810744354357 0.007563414169554716
Ni 6.440500316509672 1.970288893304195 7.025029460526523 -0.2288893736096832 -0.530554593530512 0.519109584918364
Ni 3.255503863253878 4.046452024776481 0.23960483093958249 0.32883560968803366 0.37990774577350056 1.2683830392834607
Ni 6.146832564688617 5.562718808955543 4.610582798605206 -0.7820149104621759 -0.6266266913654369 1.681389110272827
Ni 5.1494662906456306 3.214218430779066 9.214437031001507 -0.13447280910031034 -0.9524535961341339 -0.4176204298329259
P 0.11717479045465276 5.581406756798701 12.686301176025403 0.5001399857943968 -0.4108414592378795 -0.6331886608536709
P 3.920541410567348 5.938957425726223 12.519462598561704 1.0659197210757898 1.2354659768404659 1.0372560345925104
P 2.458329402401449 8.548754229120863 1.3139202008279947 -0.1975774508702791 -1.0194310905959476 0.2810184902047547
P 6.319132728846431 7.811616497562143 6.0414280139263665 0.31498661962008334 0.14615050254855477 0.23183817182536204
P 4.427450864581302 0.9946060686714786 12.487660507755097 1.1937991932292988 -0.26819691296005427 -0.10157040194533476
P 4.061646729100288 6.1378551098409595 8.32549976881965 -0.14801095279606122 0.3621403944877505 0.10248237223664287
P 4.823074267928274 0.8430644588781367 3.897888721828264 -0.13947771851406948 0.43012036207214954 -1.7551928836278547
P 0.17229925917244673 5.6893353117514875 3.5923710916024474 0.3848056972957502 -0.49820883020995493 -0.16957942299545634
Ni 1.5840863876350564 1.0312217766489205 2.599325217704896 -0.32925238551047814 0.16094205903543252 0.01892923280433514
Ni 1.9565693151297507 6.544293088332035 4.687604293280049 -0.24963329102525394 -0.27315811362007153 0.2979494616321385
Ni 6.1190585637536765 5.794033068941558 9.160978640345663 -0.020086229226913794 -0.6889216927499167 0.8952822891294646
Ni 8.537794856317925 2.488845509000543 10.256331300091801 0.539849902789509 0.05455006733173831 0.2426416901987692
Ni 2.4384921231413026 5.5242569308279785 6.958299459453249 -0.7093259674378817 -0.5043532525447959 -0.42159664087185456
Ni 0.5556221014015404 9.104424294746892 9.142964906601447 0.7756938533401544 0.7354553175350819 -0.19424298718040742
Ni 1.3711161810524708 1.149937757184779 11.356108433300662 0.07624760690982997 0.11396517606526178 -0.14146723814027248
Ni 4.275141827196144 6.868676043533081 1.5309936110677655 -0.8030465343214944 0.8309558591372528 0.4650433992015797
Ni 5.5384923506620165 7.93822395050441 8.269352666636346 0.19807958731767822 0.27485092794146215 -0.7689876449645724
Ni 5.146407440102779 2.5446197572123506 5.0697732791653145 1.0068643096745307 0.9026215031033552 -0.7920820648901907
Ni 0.7403268999945204 7.622954197956179 6.985160330152173 0.5432231901371161 -1.1336474634400668 0.08927075864237527
Ni 5.0555288094776 4.691471295756262 6.947026961713085 0.22287762019796456 0.0919796729331061 -0.08889512047051142
Ni 8.352109958571718 7.214679099168656 9.261868219108422 -0.9416184531918427 -0.4056861402891852 0.29081053659451206
Ni 4.590384430183344 0.20455293767753893 10.301935322741313 0.15958271679406066 0.8645051558476079 0.5986438329992657
Ni 8.103628126160293 7.170235267760545 4.8019654842265 0.13123064801392884 0.3731547433203832 0.11193477589879433
Ni 7.164018018284395 6.040370086031516 7.014658328212596 0.7409621062859238 0.12216262427438963 -0.21932615540128034
Ni 2.3297219317965485 5.125800923280082 2.5749539617525357 0.6052204577755189 0.42150073872393856 0.04024676333518876
Ni 2.374708754425284 4.976387839071587 11.444163509578592 -0.9089942393989183 0.8075912162693833 -0.7807028765189716
Ni 0.9627324840208235 3.357423315365087 3.756971640251807 0.581506916208663 0.41925899387761345 0.4510509415772297
Ni 3.7382411580963666 2.370220027001455 2.5505691310196594 0.35577897104609696 0.723521027991341 0.5715546900919576
Ni 1.0202714536996609 3.4522295824861158 8.011664418079235 0.04342233284969296 0.4584369496286556 -0.3269543335049208
Ni 3.855011420091654 2.6688018493691623 7.037320971790725 -0.7171164100165778 -0.24693388981621991 0.16965089966334007
Ni 4.200525783628668 6.969762909105998 5.839356546127081 0.8306586396118081 -0.6457960652050361 0.6418391374398172
Ni 0.8403938470580322 7.2716750776268695 11.47387327421506 -0.3863941248287926 0.030824184469708207 -0.09130912922864275
P 0.11976123863556055 5.621986300686702 8.034565072809071 0.25084659460706477 -0.24624072040393724 -0.48856770757576506
P 8.74281929137204 1.7252369554363818 8.075122897048246 -0.5386247721331562 -0.34796898808337495 -0.5485384317024424
P 1.6380506651114495 3.2925539642078197 10.332002556598026 0.013854646494905169 -1.2929674134910443 0.15460043308812083
P 4.211910499554427 6.108940827342707 3.7190500383887635 -0.9624263910761296 0.21985940219693104 -0.5742798023326046
P 6.810376886145369 3.963826860704794 10.19895251282305 0.9574734179462285 0.3530394606277468 1.9304313046813013
P 6.418228626610392 7.869843256120438 10.341843367486476 -0.2606867206259381 -0.7000247446416138 -0.9020720583577885
P 2.550999904054688 8.332562274629238 5.941610842824342 -1.3988451845624812 0.7243016149111074 -1.0186965264227683
P 6.881264389997891 3.905066160779551 1.4963960204603113 0.9017732961704469 0.4771388969135331 -0.3165917593236741
Ni 5.290001468396914 2.714847504878115 0.4632728695538374 -0.630645582716843 0.5475382725727023 -0.5275302048818915
Ni 1.7151192190254128 1.193132708785454 6.722253030979491 -0.9370151500918765 0.14394886691154565 2.0422652933361727
Ni 7.124090063861145 0.7296453576994698 9.40585953597898 -1.0419495834134378 -0.23774579555904857 -1.0587136902456542
Ni 2.975790985802871 1.639190946674761 9.112368256304627 -1.4835913158616256 1.099208565035907 1.073967531080931
Ni 6.4307264745384325 1.9027860347268992 2.359028072959018 -0.4014091101803861 0.729637425301724 2.5887949221387028
Ni 4.260915457215783 6.942948192660828 10.576167608805486 -0.7567088275972192 -1.4520654773392025 -1.0499480282378821
Ni 8.20317651660811 7.113899928620758 0.58273727298879 0.2345460576748283 0.19368480068409225 0.08343846823131436
Ni 7.570790841361523 3.6845755257913173 8.171311076825765 0.627802456841093 1.1403708982068297 -0.2001542104585198
Ni 2.985094235382903 8.207221801201761 12.363909188633315 0.22194019598535972 0.714065539005396 0.04629116975705576
Ni -0.14234514848669905 4.911961930744496 10.429501155187983 0.3747709387675675 0.26200518232704556 -0.30977885016689877
Ni 8.60644704631221 2.4099398347901335 5.874098934393369 0.5267051378774349 -0.5463771623850655 -0.18288848139953665
Ni 3.6309098934862676 2.715689141270083 11.488813677650542 -1.0206703623196873 -0.5574886989171948 -1.0774500903128927
Ni 0.8642528812922705 3.4129713172349683 12.741481753835995 1.0908517084307794 -0.17141750464545963 -0.5070074023381913
Ni 3.160362751546798 8.625524137863481 8.050644852822495 -0.20243272208005136 -1.3890086580880336 0.059849110947148544
Ni 5.70980608076903 7.867345496505566 3.9624603327995556 -0.06868470696090752 -0.2822472204055333 -1.4985255685739547
Ni 3.3086627037530114 8.233339678913797 3.512659980414778 -0.5795109688245568 0.40018629351687857 -0.06177975231095812
Ni 3.0577736102634856 4.242191309957917 8.999265900004657 0.7094864042751459 -0.012089327064366277 0.023505796431424034
Ni 7.179909561341337 6.3205626057274085 11.661188955593877 0.637367989042341 -0.7357525370605265 -0.8134332768724571
Ni 0.4103348454844246 9.107591743533868 13.616776361599664 0.8638366690256736 -0.26128141678714356 -0.2719165279034865
Ni 4.674529969672779 0.45986288468831593 1.5317746134400971 -0.7998982185004998 -1.5932190408937978 -0.10771096762543385
Ni 5.886966016351432 5.71070201628306 0.3512049115291576 0.8546043517941283 -0.30328321514022605 0.24502535993959737
Ni 7.882304904633768 8.806204466526268 11.549503806379738 1.1319232816601086 0.4680299926337294 0.5526015460282225
Ni -0.04163837676821809 4.808974595899393 5.6861606230815696 0.553622273983253 0.6230065781143463 0.47495371633675626
Ni 7.94487559295706 9.052116140493403 2.55813209373759 -0.42178098896851873 -1.8028256550144692 -0.42990130408280797
P 8.631415592607258 1.692802279857748 3.505931414205874 -0.4565135073536976 0.11379265504313953 2.0966600660369696
P 1.8501973350094212 3.098678948883861 1.7062956116902654 -0.5402702781563792 0.9283510466589753 -0.23037829945038385
P 4.921301379739237 1.1154940140898348 8.338745134661416 0.3362907804144983 0.10749062408451164 -0.6422222318108488
P 8.43125092897773 1.7326759351589365 12.4491434255201 -0.1865304490274981 -0.47342673816926845 -0.6757712714108878
P 6.350635269496326 7.831743372139956 1.4288316228780114 -0.7742910594553568 -0.01981549206403039 -0.029017727388588734
P 2.115403297016079 3.4607002455278573 5.9681676384397155 -1.074635503682233 -0.28121877914101895 -0.4271815911587998
P 6.8561872454587185 3.8340338592681964 5.840971945008438 -0.1329478878153517 0.6181585059934258 0.7490240573584519
P 2.3498216568133303 8.444898108322759 10.142090472199255 0.23197392607227793 0.15572991870687375 0.9660567887398651
