# total energy = -340865.7509845404 ev
CRYSTAL
PRIMVEC
9.32297711496690 0.00000000000000 0.00000000000000

0.00000000000000 9.32297711496690 0.00000000000000

0.00000000000000 0.00000000000000 13.64511938872271

PRIMCOORD
 96 1
Ni 6.117728086824704 5.362818682247044 13.330367085611305 -0.6338640896541406 -0.31964802965149464 0.5773378724326379
Ni 7.5335433203886994 1.7741531718193024 4.381243470675262 -0.7582214075870038 -0.39353587807989643 1.4793844768691295
Ni 0.21228511520103996 3.7181243669844375 8.097300001394089 -0.4618238638230175 -0.7610154253923732 -0.20672954968319238
Ni 5.007249668116563 4.705772565677134 8.560852394904373 0.5831279967518538 -0.08321529647691475 -1.1892953918216744
Ni 8.485214151412356 5.536804076245392 5.368099216335601 0.4760600620270576 -0.03872004227801718 0.395122505840726
Ni 1.2695470497444636 1.8771347741184004 0.22456347571415888 -0.10857562961857428 0.169348795041889 1.4749680929689888
Ni 5.856647443081817 6.841862344816334 8.3192651634598 1.8465382654110714 1.7592608830496412 -0.2770312234222325
Ni 6.808569994480457 3.8853412797887668 6.187201978022664 -0.9954668664708664 -1.4946815122375163 -1.5337887626516231
Ni 1.913158756671697 2.180821422071579 11.606238210682847 0.7869645411579673 0.19514878682412842 -0.8976551602370154
Ni 3.805862902131713 6.518149942586633 0.4397592242881645 2.4596967470867446 1.0059564531482803 1.9533398338483587
Ni 8.160448252798462 7.801811979283915 6.578503165530996 -0.8543613825453866 0.6616947387131636 0.29091055250748604
Ni 2.4749054038679525 9.003739477926137 1.1788139744325608 -0.2471981992212001 -0.12868577010488808 0.8808676563660314
Ni 3.470366257162011 7.0048373031533355 7.911767168267761 -1.3637725092290645 -0.6464131299637448 0.883904386309826
Ni 6.776797289371339 0.786159090685424 9.935939271795922 0.21176325545235788 0.7164962599340756 -1.591369646389885
Ni 3.5907165653350197 5.994413072012994 5.604104781539321 0.6116178766614305 -0.5207008406648839 -1.562801090723573
Ni 3.189120014489833 0.4991074303279614 6.938352358333893 -0.26066898001412525 -0.9637818766627595 -0.8599933840201834
Ni 7.778672350739069 7.0805025832782205 1.5512044356957833 -1.570451408179979 0.10847921325002609 2.555194717585754
Ni 9.126504437103623 0.4284513856652624 2.830066071612348 2.3527229147376514 0.03075013669866317 0.40549022222829517
Ni 5.012964652926389 9.240235431712234 11.186131821597154 -1.1116390774897758 -0.2508766765140518 0.5081386877291572
Ni 3.8064502496733437 5.977510514981646 11.711619547223462 -0.6717513516182172 0.43055102185166494 -0.6841597525848991
Ni 5.759828328481407 2.7445911552445597 13.521412594949789 -1.917222776410827 -0.19702697768344776 -0.7326235045132414
Ni 7.763904755406663 5.221584905927196 7.667670191454826 -0.03300576550205928 1.8378062848547123 0.6080188464562625
Ni 1.5563870785274028 5.18276403031852 4.319962611534198 0.13995337259890736 0.039912262813905454 0.5160499721564338
Ni 8.20494682130956 3.527199124047336 10.539872389244161 -2.077801795679886 0.9839616940447442 0.10372935726986653
P 7.124311251502325 3.1798809444302267 8.36565909316476 -0.33011087685603147 1.247493340318645 1.0158706269381987
P 5.707778148720782 5.831568635351909 6.43080856625322 -0.008950781435384584 -0.8983347028025431 -0.7653809014499205
P 4.403931867140506 4.209771551236015 12.426827987177688 0.47290557555847584 -2.227067961039287 1.1295810066801772
P 1.8314335415934884 1.4685180217042089 2.4413305673334835 -0.6891749464113035 -0.05766290192910714 0.6446064157723091
P 6.674636109035153 9.069401203889612 4.80321818432195 0.41605642777991564 -0.3660829240752663 1.3566829493721344
P 5.695537080115068 6.158683924132322 1.9933195762342628 -1.7974037126679498 2.125468248517914 0.3054789372399642
P 2.867682418611841 8.02688728642721 5.66204242118152 -1.0902942932654125 0.7922347884179711 -1.1721461337358974
P 6.836380434427788 2.1104982076824705 11.650352672547674 0.44796073268768016 -0.09646547661860161 0.5595993175022944
Ni 7.89668259172241 3.245766421838132 13.440578656458563 0.7422671982505926 1.660476528489876 -0.269422043616407
Ni 3.397134273995307 2.3838105970542203 1.240414611679624 0.5158813077890534 -1.8678020598858542 0.053551193753578745
Ni 2.4603708829568274 4.793315318310534 13.570875648634187 -0.509178184737265 -1.5318298391530392 -0.558256944541787
Ni 3.018677351694965 1.9827174869590016 4.379946644595251 1.4319476235434048 1.5677867168636226 -0.34198834501990777
Ni 8.85786285913436 5.709036750595703 3.0777113734148744 0.7802683600847143 -1.7886213384896292 -1.2992563318235495
Ni 5.991728054679829 7.115267963956596 11.777647666177192 0.9292699589288189 0.814996507594519 -0.3396555831216731
Ni 5.835204596323902 4.598343903419982 10.745899922382632 0.339839416997705 0.2047996796503312 0.8018609986538254
Ni 1.542896731023619 0.3143791701038971 4.724404534914393 -0.3266964518578438 -0.7805943759655654 0.4550492641033453
Ni 1.9595125975761978 3.886571912733134 2.34165209573279 0.3433847111468022 -0.0723852957409463 0.520059350426143
Ni 0.020280271544561603 8.711361600893547 0.7110932779720757 0.017232304717886452 -0.25086793476330344 -0.8808404026725217
Ni 0.30936061166485995 4.434856181356159 0.8527857447530053 -1.0512094114488089 0.6939903655220757 0.853400047073382
Ni 1.1036353536993122 3.8488325024392043 10.211829464267048 0.20368639198149435 1.1080709005225433 0.6512532316648655
Ni 5.570609190308088 7.574648325325938 3.803262723887895 -0.4415139486210718 -1.8149010981217646 -0.6622963768529045
Ni 1.0277742910605507 7.510757964964203 3.8718164372706334 1.1473193045002048 -0.22958408568386268 -0.10892709942072208
Ni 0.9953303316181407 6.153211336720627 11.1141127577188 -0.3365733446519236 -1.0575489805135916 -0.06285473054269175
Ni 4.430912562148074 9.109331513743589 8.710034008989926 1.0798088203530567 -0.18898688098779065 0.8719654687803952
Ni 2.3383517619274414 1.9050570897879457 8.843988404984303 -1.7954941543500627 -0.3089823224075324 -0.4209173554166428
Ni 1.7370570469281104 7.196340570655217 13.013227382061748 -1.6644324278138303 -3.3563959711683937 1.5902941539375193
Ni 4.3133871159609996 0.14657677435330851 2.877509768510762 -0.4545941788437977 0.6715803732579918 0.21843809636937223
Ni 0.43415518290286775 2.598910318966658 4.121057832710097 1.8871647806831824 -0.4798778931112509 0.26391268376240357
Ni 0.9848885975447214 0.06454576563437842 7.635780949135067 -0.924719620553975 -0.192788514122068 0.20417361603055803
Ni 7.289327941769755 0.6405966562135333 0.17466597130849157 -0.2471737737411679 2.877672760486876 4.294016101834122
Ni 1.214541486321987 7.054584707631697 6.551717320739621 -0.3935716164138383 -1.0086998202213724 -0.38184764310869074
Ni 1.5031901726140717 9.187057171752604 12.346608432860958 -1.2483171217715212 3.412353717480936 -1.566576241495289
P 5.4772489001194975 1.4561091395151722 1.5773488596797918 0.8443268811275201 -1.5675406622910875 -0.7639639664977358
P 7.932697251298855 7.238042246110934 13.253449729695296 -0.08974872672005833 4.411711948586408 -0.487298096834722
P 0.6504417197684715 4.141340901147713 12.419405033008708 -0.44753624355575183 -0.5448728099253971 -0.8871833141714139
P 3.534424431107068 4.217304516531839 3.9381317039113823 -0.6362675568893107 -0.7482167309658082 -0.600913602870049
P 8.137756127142477 5.622062699550232 9.702934772840626 0.3508280547987248 1.298285226159532 1.1219309463340872
P 6.51688201773486 9.071909084662604 7.8161563114672745 -1.4753241907568269 -3.435279473039174 1.3371549066415358
P 3.4120510369573345 8.333883591162587 13.008724384242585 2.3868003160373346 1.8297229936259456 -2.3187033632590968
P 3.950126645928223 2.5830612583195034 6.630832102299474 -0.9480585523902317 0.9796301565489257 -2.0397152732208097
Ni 3.7216111603268116 1.3065499448671434 12.848735575391045 -0.059246444366143125 -0.5652081790486394 -0.1907059205614264
Ni 4.823512440331788 2.362675408532398 8.420389628770124 2.4254717644656036 -0.5773921227093411 0.9922301047011234
Ni 5.26656826923456 8.829968512395368 0.3541034421694617 -0.419913853852793 -0.5049417780584142 0.3835617975863201
Ni 4.89739703187808 8.006852209173834 6.1736249268341625 1.7967156854619897 -0.0874776712976945 0.5097008900099543
Ni 5.470238021527345 4.953437445731048 4.040743184029485 1.1611258713659938 1.1553306048404555 0.4245528952867011
Ni 7.9514177888162 2.372380627434567 2.0025577139961834 -0.22143086044910895 0.15153387834765514 0.35945384879452286
Ni 3.20594798770637 7.229726150759603 3.0850112642894163 0.39422390528585655 -0.3485937661515674 -0.181401612441365
Ni 9.014777882518038 1.7636088850005194 12.208588286661742 -0.044609668289574786 -1.0438753396812408 -1.1046186803078848
Ni 4.411586031135396 4.304231952693055 1.4032096365633968 0.513728780222425 1.5477017731882894 0.6835007788446615
Ni 2.75283266678108 7.807135399065989 10.765685143856391 -0.8613113315006584 1.5000144944146554 -1.093448522623678
Ni 3.358033709081092 3.6387765110033023 9.98757178219361 1.4247649897520367 1.334101978747825 1.0628138284569566
Ni 6.818247244452074 4.525111920253278 1.7576822686161688 2.382347936692936 -1.9390074763860865 1.0070445440061366
Ni 2.9387701171027536 4.583697506786641 7.3506526189020205 -0.7546012943359134 -0.9313985752360476 0.5413686534268806
Ni 5.302694804533221 2.696708346136451 3.219484017796725 -0.03829143938103083 0.10635985291417811 1.0071515018976462
Ni 7.50580746425618 1.3695919143354125 7.378952515134043 2.1919459205251735 1.897535582394545 -1.4052500596475606
Ni 8.222772353049184 7.653194405297864 3.9461820944224515 -2.0917657140591457 0.8183284001812293 1.021555336027802
Ni 7.706698969447286 7.900663502837901 9.871602340843012 0.24346007233500652 -0.6384645645406295 -0.2017711772366525
Ni 1.829112120357523 2.37541991788808 6.685494580173824 -2.126847388253627 0.8754714250511245 -1.7500653325933022
Ni 5.219533851019918 1.0099860512283327 5.866050597534005 1.3538434230408103 1.1822549400351252 -0.5952126958305298
Ni 6.9549780229527585 -0.02986615634303457 2.759998306788964 -1.454178409917147 0.6354723146815249 -2.4703336579753006
Ni 0.587740971252959 7.153604044769007 8.96708060064927 -0.14611913508998706 0.2593453761066953 -0.6712052493067602
Ni 7.5679264590161734 9.161307109689405 12.016506062297399 0.40571545086522387 -2.5676771663234814 -3.3764798864024623
Ni 8.06515810640166 5.750197693394048 12.100723309087952 1.2744631840392695 -4.094451188220167 -3.3733307992505197
Ni 0.12106071900907524 1.7906548408460454 9.737197645066718 -0.7553376582813056 -1.4986842056390062 -0.6213692996212394
P 4.641751683639482 7.08528527040292 10.02410013779456 0.46587566529488794 0.3011977933661071 0.013467438358815515
P 0.8670899881359045 9.160029861860782 9.933646751788194 0.277807953687257 -1.2550865792848707 0.5496046681834277
P 1.8007516247759678 6.518672029290303 1.453191980058411 -0.8028130781544496 -0.4155368078310198 1.088042006896126
P 2.113164579061933 5.538174553842529 9.255402050453874 0.7413094623230136 0.3228130576430376 -0.1187494848277826
P 0.982781604776335 4.458778939956511 6.271556272572929 -0.2533055976705186 0.7266130366531035 -0.34126277970779295
P 8.069661104220822 3.8057789953400523 3.8994478760624194 -1.6517160086884266 1.629675226838303 -0.6386244871572614
P -0.016789749011447155 1.2095257247760052 5.976453289406712 -0.30396224348512163 0.140886425936138 -0.37397518233914945
P 3.8559552567535724 1.4762840614213144 10.079922393989207 1.0994273659149323 -1.082789500247935 3.4460099720828006
