# total energy = -340869.56293451524 ev
CRYSTAL
PRIMVEC
9.19832802234336 0.00000000000000 0.00000000000000
0.00000000000000 9.19832802234336 0.00000000000000
0.00000000000000 0.00000000000000 13.46268284194363
PRIMCOORD
 96 1
Ni 2.1513877613282575 5.08152437638445 2.508771322888069 -0.9136435652454715 -1.3003256536283283 -0.45377528248692817
Ni 0.11602863050494366 1.4591951750352976 3.9708179796348273 1.4149215212990536 1.8732070329515096 0.9256087080271479
Ni 4.432821485355311 3.791293290245332 0.5460817435649188 0.03224677584884769 0.17483732896028598 -1.822038223387178
Ni 3.913345905823938 3.032219660326474 2.4886306636770574 -2.086972920656193 -1.3392138460530936 2.176799551802038
Ni 8.138110407851757 8.465782449810963 5.980245183874434 -0.41630968144130237 0.4657085435894044 0.39523357749729354
Ni 5.169938706095924 6.795973156235959 6.4479792480021425 -0.8254963786845784 -1.1973426876061832 1.1260220856843253
Ni 5.515161158072763 1.684508221881176 12.000783643997424 0.7418722768050191 -0.6142882244047422 0.4111903579368661
Ni 1.9228644979749605 6.6825853657289525 4.127672469585403 1.39287611146324 0.09576176568335766 0.5024017852453798
Ni 5.062005524153097 0.8355880825654417 6.199147915866387 -0.18796101082643757 -0.27730735990175465 0.0860936464659743
Ni 0.1554683019056815 6.7771993685808285 12.868776516631588 0.2913538106924917 0.732288746881642 1.31518868678309
Ni 7.276944534334516 0.07518529423591921 1.0142343316212454 -1.301410916272707 0.43201346532980434 0.2761066547254341
Ni 5.659832462452922 4.473349318970454 8.60915678992881 -0.038911846573849114 3.2127774910130733 -1.3112980934794318
Ni 9.070002226141318 2.0353968439685297 8.876620255466936 -0.6435509779246014 0.8402105449663012 0.23764500831512622
Ni 5.320818881944585 3.089120517962261 4.775146463980183 -1.1352878272569673 -1.0066743051509113 1.451820708318248
Ni 2.1808776012216184 7.5591860338004855 9.072529006870797 0.8003103663372539 -1.6076269887890118 -0.34529478368532146
Ni 1.15665296544935 1.2387388454270034 12.765733165907509 -0.3556776695815423 2.577009499468 -0.16205277560110798
Ni 4.521125435129568 8.26306049678233 0.9364523493622771 0.1306323523082976 0.8702536282956108 -0.1919657611104565
Ni 8.505758383740016 2.9792188938057165 2.415353102689386 -0.45922653540948655 0.8888324197390629 -0.19558536014091477
Ni 5.934494539563268 4.018133259556057 2.8190585247354676 1.4655102899901986 -0.31400445821247214 -2.6342183445788248
Ni 3.5387163989066517 0.310874975013083 12.450262706174925 0.2179994661700568 0.8293849151057071 0.009553705126706127
Ni 6.22654145678542 7.932509378127361 2.661545434492826 -0.9348999035210868 -0.699443418216847 0.4728132729549857
Ni 8.20724504186252 5.325454839307733 11.520623558437418 -2.310477375804879 -0.3967065624983942 2.3006696456858373
Ni 2.7847846343965235 2.0698077893961853 4.800375638296935 0.07026773517731123 0.34572338658230783 -0.0037093305307871597
Ni 1.8547324817272601 3.5377321777997928 0.7394673935705424 0.3094484634106735 -0.6882814880627566 0.01002344567427306
P 7.4154713555428815 0.6244285031693185 7.55140700772506 1.0907102977569085 -0.7130466108225784 0.23651140893131525
P 6.368876385827801 5.930217316996076 1.9963140676981295 2.1890968811121523 0.13890719072258012 -0.954969420577452
P 0.8068147924311861 8.27196447838457 7.376203692877642 0.8885958782482245 -1.2298815407741528 -2.7691575517925924
P 6.193749417103625 7.833728532645512 5.006906618992391 2.363323058851001 1.1383770077052524 -0.9734916477513558
P 8.981100385040465 3.1733588067156617 0.1311405637428736 -0.799264698681559 -0.42588652649646 0.00527513235601027
P 1.238426102271553 6.495335000567018 11.021750394187752 -0.08103680076835722 -1.2099616619217743 -1.9456663764635007
P 4.302030458080294 1.519021101007357 8.419467947987174 -0.5462992579592786 0.4696179059461396 -0.9541556664269051
P 6.684875749426221 4.224414965559962 6.428848565216675 -1.4052143213136186 0.360473805418605 -0.3768206222077446
Ni 2.981619657440204 3.1239637848106865 11.733495866526038 -0.04858819332134858 -1.6095864265082283 0.549439346250157
Ni 8.30226377115086 7.2112776700180135 1.73538049527925 0.2559651467805527 0.491087131563509 -0.4487621455430529
Ni 0.6767688297323892 3.3566170974815503 5.469268859508833 -0.2693084008566781 0.5421397272649503 -0.35114867136293715
Ni 3.1899249956264364 5.168062247163221 10.731602931718554 -0.563499680997965 0.4968440886519443 -0.9268073563209394
Ni 3.081099575857766 7.487383884640292 11.314577329632911 3.0260835198245175 -0.4365198378405902 0.6701762938216136
Ni 2.509313104413247 1.0863501437696992 1.2671855949136563 1.7842093254648628 2.4587487813511784 0.050539403510448444
Ni 3.0009637414376273 8.637441648840879 2.738026773158244 -1.3562929130225674 -0.951971771401709 1.119155440471479
Ni 4.504605237859301 6.152835253708219 13.294063056069373 -1.3298000089383615 -0.24205830689147345 -0.7716433374198646
Ni 8.863628536856398 2.8397998347715063 11.47326228687568 -0.798860778374921 -0.3201259977291777 -0.48745673389977345
Ni 0.5819303876748368 5.888705262274074 6.318225792136974 -1.1246126069313083 0.5691453093195166 -0.31773795711297537
Ni 4.976332296215865 0.716982080526462 3.0648608474274037 0.21580014452589283 1.0641289477239544 0.41345035761563637
Ni 1.2114933975904043 8.695464702505046 11.407052721201191 -0.8614020914422519 -0.6321514778384081 -0.7765466882587531
Ni 2.5693873852440463 4.866449068715524 5.839451894621862 1.281847649428799 -1.4222885031870862 -0.6173681488816465
Ni 6.750928943522986 7.794194118465329 8.160782446956297 1.1016601119001932 -0.8534568684532463 -0.180845739937895
Ni 6.8958945944023915 2.3519113139406334 0.6268375452990974 -0.5600477178936225 0.23180526170489754 0.004739828677830547
Ni 4.3030514724995585 8.269278566578935 8.033425155561565 0.3102082243948335 0.6122681086509197 -0.14197066013925227
Ni 6.195322331208979 2.2997751902614154 7.915061069551654 0.1431731650877857 0.8063264906243467 1.9051550466130156
Ni 1.0964683046813328 8.700983699365937 4.970610936136741 2.3819239617816397 1.0214404077164925 4.13824350281477
Ni 8.012010527908497 0.645192809025611 11.26230139136655 -0.23829909695935733 1.5940783035702997 -0.2515323078201797
Ni 5.788967790669671 5.488302040016427 4.554102361206203 0.35399719655532585 0.19949189428417258 0.25340947023823457
Ni 0.27506312421557094 4.4774517733037165 9.922387375652882 0.9576546807190992 0.05524966450192421 -1.1533423707658332
Ni 8.983068827254181 5.089112997068174 1.1773988746494395 0.7709468255734723 -0.4116205034957492 -0.125708432644119
Ni 6.647337372444061 4.670294721951353 0.18886007257969284 0.9532593798648807 0.9307354877307519 -0.27111511504811375
Ni 4.298185556933873 5.95792268123775 2.0619312610428837 -0.9001331894638626 0.12097374617261102 0.798833010460779
P 4.682804448169373 1.4966139737521391 0.9732953327399656 0.8939576567807702 -0.5281565256119807 -0.9243182713504984
P 0.7410099531931614 8.441462070310635 3.094774730246244 0.7173439526463516 -0.6134796124605176 -5.038055561493787
P 0.47658285576133774 5.061968730840691 4.11501740978338 0.61494385571087 -1.3943316129628438 -0.36953154474549904
P 5.27991391687728 8.282597745669886 11.735757735406192 -0.5293554310160884 0.24249462309794367 -0.6524038003295409
P 5.353592524970177 3.866572407427886 12.059117601151423 -0.6744929189190964 1.0562292332609036 0.5651775829210202
P 1.2795794221975976 2.9982502346476894 7.461436320898813 1.0927517536669695 0.2635642992840493 0.5209697780555543
P 1.3946781017314809 1.5539379544805947 10.535155158287946 0.44329289489836554 0.3386829347957586 -0.10756338630397605
P 3.8155768764332527 4.782909852897835 4.020993939595618 -0.12860683723783659 0.10786677647700778 0.3158631086877657
Ni 6.603332570806556 7.406650158893557 13.164646259012718 0.5680955278987636 -0.8727663674151357 0.3183308535019679
Ni 3.8933487405313096 3.118095251481939 6.9860823617718335 -0.08774018093046179 -0.0727082262980038 -0.280633081840878
Ni 0.1506014665071857 1.0615330545518922 1.46744607534233 0.44623757934898634 -0.9308702135364034 0.11247573600392888
Ni 1.8664971433690594 8.386281300029827 0.3416424626797407 -0.8355913010267352 -1.3191852095369927 0.21881090632775865
Ni 7.732749286747408 4.099520066597997 4.409729082656533 0.5831441947017699 0.012585292864178324 0.3867257971365985
Ni 5.9024475644576935 0.2855170241029088 9.510658252003875 0.08347394945494012 0.6189023261379858 1.721398560786229
Ni 4.4041778916472865 7.242257639063815 4.063226223407967 -2.156012696963674 1.055494669087724 0.8794165257418017
Ni 8.04540965724499 4.4464350109455095 8.046053540212094 0.6276456195482545 0.30691695523807144 0.160681092064562
Ni 2.4678930329722593 0.7047667008076898 7.246638802738552 0.8045501154502143 -0.156896171100833 -0.33822347866083685
Ni 2.6341804083909075 7.043215017275778 6.532659056504415 0.5077010859711063 1.7090942894975791 0.5753568374468672
Ni 1.0860006073018427 4.579249670402853 12.128490471860013 1.7531822809557291 0.384221542657506 1.2891133298522766
Ni 3.268754667456164 0.36152556870391095 9.71397165752943 -1.4241903481954892 0.553812278506872 2.4669020065859324
Ni 2.791775363753652 3.404558783546491 9.156926426700352 -0.3507282959960669 -2.385739221762672 0.5221458006415266
Ni 7.844922897945019 7.729998986645064 11.036263516266276 -0.5587814495866893 -1.8352333819212132 -0.7144396345153632
Ni 0.2754890068066697 1.2289886176394291 6.438447020590574 -0.4948455701646768 0.18977595254798926 1.1518835268321195
Ni 4.892305569008799 3.1546402090291394 10.168283521291453 0.34419435153229105 -1.4984965151082321 -0.028613549971634594
Ni 8.76275047256741 6.8783257877285555 4.089761560315132 -1.3330331711636785 -0.05834295871526726 -0.07019934383322103
Ni 1.7017182937590547 5.078323358205132 8.23195910980559 0.7649044760341344 0.9982274599351387 -1.21867461631474
Ni 5.365393979924382 5.947611355435985 11.162166551988163 1.465291232000857 0.025913120321336015 -0.9758205529948485
Ni 7.538692158790377 6.24964765697635 5.979545191105911 -1.1348052311935939 -1.165736887775444 1.5175599594975864
Ni 8.004550683818193 9.000545650647004 3.584143262068646 -2.904333557607514 0.37171389710879854 -0.3097415691710601
Ni 7.208389394994147 2.1983360279582373 5.9364639016097955 1.7639400336928652 -1.0560430853920264 -1.9797586901615196
Ni 9.138557365481686 6.74438893224283 8.846773520443236 -0.9417092131334361 -1.7598352674958724 -0.33358212323408354
Ni 0.25730851131408433 -0.2892322288230986 9.186194586886467 -1.2467513199462978 2.8356545070735617 1.8501596642137426
P 3.4126165189633917 0.020332904268332893 5.077074225248951 -0.41909212928244594 -1.1166825534509541 -0.6999661234895365
P 6.894708010077301 1.8347905064032404 3.6233327389450234 0.5741527898364369 0.7267454484659097 0.00028384978900596275
P 7.043205818947676 2.220264842152178 10.122174142184328 -0.4437824329402744 0.7141097619797702 0.23639082419305096
P 7.311824594495347 5.949837350836545 9.819828776819753 -1.4137524406916169 -0.48934598050268624 -2.540314458039812
P 4.167274951393536 6.147251868550619 8.332336785045856 -1.340220175830421 -0.20365193919913313 0.62654878693965
P 8.736047726088799 8.839482925589998 13.034649967285668 0.22742898701407283 -0.19397456401036917 0.6318128635520667
P 1.7843008834541882 2.4567262626570563 2.8089891149627717 -0.7970399231160983 0.0508466503382221 0.15425950480893433
P 2.0916538186372127 6.305877036660729 0.6026404233953306 0.49522532210159875 -1.6514522135040783 0.4336592284633434
