# total energy = -381165.6118275636 ev
CRYSTAL
PRIMVEC
9.27707804094733 0.00000000000000 0.00000000000000

0.00000000000000 9.27707804094733 0.00000000000000

0.00000000000000 0.00000000000000 13.57794145434622

PRIMCOORD
 96 1
Ni 8.485539276124893 3.5740964001092763 0.21890657425791485 0.25859975618992237 -0.3206114220060285 0.7716734193268516
Ni 2.615291820501961 8.08901840239651 8.667614922471408 0.5346143654221824 0.9322238993508203 0.15163749380505498
Ni 6.6471563641995886 5.051990609790008 0.44144512460643526 0.9368832524997025 0.5569577661143892 -0.640543301446529
Ni 4.422911941325227 5.413963644536488 0.6377685075556372 -0.21954829871441542 0.9054250339904213 0.5406027217951334
Ni 2.9389226913085365 1.2503645912945465 4.488636329094074 0.7834303027524636 0.6972093866800056 1.502136940074297
Ni 7.577573084707919 5.640547000952707 2.819310539765741 0.7551620519353897 0.09569594544242874 -0.20800275996866113
Ni 7.188139898676145 3.2846515622372636 10.455599179710061 -0.035813153043867355 1.0829360531281285 0.12848188162419807
Ni 9.158767559443293 6.905856965125837 5.133290284042936 -0.6441880972879679 1.3399021303693697 -1.5349228762560663
Ni 5.598252801726473 6.896765428551652 2.279111846099569 0.7432208204131135 -0.31465211909880003 1.057235820148547
Ni 6.881012949875156 0.12279604475938762 13.353185993963908 -1.970168475369923 1.2426696936777566 0.40295845694537696
Ni 0.928051065583414 3.488997762359277 8.075304097786695 0.803413687852926 -0.11166429584622706 1.265516002148311
Ni 3.980738566085043 9.282737154587002 2.6961174360620928 -2.0258940510670014 -0.6865557636209015 0.8827738722498086
Ni 2.8590377714714883 4.092722176275846 1.92311139425764 2.356079232804394 0.48850780087210716 1.1327246945154816
Ni 1.4579855999988938 3.2620340457394446 5.856505319778708 1.447947598516087 -0.1001526956622017 -0.9687538759560541
Ni 6.6352074875592315 3.7803072929368113 4.546628272235797 0.8819333786263843 -0.6974461852811601 -0.17017386204634563
Ni 8.849293509873663 1.9992288926632833 4.7742896251315265 -1.5524354312185327 2.261770397517479 0.3652743121310419
Ni 5.8821870551851525 0.21696859263511156 8.668918351949646 -0.46093631901174165 1.9223978928538632 2.3305134685201474
Ni 1.3219001408083635 2.66559213816036 3.120604989542046 1.11705407785776 -1.9624070862569492 0.7085584931442377
Ni 4.434276362042958 2.309667758359154 3.0916976140673924 -0.033928277316328664 1.051837274840795 -0.6980915321746429
Ni 8.06420221838024 0.9333482771995973 2.6778415921323537 0.704362195674703 0.7641562850142001 -0.06657100305201438
Ni 6.673642422280506 6.607097940804354 5.039806095364972 -0.3267136782490244 0.30416176109043747 0.7136395072115709
Ni 1.2865637501848217 0.6074018476900457 6.251406415664385 -1.342315882017185 -0.5619493057917097 -1.7534723013923221
Ni 9.02742268718073 1.02615616688138 0.3556998745102926 0.7033833767012017 0.8542950480838255 -0.9172292257142008
Ni 2.454306683591928 5.0066349747785885 3.9823833920387197 -2.101057166663401 -0.9805097309404017 1.9974687058467728
P 6.973152889931081 1.911152312831332 5.779667920109639 -1.26485060065017 -0.384873317308892 1.2792315519621904
Ni 0.7888141829497706 2.9674311524233024 12.00761167745793 -0.28264574139553256 -0.002100591282770576 -1.5980586283742866
P 8.715916957499115 2.231202231477055 9.206807980867538 0.516192154161253 0.7398403339766548 0.46173876030837896
Ni 0.7256641843639188 6.859146876706428 8.090090832629139 -2.134582809224672 0.9255896818637542 1.2142502619947992
P 1.5185463660767302 5.990404171652365 12.001705889515964 0.20460607558228636 -0.06075773880434698 0.400475285512207
P 8.854553613177298 5.948666597114346 0.9890793963993514 -0.47506041711794955 0.5889965397174888 -0.9029799148840383
P 3.765992761371538 3.7480230610203176 5.282307990156339 0.1298463660718925 -0.378077120322665 -0.2273945342317116
Ni 3.160988110672074 8.45651129863446 6.343519452193711 1.6992233102407703 -0.19742241334965355 0.7408518059603049
Ni 8.382127686132607 3.4714640846804916 6.606999603776102 -0.45988268093624673 -0.5110874859448359 -1.9294658554442385
Ni 9.119451302299012 4.472265997013659 4.358953909233649 0.1024458625717526 0.22046129744698806 1.1614094640446837
Ni 2.2418523171782434 0.834539045671039 12.81450781340438 1.2712783585533847 1.451276405779004 -0.051922914121536386
Ni 8.465955364177848 8.156499868764492 1.212214462872076 0.337467831441735 -0.5607475721741245 -0.24728561672868382
Ni 3.7739803256474294 3.847501169882548 7.455321604435168 -1.1825436749201377 -1.3420983666897401 0.3401482064873755
Ni 7.947830550230671 0.9763568114423746 7.679140391566584 -0.24070539240800481 0.2684159709493958 -1.4231755337777297
Ni 6.470428025691197 1.1013283310248707 10.826195258584812 -0.4661880543289843 -0.7635893567671366 1.3533063195904176
Ni 5.662468736590258 4.334798253180727 2.571974359557224 -0.9395700553032463 -0.7379518587046904 -2.1628693148741913
Ni 4.417930150365699 6.091079023594259 6.548328578514758 -0.8972712945350353 1.8390895224425101 -0.00871295439296564
Ni 7.939880094267328 6.811035949488343 9.827755290345307 1.3034099489806068 -2.0568593891002642 -0.18503998052490067
Ni 1.571796794582671 3.18841115364482 0.47100004013504604 -0.518933464351816 -2.0370906911137694 -0.5442462320849918
Ni 2.923077441850671 1.3214362869015173 7.582316454759328 1.3191767248965605 1.209055605167737 1.3485130119668323
Ni 5.142776096437941 6.814115939429801 12.372017162091911 0.7062480998435062 -0.9904401026802362 0.10595876082101752
Ni 5.764739245971701 0.7523116636044178 4.276848056890621 0.7054050351169207 -0.5513535325537343 0.01648334236700387
Ni 7.889217970561589 7.850578940121303 3.3781515219480607 -0.5788399108994611 1.0184057346552267 0.2723299612918213
Ni 0.6469583811580737 4.446587044730656 2.1770463601449506 -2.2592525161916313 2.4047715558037748 -1.2525159903442171
Ni 5.747298339074285 8.638564679993447 6.809867037643089 -0.35300449362475333 -2.2375611472611268 -3.71967562146691
Ni 1.6618401149796502 9.208761733523174 1.540756618844339 -0.6456106886671075 -1.2916872612270398 0.869014099461555
Ni 0.9630627584721632 0.6954737889829288 8.412091720807057 -0.95755235081328 -0.3423233597618233 2.1131963731290964
Ni 3.952090948798223 2.2484761509680067 11.571638173536654 -0.6226062573521342 -0.4404037462760286 2.623783779509062
Ni 4.6945169579399355 5.565003753683739 4.158502226513516 0.20089314550707335 0.3355690717571253 1.174466297228642
Ni 8.099139694643894 7.87627644656058 7.190823757381157 0.04566484902696651 -1.2251846495191159 1.8732936791280448
Ni 4.591949582058109 2.30352633263251 9.489039890488092 0.7518018772139052 0.37962903819081717 -1.9875771577646735
Ni 2.2559905842589147 8.131433203638524 4.330236713860802 -0.6925340926915234 -0.014705681641290803 -1.2880869454702912
P 7.747955901770656 3.4150316183735865 2.5760618401843525 0.5773203889311411 -0.8049010710317299 -0.059229475085278635
Ni 6.486171227289557 6.190891107269419 7.84620387007193 0.3709633920960192 2.403102652741784 -0.4302836271228912
P 6.564757356187435 5.607900962988873 11.000780592043576 0.3560144840956707 0.22779382655265928 0.5943403205279055
Ni 5.980162277389201 7.8625556479960705 10.380920556123456 -1.0081483185932767 0.2688435454051176 0.2797432230367569
P 5.885118611876421 2.736097932000978 12.350237365749857 0.9173534099968912 0.3842698793969382 0.523190439855957
P 8.409179645979876 9.359922444686205 11.895552922934218 0.533745589663984 -0.6324546109011236 0.0013539429247331522
P 4.75993891296152 9.343687557946588 12.322076795065225 -0.18106274104470754 -0.7031409216730923 -0.5401190972904957
Ni 3.164309304645092 7.782596511533928 12.000103738121718 1.0552329307859052 0.31192443575499185 -0.349432717113095
Ni 6.460186131428033 2.3551161641519416 1.0237125845001143 1.655752126431013 -0.5634284614403975 0.337548049860367
Ni 4.804441056784341 1.5049647236842745 6.282920650095513 0.06481005449684968 1.1709557129722221 0.16166711012691515
Ni 4.611904577130631 4.567495204089179 11.156695805751779 1.0963960352877762 -1.7321311167123847 2.373776392973841
Ni 7.908208149507872 9.093122954546423 5.462473486114461 -0.19683877293204163 1.3217845948330527 -2.0263223968536717
Ni 5.850478002113149 4.40556380520918 6.559884107042109 0.5828660013397188 -0.3183236544131163 -0.7121922332420831
Ni 2.388309549725854 2.994909857864869 10.008070147261432 -0.7499121163903602 0.06243024141076345 -0.4824687937668787
Ni 6.34974251620796 2.8099249198146157 7.999227418524854 0.12450284237179204 -1.3548595230101506 0.6740704866696973
Ni 1.2162620520632157 8.17260487641019 12.667458703271631 -3.90552189994319 -0.16651363958593904 3.648329051403123
Ni 0.9279954031145924 7.646316233702521 10.613401351111316 -0.1986693983828772 -1.0804492821505327 -3.0726816792990306
Ni 8.634835294582404 5.1190638847199645 12.011617519797454 -0.1226740166931694 0.4930375704216605 -0.29341172166278506
Ni 8.016907674038205 4.592775242012295 8.4307609128498 0.3145179075137809 0.8327571740120496 2.457234915809813
Ni 3.412703071761219 6.21682054066212 10.274550505913304 -0.3043682206742887 0.7728700107381141 -0.4172810442156362
Ni 8.231913236939542 9.004907218542417 9.67778668372287 -0.1792917651872138 0.8513071691000952 0.012577065334062212
Ni 6.027391882184279 9.248551121652438 2.0662641315728787 1.8375005806888356 -0.3014027102880616 -1.406199310934707
Ni 1.040906721119088 5.3047353265523505 10.05523945104862 -0.22669442284089344 -0.9889738025473549 -0.6097628257305627
Ni 3.0118126942303443 4.481171992025106 12.71862086148895 -1.588974149574515 -0.08129365397416968 -0.81352275126247
Ni 1.815255156129954 6.372684730440571 6.071050739604455 1.2374727228578493 -0.5414727831049126 -0.9734021733613429
Ni 0.9497223201112673 0.6190455084596983 10.796242356404129 0.17923288692482037 1.8226807420671833 0.30091857156279145
Ni 7.39796885197708 7.305374335092447 12.760739723938398 1.3908071447493533 -1.2830671236581968 -0.8918562941670511
Ni 4.4003500872962285 2.9965147923825572 0.6205882865538688 -0.4884373526454879 -0.2139795463773863 -1.1410183019828415
Ni 3.2395278541792676 6.393112856498076 2.4705610521956314 1.1254407592595586 2.4026215993403075 0.9031568067815349
Ni 2.590995152861358 5.8208099062312675 8.09002310995874 1.8140685749181404 -1.943133582739318 1.1836793311864775
Ni 0.8262184342900324 6.819570861374311 2.9282596176979565 -0.24580774663157665 -0.29490938925423404 -0.7786601350573299
Ni 3.470721918429538 0.28383498872261487 10.321095462341878 0.204171559148029 0.06433388619137953 -0.0960211899923314
P 0.9428108968992592 0.7795380325206608 4.104707233520938 0.9892393975039157 -3.3676630594417807 -1.8195139143034278
Ni 2.0513289634802456 6.205409734553704 0.6881012949875156 -1.8344679645100985 0.1401955705167005 -2.0107847062293884
P 2.877118796760352 1.5395125626661774 1.1463750393343302 0.8402740512143851 0.8456692540880274 1.3698809361196473
Ni 4.27406122261829 7.91912727047503 0.7810455577179108 -0.608585774703326 0.6545576134477501 -1.6019831602396732
P 4.849722475170665 8.014514187878877 4.650295909584662 -0.4677356013217622 -0.6756051781466687 0.36206326139291195
P 4.735948388899435 7.469606449350403 8.544734456300974 -0.47475625561396945 -0.23780390249049368 -0.2999515796638318
P 8.85988793310603 5.680364220316383 6.709540076131331 -0.42385998298473454 -1.381303576134292 0.783071119640832
Ni 5.245733109601518 4.842532739614549 9.154750584610005 0.30301324930829104 -0.383307772593985 -1.9533812286092551
