# total energy = -340888.8743952689 ev
CRYSTAL
PRIMVEC
9.09140534869084 0.00000000000000 0.00000000000000

0.00000000000000 9.09140534869084 0.00000000000000

0.00000000000000 0.00000000000000 13.30619070114773

PRIMCOORD
 96 1
Ni 6.748350069529017 2.1473626341782257 11.451227610385066 -0.5201588521184848 0.6766688435244927 0.24334437269274867
Ni 4.683382840684294 0.4642498791496964 5.743976170846548 0.9467791714571758 0.06599970392957664 1.3139748689806467
Ni 2.8908395686770847 2.215320888053094 4.874776012108923 0.3939040600525926 -1.4804558555564373 -0.6549916156613752
Ni 3.738894937199035 4.850637422160675 4.979895384741454 -1.7611393310192767 -0.06506073705507505 -0.8408309521591196
Ni 3.8901031884962665 3.138016693272391 2.8177719450794503 -0.37296833834119 -0.13358757828187962 -0.4538195054613023
Ni 5.329618105156986 5.0591851660584135 2.416310946807532 -0.4807525824067205 -0.31662878320919663 0.36212085410372474
Ni 5.7051749625906885 2.9993545811520583 0.6684655684693254 -2.232257475660026 0.15513727942819733 -0.7335670993734333
Ni 5.888548605487824 8.326181624912445 12.529881016978416 -0.6609779151517972 0.18081488669995957 -0.1744416361837641
Ni 2.1313253954042772 5.468525685217736 11.516507536287822 0.7765700852975207 0.21175399948097728 -0.7357003436663524
Ni 0.7219039390982335 0.592421418808998 0.7349664700905291 -1.3926670807762274 -0.851992625202894 -2.3093908276089197
Ni 7.874547888759691 0.06013600884022783 7.141246054961402 0.5798647526195497 -0.6737933217489105 -0.305550413907848
Ni 8.705775066255237 2.5839682775343022 1.469229265418528 0.43135834824430874 1.3932921159547358 -0.4296552495102729
Ni 0.6810271630350653 0.7594623522631638 5.086171184115507 0.42581170739446667 -1.0490931364367544 -0.6783302903873156
Ni 1.9885266939176478 7.064040023716431 0.3434896530099658 -0.9722886285821899 -1.1168491609358056 0.08563881831674283
Ni 7.926459812455411 4.241158708914214 4.024470520799812 -0.6520795842209028 -0.813653106192747 -1.5157380757974992
Ni 7.484626611108959 4.137543963842392 12.88382578596913 1.4760309870158645 0.4511005638682425 -1.995733468323221
Ni 8.334873008284267 7.497718234597897 9.246259105433955 -0.4048821563306511 0.04116413294313556 -0.26085641343458305
Ni 7.0616580755538605 0.9646526402203027 0.43558740597360324 0.5383316663727697 -0.5373281648089198 0.03966003759378331
Ni 2.103742072025501 6.815035526675794 9.504412283528007 0.6400684186926396 -0.2503195184590012 -1.9548411009842332
Ni -0.028094260351052527 5.12307047040339 1.3144544558610807 0.22552971310883096 -0.12552279899587415 1.5431267522230974
Ni 6.416613785162453 2.047075343409842 6.6996001365620845 -0.8380505612005051 0.6523395227505088 1.7306108234131161
Ni 3.562558041927203 4.663781771071689 0.637414783147021 -0.073294437818777 -0.2250833696000317 -0.5318051781081615
Ni 6.01969212550722 5.899667394048221 4.591008709002556 -0.25098363440556126 0.13607692036263663 1.8510065855950704
Ni 5.101542022888248 2.9676346684069856 9.674292462826337 0.2760452053598794 0.09827116236877269 -0.18295404453014943
P 0.24658618325726417 5.878975355811539 12.63881877979522 -0.5513334779490763 -0.3795585899641979 -1.5099901175701285
P 3.8361456986304017 6.385466630945021 12.485118574332487 1.155569717434455 0.6410068713465089 0.773199883273707
P 2.6848192354251266 8.964425544213766 1.208155927974026 0.6521703441624962 0.5922708395933866 1.2180655219758314
P 6.592932497623884 7.907595146664059 5.6771525243407215 -0.678259070829748 -0.08911880644554329 0.5946609370921178
P 5.017119234195 1.398749055740999 12.578075465087588 -0.5815663086916888 -0.596187143928657 -0.16000283505061477
P 4.188555838423246 6.63700763003664 8.218395743134563 -1.4094152467688437 0.4176373991137904 0.5722296046717951
P 4.992190601134815 1.501881956337187 3.921267616383579 -0.1357989841109016 0.07997210694926872 -1.2634714609144562
P 0.35698402574929244 5.9397423081726926 3.6468144579052786 -0.5858487381171265 1.2892249157294764 -2.037276838982646
Ni 1.0220466812520141 8.216166530579363 2.4935133414904223 0.7168328173378881 -1.8294725681780362 0.9802603339337569
Ni 2.0481663120339197 7.011755352407485 4.67370594898872 0.49236317006245534 0.011883381701147278 -0.7059598791791262
Ni 5.987808567468535 5.621779502685115 9.118240301382022 1.9594577738206387 0.7203696268465529 1.6090889180465193
Ni -0.19174591794641568 2.8207357431748625 10.107701568113864 -0.7363086666743125 0.06150875803775858 0.9814679810886129
Ni 2.553130231093693 5.4765806702255135 6.9412278674229135 -1.0252901204798859 1.0209621825284934 1.2030857607375476
Ni 0.9355965091990213 9.07323148165516 8.691284275505918 -0.42873890834359063 -0.23234287937592243 1.2317818431206593
Ni 1.618933798295572 1.3943033585978806 11.901163072046337 -0.7501396590201339 -0.4333573809522085 -0.8851575419906368
Ni 4.229730812576996 7.0253924602084625 1.4889230673641787 -0.2502390429300529 1.5679972902125319 -0.2617946089781363
Ni 5.8920942535160785 7.990745138629215 8.258779765035856 -0.15216971215944117 0.8119566923269306 -0.1724945397597223
Ni 7.1477627742092285 0.88448735658252 4.893072465075234 0.1591047487163776 -0.3768105949054155 -0.9530086973066553
Ni 0.9561067193316904 7.686010327708586 6.725760655026958 0.1875426923420964 0.3941202898284567 0.2849815886175608
Ni 4.963052647466728 4.855664969236634 7.332017374270308 1.1183005486703514 -0.5882128674739289 -2.3894809481932913
Ni 0.8561085352486871 7.617752057462096 11.338590554792116 -1.9746337102301283 -0.39319006470470347 1.467190505906099
Ni 4.733303746641069 0.5443206121733923 10.329050010534118 -0.2420104843726735 0.1439439818155392 0.6339175685998952
Ni 8.563240015519426 7.723221449194852 4.776389734167996 0.0626176748312212 -0.08267073682735439 0.23608666268907086
Ni 7.387266752815186 6.225094243205533 7.140461466692586 0.24025313536193463 -0.09471275559355301 -0.5970898582485845
Ni 2.1146517582662825 5.670354880672194 2.478331603945855 1.0661647472070606 0.3374146096062964 -0.20713681242394005
Ni 3.7450498185198757 4.800289220159468 9.448366497887552 -2.007132711299098 0.11184607283972996 0.31165961212937937
Ni 1.2558230745815606 3.731094511536876 3.7537957503229027 -0.7389005957712048 -0.0746694637894327 0.5988520923553299
Ni 1.6520810616571464 1.5247922974428283 2.5544821230470296 0.8904347312291762 1.0635427362031813 1.2155913494037258
Ni 1.171873038958747 3.74092232055878 8.025376119319535 -0.5982759081368857 0.35957546197405166 1.1507820662378245
Ni 5.356974143405745 3.3967035368517218 4.959802470107494 0.9207128133874272 -1.0019254776120163 -0.6936617785380634
Ni 4.166909202640496 6.9572069212035785 5.926071562172473 0.966834033225522 1.711918903430568 0.6785452346115991
Ni 8.36546558678446 7.37225684282891 0.5071058541250464 0.4502009348721085 1.0623929388694542 -0.179772047257742
P 0.456439452941817 6.04106601913395 7.988345007656243 -0.014651945585219926 -0.4896375436011761 0.08364878446990755
P 8.794870837221618 1.6607997192445711 8.314186424890705 0.30275691032311086 1.0311206111187339 -1.5033340457061917
P 1.7523865352359318 3.6540539438665576 10.246259129074389 1.37237387774483 0.3971966147609353 0.2930070300251986
P 3.9906632214206703 6.4840629203460844 3.5598588037231296 -0.1967544407483515 0.38518776322551723 0.7112262697843881
P 6.819772148785333 4.19433797213086 10.477919952413744 1.4144641220466607 -0.08972661523287127 0.017092693816228625
P 6.727512568809124 8.305707780400578 10.475977119122366 -0.602918806225536 1.0777218559170407 -0.7786516504168977
P 2.7239941004347323 8.85757425889051 5.718907530146273 -2.273183781560743 0.02061047716149999 -0.04940606123695362
P 7.062930872281951 4.246731740302214 1.6304607909494777 0.9554371042424901 0.4971852740414469 1.551526032030386
Ni 3.271478521617952 2.1643090134722396 0.49111952722022123 -0.9547526765809558 -0.6600065523774633 0.7523217542731172
Ni 1.6749459457367846 1.540438605793149 7.043006148644205 0.1711035729494666 -0.11761511411302324 -0.3472071702166859
Ni 6.900449278535913 1.2857792547177065 9.234882120965858 -0.9169497468005693 -0.6546198341442533 -0.9473124182528266
Ni 2.7274306516005793 1.839454922842569 9.245420877874453 -0.0103916276469692 -0.10308015372164182 0.5829919853946217
Ni 6.686583062595792 1.9903267921473766 2.6277733952126 0.04604742917736586 1.0691076318854686 1.34644841612832
Ni 4.638989509089512 7.190083265418259 10.508217969385434 -0.4477072219159774 -0.3262421379292446 0.20020743229395843
Ni 7.248750103178063 6.456688699286923 11.350180278141908 0.42746055585179926 -1.2389091981940599 0.6352470860445962
Ni 7.519146676655833 3.702683870284841 8.179301791631243 -0.3007293383701208 0.6636881149941086 0.3539293194318679
Ni 3.243986112291182 8.61717023116969 12.427289964132186 1.1966654590335004 0.5952954853523231 -0.8645046416269757
Ni -0.057755878958697326 5.264669106403534 10.009675309818881 0.18534542758046144 -0.26705277205328204 0.30008142037347674
Ni 8.794252621667974 2.7704602724152614 6.212128081108365 -0.21980926568528594 0.20175523639705253 -0.7361893674876289
Ni 3.3246086936105574 2.9046585045820743 11.62886548574111 1.0324673549546155 1.0574433081736627 -1.2034333738849532
Ni 1.2113024633139713 3.83290915837897 12.79878569086276 -0.8951200525199874 -1.7044418783272324 0.6636955711932763
Ni 3.093232431253983 8.783379301047995 7.893870761373156 2.0743202648891885 -0.6405152764220711 0.07733801176053132
Ni 5.437733095803131 8.317008397064987 3.6706321212499446 1.8034692021357392 -0.9142274627733996 -0.18111133489445583
Ni 3.2706966607706955 9.044693560730314 3.4604879265989714 -0.5557647742475524 -0.015784259417450236 0.19339272336497015
Ni 3.6730004323047143 3.021637615298854 6.961227140583306 0.4234627475463159 -0.22095674902616785 0.8962953037750112
Ni 5.034492909533445 4.7462862732676 11.656675185109384 0.13832072209149082 -0.5616405163020393 -0.22862686397691592
Ni 7.992699790747355 -0.12278760949947586 2.769257479507215 -0.13654640379988742 0.8218117307441395 -0.29593834473938063
Ni 4.905149487743779 0.7219712154967183 1.5694520072099873 -0.5965059607206565 -1.3147428574949227 0.17331343611659183
Ni 5.948951901640951 6.054403110563306 0.16450170398162406 0.6280611098191183 -0.047334266309589444 0.6335622421430057
Ni 8.579586362070197 0.5544520741289981 10.861990001677336 0.0034329369409489266 -1.0245774106835772 -0.07921723106111518
Ni 0.29560431267761555 5.453852157223885 5.608519688199966 -0.13535161216083785 -1.2756052680635128 2.618399118158381
Ni 7.393094343548803 6.560030702202726 2.96294259418293 0.8617749014006384 -0.5751115542052805 -1.8083823231666403
P 8.837245876861854 1.878484325368965 3.542240569584788 -1.4157589295986843 0.24985440589712457 0.9740331220771226
P 1.7997163907105223 3.5611125085002997 1.6797334797154473 1.2349229598528022 0.2719921183364283 -1.4325348635054427
P 4.705729514667494 1.4283961281003228 8.145690866604435 0.36244018511635645 -0.7188143665442911 -0.15456443764386282
P 8.601496648603765 1.9836173351092958 12.576731755398932 1.3731128127933836 -0.12441671041588896 -0.1771672626450433
P 6.60126022478768 8.025456123685302 1.4844919164693813 -2.291846905187885 -0.021108499843841066 -0.5401658913680311
P 1.8194992884271395 3.7249941786472394 5.908068761594143 -0.0799242844304688 -0.41947496654316146 0.2648506221956407
P 7.036829447950882 4.235403849422202 5.9841001832871905 0.07168029925412171 0.4119724875185292 1.457270675689226
P 2.251013744870851 8.794925385652823 10.412520019962338 1.675257286343476 2.12313342973715 -0.5885589379594379
