# total energy = -381171.26959754416 ev
CRYSTAL
PRIMVEC
9.19408936495200 0.00000000000000 0.00000000000000
0.00000000000000 9.19408936495200 0.00000000000000
0.00000000000000 0.00000000000000 13.45647913839755
PRIMCOORD
 96 1
Ni 7.5089874941826 8.81965090746575 10.297961185541348 0.08210920789692955 -0.6222794701403347 0.07811911290092999
Ni 8.321027857466907 1.3160695378456726 12.00195509828775 2.168434210556479 2.4876351253682256 -1.479247179960317
Ni 7.506348790527084 4.279876194265694 10.469194664605636 1.4050549129176189 0.430367187975633 1.8809293412964314
Ni 2.5110437243087045 4.288996730942603 4.782338695994655 1.9829951948209459 1.923258698192262 1.4268637812625942
Ni 6.878732666357831 5.470676264144737 4.55091427190746 1.0463402562819657 -2.2782092597997927 -0.8014637632154068
Ni 4.08961370838669 0.09011310894932345 11.01598554892941 -0.25861801102236753 0.4337813558635045 -1.6042251621963146
Ni 7.051213783352619 2.5647647886264306 9.334800333146797 0.130311221523453 -0.9740855725816128 -1.8863340572517706
Ni 2.9119795745170562 8.278946510319512 8.13725364047187 0.08831996469333177 0.5901787329510482 0.23353278591896554
Ni 1.2821893184359825 7.6976594025967815 2.195491543466408 1.7902228786487944 -0.6813338531003298 -1.6350526891001325
Ni 8.094384359863575 2.868712189838087 4.754981683008621 0.8978677904684537 0.6539410629096738 -1.2891691227908766
Ni 8.74340432413751 6.5812119336312165 0.6452917610254603 0.10498996914984499 -0.6879333606947186 0.5665261265291146
Ni 7.4979361987333615 0.8565452723954456 0.5489046054750045 0.3450356164866638 0.6395981639244405 1.1812028446215268
Ni 8.567208795028337 4.450086371180646 2.3294108107330747 -1.197354257570409 -0.32506251579884665 -0.19417768116011072
Ni 5.388536269516196 1.876228628145481 1.2502628430221019 -0.8197275945216012 -0.2655898143545103 2.311297814823645
Ni 0.43448784062674606 7.971146785652588 7.937774999386278 0.207674687205281 -0.09531722194677134 0.42093792424193305
Ni 3.678821794350064 4.930137360607555 7.23530703524956 -0.28241639899354587 0.17192349774760068 -0.05007094851446216
Ni 4.545852006288198 3.6372093457616623 13.406502116579903 0.44392075829035155 1.2986590645591827 -0.8098483877346762
Ni 7.136580903357768 0.8770729157810673 3.7611796888971964 0.5458608848702793 -0.9534622399043061 -1.4940569912796398
Ni 8.281382944008405 8.483983897851534 2.030286628816486 0.09410520391654115 -0.3544828779424927 1.2324027645341098
Ni 1.6654817111009974 7.779229363683015 10.115504481556192 -0.12642988419117582 0.14576972217036832 0.17380297415850068
Ni 3.723983161443795 8.92047329173893 1.2214108711009217 -1.1799558595883035 -0.7454178280644324 -1.7786367164730916
Ni 4.412179140617239 9.175140373809217 5.827745275045758 -0.08068944473126749 -1.464722761091897 0.5205128930237939
Ni 2.366641356317227 6.849633373432006 4.424086405788878 0.18859093110095262 -0.037000745594065305 0.0022929097992347605
Ni 0.5603494079502236 8.67649893563159 4.053051573101339 -2.983205746624385 0.8340157290094992 1.2248938577515744
P 5.476303046852669 8.193230014917464 9.712133117067888 -0.58082505965029 -0.21552760759079656 -0.45865935005210684
Ni 8.308404372731628 6.856363446866983 5.914795832818591 -0.5420862483191955 1.403853693520666 0.09459139952434031
P 5.639387804488785 3.5953118804021083 11.248607043455449 0.2541129240631623 1.198251829684014 1.1431500036138635
Ni 5.895103012749766 8.703290512120013 1.8452335139870149 1.2932679754505982 0.3660757249864147 -0.41417360893490607
P 2.5304800292834906 9.021442781442381 3.7501054082244765 2.7328445762941707 0.12258325675157598 -0.2844516842560198
P 0.9169384873849796 1.7303276235830995 5.506203144964542 0.4114215001110656 1.6323733424957565 0.07340139571028649
P 4.477457175300767 2.9883272928286084 7.3508031861924445 1.5823476453969327 -0.9026484996865486 0.044021914106904834
Ni 6.269311645095439 1.5475399323798285 11.199908710172597 -1.2171561227876844 0.03319628424631057 -0.8960389647898309
Ni 2.9113911527959657 3.5082438538594305 9.02508547965951 -0.07081769414351029 0.05974652393101324 0.6129849322122862
Ni 1.330044553721583 6.0796099986693495 6.520444519203426 1.0377273178019741 0.9479567367050447 0.22787970139824626
Ni 4.693150512438172 0.6414063388483816 3.447173034481702 -0.5487482337204034 0.8159457588816657 0.9165820790485053
Ni 4.884874858530511 1.289507813592051 8.953645566265433 0.020889956075131763 0.09145208256441023 -0.23659239868089577
Ni 8.83025169253478 4.597136636917033 12.557438074722763 -0.04615387284824309 -1.1342179912315562 0.26025708928768726
Ni 6.851260727254398 2.9641008672805667 13.252344819743461 0.6480419238164193 -0.11361242071153337 -0.8005181114726858
Ni 4.780724213897412 6.3124503125229205 0.9178946726817525 -0.6250248940959559 -0.17436424597860936 -0.09328785022156838
Ni 0.11899726018337589 1.7196073153519738 2.360576015545294 -1.8571682343210918 -0.8462330970112975 -0.4641257724833168
Ni 0.5276395961201408 3.276865400219195 9.423047961358474 -0.8170659885290379 -0.05154521906714348 0.12450387081305654
Ni 5.06756141475047 6.318224200661126 5.523615830864139 -1.3045841717943663 -0.9172914464107041 -0.5514332367517341
Ni 8.399812009467352 0.5672449749942583 5.983369948549168 0.407795216212388 -0.9878630859816794 -0.8612329128542393
Ni 1.085987450809716 3.6942126999923492 6.996009712415956 0.05478455194004758 -0.591602095661136 -0.2167594231153686
Ni 1.445439569681155 2.752131136346941 11.665166409767703 -0.4986258631427155 0.3158098868523271 0.30983464310549863
Ni 3.1874620749709375 2.030174460925903 5.328994427204366 -0.5120817315373052 -0.5913197885340268 -0.4581304741318304
Ni 2.9630711292686573 3.769751338437401 1.7492481401429916 -0.27027230743184416 0.5332460243197462 -1.7101944645402933
Ni 5.226095098137523 7.240455725309107 11.997473899118066 1.8001763903170804 0.3018657659674091 0.2606137012961576
Ni 2.2999290436885396 1.2720942082835158 9.510366986541554 -0.5334661107503522 -1.1122265745621298 2.7561477697964856
Ni 6.477226782607173 5.268102892569782 7.595442274962829 1.4355857345166245 -0.814064739808869 -1.2025676834505483
Ni 7.780222325337356 3.073767965548894 6.9595965213787565 0.3222895810393998 0.5890181369840437 1.6902401329055536
Ni 1.6213041115722153 5.010355790553159 10.83935513939199 -0.12770386580759296 -1.0960131980270609 0.2536786647392212
Ni 3.7589666715805308 5.2460094957606955 11.837933462942583 0.9841460421414083 0.14698482552439204 -0.3425568159288681
Ni 1.8940743556554427 4.691054260056785 13.246760329846733 0.37458093424394845 -0.7500962073767082 1.0380839298104445
Ni 3.8709230981074776 6.245508147659432 9.534924399307709 -0.814542707886552 0.8162771740791555 1.3397458072971635
Ni 8.707041700591969 6.098862421856295 9.697882278510216 1.1678914722246014 0.512045478982731 -0.3858238541476194
P 0.47755571356590815 2.89954916565901 0.46505818785529973 -0.11347563802335296 -0.01566367467918593 -0.5108992811934299
Ni 6.269026628324286 7.673717993819893 4.220207473520253 1.4648124925922257 2.5284161639403293 0.5572963804007306
P 8.723830107821845 5.435536454488337 7.523140875392717 -0.33011884727583146 -1.0051342143573012 1.0399454084992155
Ni 3.11153728477142 7.755306343084911 12.295346765468397 0.30568256861033805 0.7049044413314183 0.7148795502662592
P 3.2921183945206 6.889296675069294 6.487422108334013 -1.1554365342907005 1.8003111161227316 -0.42388826511950867
P 8.577993461885207 6.675984607084429 3.7022676417087212 0.20806292378263522 -0.09546403193728074 -1.4912837994098767
P 0.28195146175012475 0.5285001628872363 10.185329912853026 0.6271116014216555 0.2235062549208989 -0.6678016229418499
Ni 6.297960427641056 1.5244627680057925 5.812163132344118 -1.2445072611071277 -0.8025708802366565 0.9888568173535163
Ni 3.1862944256181476 1.9186777388685585 13.271358196606215 -1.3643270961809537 -1.6495549964813656 0.7587191731590288
Ni 6.359919396054056 6.141237979864235 10.194830165421829 -1.417815555017397 1.5611005630926986 -1.4834195661704517
Ni 1.6422574412966888 0.4145532160069114 11.89790926627372 1.0234949762526762 0.0029781087917174517 -0.6213430743689944
Ni 7.281470558087025 7.526989521212227 8.157465926591344 0.7703297608147637 -1.0533742803106116 1.3193333050790828
Ni 3.869994495078881 2.527280486175058 11.12986721777505 -0.7816091903833249 -0.18468388273706257 -0.6487518053992505
Ni 1.2714138456685042 6.684820126990185 12.219761237167447 -2.5237573250120793 -0.14990199917118702 0.798188949118877
Ni 6.44396256718675 5.1952673164059915 -0.15942734887595994 0.6291052348129166 0.5956073601657871 -0.8178910555334946
Ni 7.728055062126886 6.594938709093541 11.997473899118066 -0.16661391260922917 0.33131852401088746 -0.9718343146535907
Ni 5.306414663066438 0.5298682433887728 12.880259102638412 -0.19236659609330095 -1.2829784205991324 1.2410894936748302
Ni 1.452776453016008 5.3257498330579125 2.488937455774469 0.4600896547407302 1.388023668466945 0.024369944203932223
Ni 0.4501701989027593 1.2527406501132583 7.9198649132505725 0.5111430217731197 0.49791495311861994 0.08282114636228961
Ni 8.887080359067017 8.475525335610852 12.482956756557797 -0.05396925512760383 -1.0200568971054045 0.45629882023973034
Ni 4.320780697970907 7.545589164052337 2.9662118302049802 -1.5888147411785152 -1.6624182255972788 1.083814856188656
Ni 0.9457959757597951 0.4406276535227545 0.6695632376115231 0.1395355683351984 0.24572264311693812 -0.5489045567926095
Ni 3.899709791993974 2.9306895464298703 3.4542782267638756 2.7688539045092444 0.5728646671526328 0.16891736393142523
Ni 2.85978472903841 1.6809921399053793 7.4758280913812465 -0.4489156404017817 -1.1691394856990898 -0.5393295115096648
Ni 1.8190230039481694 9.020008503497221 6.105419646410702 0.32847771212798266 -0.3017732062536029 -0.31680978887175115
Ni 7.414757272003519 0.663861063370576 8.026237769289729 -1.2534418445925959 0.19962764853108847 0.5655781607935485
Ni 5.507608921232586 3.641438626882004 5.435005036121476 -0.5257286328967784 0.875636232763763 0.5380922966684539
Ni 5.142070315183613 4.349686915019501 9.203599758113358 0.40560592187055305 -1.7597565917391371 0.4430509540908886
Ni 1.2136197997501017 3.1963527594130463 3.4483039074769244 -0.009709513978280052 -0.6005544197584174 0.7480346968619891
Ni 0.31593373555206683 5.02622478884383 4.871366902395717 -1.3363020717229372 -0.8336125800338094 -1.9305107517689848
Ni 2.6287740389738565 1.406419854301311 2.1413291628578635 -0.8269871042974919 0.6424801134579258 1.2458979708070672
Ni 6.687523189271447 6.444440659835137 2.286861484435624 1.0143765588911755 -0.5053166448993298 -0.7722850847689214
P 6.258784412741547 2.814844020090088 3.5158013953396923 -0.21448759636205642 -0.5642000494990993 0.18686417821783302
Ni 5.029847260064296 7.051057483832954 7.7304243789632165 0.17567987946623936 1.528938376537857 0.7883290256056616
P 4.341669669069637 5.339449026252061 3.2394721192528038 -0.03196549716300301 -0.37943569123308846 0.2934382040253462
Ni 5.9193386323872 4.124376560378016 1.8852664180178627 -0.28276581191316463 0.6974294731106118 0.797397049345201
P 6.875698616858457 8.072235798518136 0.08395031082983488 0.06817845674845033 -1.635147048586152 -1.0219345737440917
P 2.727693246742882 6.647538094505437 0.6536712540973713 -1.8141246249670564 0.004428982305631083 0.5121341820417954
P 6.575005923291585 8.266690789159915 6.373445740367634 -1.0195041099257278 1.4347647812772257 -1.3102290287849694
Ni 1.7699817311309949 5.506799841366086 8.754287367750877 -0.9588134769138905 1.122476534424912 -1.2764341917227113
