# total energy = -340887.10794991755 ev
CRYSTAL
PRIMVEC
9.10730596495807 0.00000000000000 0.00000000000000
0.00000000000000 9.10730596495807 0.00000000000000
0.00000000000000 0.00000000000000 13.32946286031301
PRIMCOORD
 96 1
Ni 6.674371107325614 2.4417324675984715 11.684353825596595 -0.46707739891247296 0.04964414538968869 1.3435602959472475
Ni 4.532961159659584 0.8225336197754256 5.743731944849373 -1.5223401544950492 -1.5226034354587648 4.1212125154744115
Ni 2.1738228494260845 1.926905571393322 5.09316065394526 1.3272129649374755 0.2697678569915999 -0.45445996725877863
Ni 3.642567182032369 4.572842052271913 5.116607413029626 -1.0895005937195237 0.5206615027865162 0.2912219131003178
Ni 4.130973783771118 3.0715846375404823 2.6080692136046006 -0.4476943664001709 -1.51356035141989 0.715428995011826
Ni 5.370632943330924 4.857208572237056 2.923884171633145 2.400432304998472 0.8183787938031907 0.31449579602659383
Ni 5.591694579864167 3.457442974649219 0.6363921263213014 0.1705117050017386 -0.12021887028445748 -0.08998295421805148
Ni 5.789742054344117 8.291682921362572 12.65413892109763 -0.505579154532097 0.21679233323583305 0.14228459183524528
Ni 2.482287300848689 5.385313920469787 11.682660777426548 0.48303212246951643 1.040726509639614 -0.9473594694406782
Ni 0.7765817970385525 7.73972553893215 11.540435623836757 1.2428866947845691 -1.1904374758459175 0.12140877682750058
Ni 0.6620036920222357 0.18528996035084658 4.6632857966070995 -1.8772202678759606 0.2195369858605058 -0.02218836317158114
Ni 9.003500844561254 2.911478199512452 1.328222245223048 -0.12255163218269216 -1.6474153244305432 0.6577612079867123
Ni 1.3133645863493888 1.4430253006955247 2.77834031576705 0.9774935698218973 0.8694974668558767 -0.6134958104104338
Ni 2.0553003702169383 6.894576657102618 0.4985594263754755 -0.4674162703091305 -0.08387169911399105 -0.03501868216703002
Ni 7.822383447438545 4.268484995818059 3.9025871410885054 -0.23827467147932513 -0.36346708371897407 0.041377534505522284
Ni 7.942845782808099 4.262856680761101 13.106460555330425 -1.2679423522016164 0.426884114523039 -2.03680169911844
Ni 8.056331921844919 0.10820481233531463 7.253186845637062 0.021597009444485386 -0.06982010611693137 0.03630963306431166
Ni 6.680044958912158 1.2763433877951258 0.6311035137750626 1.8059891403441153 -1.0303135418364064 -0.6517497116853098
Ni 1.972970324723571 6.611758379143434 9.574793037454333 0.516512256504833 0.9079012634450557 -0.48130742646892594
Ni 0.6434666815579438 5.152130459760476 1.7438405258780985 -0.08615355316963227 0.7169611153856361 0.14203339505638765
Ni 6.614982365438197 2.177930244394835 7.472443414137473 0.2822683034514558 -0.04543036441865724 -0.04503672852466437
Ni 3.3622169839768024 4.471750956588686 0.4731318282540727 -0.07911361560371537 -0.2618465452619942 -0.17439612765780935
Ni 6.215963971278806 5.9110513691639905 4.930928570716105 -0.8087096461445427 0.605960164155021 0.5408055818345588
Ni 5.53711449550114 3.2137678975230544 9.796475792251142 -0.0232366019304374 -0.2821322920942238 -0.9728110767445632
P 0.2672047126943799 5.903109798404011 12.723345338764013 1.0104103751545759 0.11901610822560793 -0.3156185967771274
P 4.0163036949650355 6.4143028795481145 12.920741640870869 0.1678135893442852 1.0432559609296872 -0.491248853952354
P 2.550236910298469 9.073617992819377 1.6980271341911697 0.3352736520038936 -1.1062212489083143 -1.289310019244115
P 6.318749025862671 8.591777758647078 6.003842976964684 0.3976470720347926 -2.1125967918718844 0.5773155038351347
P 4.830861136217995 1.3356228420115337 12.939842393571448 0.006376335839989019 -0.21495579424772657 -0.4522868708668598
P 3.9331539919391014 6.498891536908999 8.268545810679397 1.633472489097206 0.1019810071201921 2.2729122730669116
P 5.12414370867628 1.4309854422727113 4.046385126410233 0.28298538412313845 2.345204237763103 -5.033610638348557
P 0.07683834002517019 6.087805962409042 3.9008276095852623 1.8857776705276685 -0.2801869954423949 1.1326282781469332
Ni 1.0360015846347321 7.787948723764826 2.8535712162977975 0.39965484649344074 -0.7735307842505647 -0.8459127375574013
Ni 2.0914017308735433 6.71847778988362 4.82718542754973 -0.5943007255392216 -0.9117278362799974 0.04362262178595713
Ni 6.000585293638027 6.096494332254249 9.33183652676505 0.10011824287984047 -1.045699023153541 -1.0496369247553665
Ni 8.813540657735961 2.6091520722781807 10.644975251927688 1.0920048481986162 0.3568621768079467 -0.4513764432374484
Ni 2.3692929563314093 5.576339662087416 7.328125401647862 -0.9954591531613823 -0.6096376130066081 -1.541205109720352
Ni 0.5681173860502698 0.2957269733665179 9.681761988376653 -0.3138576482219627 0.34507161193092184 -1.0269109439127604
Ni 1.7438305078415892 1.262727965448601 11.680208179942992 -0.6280919630570538 1.0005391387874512 -1.9132936165597503
Ni 4.27659960539047 7.3988755076672446 1.4947657270735022 -0.4174530510171262 1.527080754503828 1.2981533285673579
Ni 5.679397935848804 8.459302886772464 8.162430214321537 -0.5316419130574199 0.04003953242038911 -0.4049695738381348
Ni 7.086522236617906 1.3115977690014118 5.199116872449566 -0.42179153049148005 -0.5411933041912809 -1.150327495198909
Ni 0.8646357843010105 7.519902496003677 6.886080451412268 -0.5621051146432836 0.8622590401259085 0.3510396565888987
Ni 5.3733924570239 4.201318614677176 7.36656733992524 -0.589804637441081 1.3495833622128757 0.5004148367223382
Ni 8.044729214106141 7.754060438446151 9.23757135686692 1.1642014249675239 -0.5072020348475008 0.024545036329215793
Ni 4.964911572016321 0.6065411097158137 10.524077587335281 -1.6212651483977372 0.28810316496567806 0.6226335110456438
Ni 8.183743131629456 7.639517851922912 5.201329947787496 -0.24465254998121092 -0.004148732061050919 -0.8804999886139674
Ni 7.292183418844811 6.682084995437657 7.120426004356641 -0.5924251057830636 -0.7897798991195752 0.7138009724900997
Ni 3.175544534587693 5.370760445613769 2.6488171217402665 -2.321542118259473 0.09728771540958082 -0.31872526072690915
Ni 3.5583428169081803 4.398282319752956 9.180760893284722 -0.054449794308448166 0.4364434760767 0.4537282312990767
Ni 1.1484950273265542 4.190635744836057 4.146715762049357 1.0258835310895107 -0.38971753277507076 -0.5463411669408075
Ni 0.9688352034938491 0.17514533228944595 0.21552257307427375 -0.3435911707306534 -0.5353335029763941 1.0663565515028925
Ni 1.2250237189505324 3.7117553850869163 8.459450425128326 0.653203927633333 -0.32284982441824395 0.5410596068268939
Ni 5.503299068629805 3.2916900069523956 5.111182190894626 0.7739131072906478 -0.4985176196996253 -0.31124283630693494
Ni 4.006959599093775 7.348985685851684 6.305795704656341 1.4705671356878156 -0.4729765380057273 -1.4652981739793924
Ni 8.676147840665946 7.486223678721103 0.7388465857003647 -0.5906608147937892 -1.2853950004604249 -1.051947060945782
P 0.15582418278566518 6.158360261351201 8.345869570109965 -0.02804996415868072 -1.2976108258003265 0.3537588552922746
P 8.827820913414456 2.050291351962364 8.036226633301649 -1.600007010349909 -0.08506391964987932 2.3720897493000375
P 2.101055475145995 3.4219700181009154 10.63565847797418 -0.6942359058739787 -0.0543628910215967 -0.28513225526281216
P 4.107941407105994 6.543061970608427 4.057901314742796 1.87394416822785 0.5274181047840594 0.48396671846864386
P 6.9769522391255725 4.652521871743314 10.709036952481327 0.5507853187550901 -1.4781259218716802 -0.18098895038397864
P 6.318867420839597 8.042898645616742 10.293797535752441 -0.3563207024821799 0.3872443886442299 2.1145477449506678
P 2.2882288263605615 8.6794720073258 5.759394689566131 1.5460950908228017 1.0630233733646015 0.7360389579526937
P 7.4456415235531335 4.64930699275447 1.7695659329030002 -1.196562614907049 -0.3573540288427007 0.6597707822175733
Ni 2.6502533438834424 1.963926769947585 0.2784340208905438 0.6682561939807652 0.1929659202401967 2.9493515170791014
Ni 1.2470633992706595 0.9838622582575721 7.140952961163886 0.23614399828956747 0.3745094575760647 0.02827802100908678
Ni 7.160974462492716 1.0233242147977004 9.779800315116367 0.26384120709451975 0.3398890392887179 -2.110490801272475
Ni 2.6123487366551905 1.687447176906917 9.359308715064913 0.7783906834460271 0.09212571159266715 0.18862332700078482
Ni 6.629135118833848 2.377926682341112 2.6414729902484693 0.011370189510154612 0.42345554845746425 0.9411435704379533
Ni 4.332126849568906 7.052934492394506 10.650080807624986 -1.393452295681684 0.8765595159089807 0.7417290663589354
Ni 7.283312902881256 6.592031954526329 11.793068647063285 0.65888837961262 -0.657536493570416 -0.12442030996031475
Ni 8.060020380741468 4.192010948029585 8.355787426254023 -1.7594894541206796 0.23183431517062006 -0.20633745645109622
Ni 3.303729865375209 8.734461920455109 12.685542733362036 0.47510592564390436 -0.26953440082455515 -0.3030405030018007
Ni 9.08502944713389 5.1718477770716635 10.375973667775803 0.6359009175785112 0.3451816551462249 0.9032907612562379
Ni 8.838194134854383 2.7352427227046925 5.821789753136883 0.3612461648082553 0.4353427868133534 0.2086751034453374
Ni 3.9253399234619657 2.874411464428602 11.851132275939719 0.0855863678122526 0.7895549275929629 -1.4659301511364367
Ni 1.1402620227772176 3.8204510812111794 12.591517085609533 -0.5207178099457483 -1.3809413076988668 0.6779615941939873
Ni 3.1047261237739296 8.894641216930477 7.816543842884303 0.6999105876612527 -0.2605278264505707 1.5283807042621742
Ni 5.539136317414805 8.449038953003546 3.8301011825612647 1.2671365684708693 -1.520428796404949 0.0716054801521283
Ni 3.187283851915232 8.840644000146167 3.7512974859191175 0.07029138932639507 0.26369465421432653 0.29825156625358956
Ni 3.524381673142167 2.5115126455376506 7.223715603688331 -0.5978113097956415 1.2959910308087164 -1.0511613318196928
Ni 5.266627509754127 4.897608581286677 12.02740053904878 0.19402110097758843 -0.2444653736710693 -0.8913832111853746
Ni 8.42597925442067 0.1027449824378286 2.1941631064620233 -1.077786647716705 1.5239113556369108 1.0004704903330446
Ni 4.621083451716422 0.8368093218009625 1.852715635928934 -0.04057123655414303 -0.6064592152786265 0.16183088939828905
Ni 5.9782906087522125 6.020566722820821 0.826182917256531 1.1457897552295557 -0.24249333754636307 -0.7697836585033065
Ni 8.084628321330305 9.04223421662799 11.628223677766426 -1.1363016132334625 0.1762303526530707 0.478144455359912
Ni 0.03456769034011331 5.2721192152223235 6.193308637078662 0.4840901314203856 -0.07487515204233557 -0.29738356182633946
Ni 7.558526580399405 6.8171918787224035 2.903970136514141 -1.482258198872499 -0.5070403124586558 -0.8566787178246537
P 8.507371247404544 1.9947550004780108 3.6272404969039633 0.5062779803713345 0.01429250536327216 0.2110500314354172
P 2.1562366416995697 3.4150302509918506 2.0441794389611916 -1.7531737963152967 0.35751909366565526 -0.29916893586153637
P 4.775588896605247 1.4151387299764218 8.438256813527927 0.5606866370292021 -0.25958988801733357 1.058821676578428
P 8.739662192133949 1.6247798048892335 12.717867294254692 -0.5656622358669225 2.074932444551891 0.15433149569745033
P 6.631767130243979 8.127487302977626 1.4180685502900519 -0.9243879482461693 0.9424445486375641 -0.015106516624135275
P 1.7741214073228877 3.624598467457323 6.2892541049185535 0.6380362187539592 0.9112071878898371 -0.5198924858309756
P 7.193797193019053 4.280096810862754 6.221180636108297 -0.8998405979241083 0.35626645220547676 -0.01908632720748971
P 2.5370495313300623 8.754242988907718 10.40569809282904 0.5134963524966446 -0.7418357671401289 0.07213229918987576
