# total energy = -381176.6047405139 ev
CRYSTAL
PRIMVEC
9.12783307249287 0.00000000000000 0.00000000000000
0.00000000000000 9.12783307249287 0.00000000000000
0.00000000000000 0.00000000000000 13.35950635710744
PRIMCOORD
 96 1
Ni 7.160127965332388 7.9229318605718015 2.7573486412350903 -0.1259161777795509 -0.542133299507047 0.562423931435283
Ni 4.106575659067729 2.732371238383158 9.0394164739099 0.47068799908186676 1.693346282634703 1.4743777676831575
Ni 8.32062242659133 7.212549111575133 0.9851287036679852 0.1414764941116531 0.11065565207605459 -0.36854218424903623
Ni 5.4739707161623485 4.338176171625132 7.741873986178307 -0.5454057996107317 0.4098834661999844 -1.0113619404345677
Ni 0.8941278574932211 1.22968343714611 4.014772476352004 1.5036878295011846 0.2861748375947136 -0.04085560056378125
Ni 5.93010679835675 1.6201173757473935 2.528834249092918 0.26628992574532845 -1.8520013454081719 0.062395274407769964
Ni 8.815387499017197 6.463811207343916 4.376346944628425 -0.6425513330154934 -1.5841708146486009 -1.267599881260533
Ni 7.893713666400981 5.1612694053519785 13.095121805600748 1.155825799309319 -0.39371482685992193 -0.07060892056681388
Ni 2.290538470860945 8.500714576229038 11.972121744902719 0.5086451950519304 -0.3767290909352028 0.1872236184397808
Ni 8.664020640555862 7.591427213306607 12.035152171709269 -0.06127915852545575 -0.08776306374859724 -0.42431301136175315
Ni 0.8828878436531871 6.03145313071496 2.003123996449021 1.1444448111658871 0.04383808023087289 0.8299970947684092
Ni 5.93653279295102 1.5385693136661323 10.82454042931496 -1.1473828107482886 -1.0523702645261295 -0.757170083504354
Ni 2.335228342357459 7.114990830007581 5.836728151625442 -1.5509593608936387 0.65821629324626 0.036179278134034466
Ni 4.538577750200696 4.160019122632289 0.3037469064112524 -0.07077321405882005 -0.8040268959568927 -1.9939370385444304
Ni 3.538048566306216 0.9059429248267766 7.9423202911367 -2.4494262183986715 -2.310098395198905 -0.371806713932921
Ni 5.955235723240309 6.236354731073159 11.987191797566268 -0.8735783217934697 -0.4195346161365033 -0.27750302085232853
Ni 3.8614385698294984 7.455860634167264 10.448683640382782 1.266789983764728 -0.294925330093834 0.6224656180092117
Ni 1.7815887455948873 6.1501971132104964 8.142191542601573 -1.0914404910547137 1.6162718089482035 0.21680750274448465
Ni 4.334999685660919 2.656792779234642 6.694515366678085 -1.6924186286141112 0.16619148035982992 -0.3880715125312156
Ni 2.8409559424931516 5.2866219391063956 4.122530198771314 -0.22386852335632415 -0.1428893152987797 -0.39788978417321796
Ni 2.1889821983384343 3.059540164863866 13.54974631861218 2.3004310473124705 -0.03607334868378949 -1.4334866858957505
Ni 3.270393112488349 5.6745731070689835 1.3521689184828276 -1.9501485806045704 0.854196060612116 0.0073451275111615436
Ni 8.734396234762995 7.160593484827144 9.615851921382317 0.1822297647696152 -0.9448595858369598 0.3757587566021335
Ni 6.1329637640713175 8.182974701475434 0.4401733274409083 0.9498691232364095 1.4445257173187316 -0.2047271745411829
P 7.801586445605573 0.4384143939773915 9.882935060056631 0.04187401452596659 -0.19394473921369823 -1.0124639152494952
Ni 6.657366910996608 3.451325022783263 3.598970463636523 -0.09342360446848426 -0.07719094465970577 2.463074405309726
P 6.231854709290523 1.6585546814810168 7.67729456607254 -0.8804333970420901 0.5028494143057597 0.7323417116067646
Ni 8.698971113995436 6.662971400600132 6.891233864545143 -0.18705932494777464 -0.7019155339064234 0.8443235386934104
P 1.1430876832883838 1.0712516357643715 6.455914718816214 -0.0746982601448391 0.416109135394722 -0.5675854210315644
P 7.193544962789239 7.887041220309487 5.741435398265699 -0.5945377812506922 0.281874924667779 -0.9030141105560835
P 4.809491840481851 8.838873413919265 11.902999402198132 0.40611962828217796 1.6555235553599743 0.5265837818082222
Ni 2.2832818434427002 3.240170856662173 2.9552163333058683 -1.1602545245046343 0.19622993570344913 -1.0528664874362577
Ni 6.450758405824306 3.7069134810704125 1.2431917175439227 2.029169893604796 -2.7374465938425567 -1.5777266016851539
Ni 6.580537938695513 3.2976031833484614 11.989676393771608 0.42899987531446115 1.6496892080663847 0.8749417777998996
Ni 7.695931775962569 0.8570378199444192 12.030155595798895 -0.13987315418027524 -1.8047310995672985 0.3934674867358062
Ni 7.76260146987812 0.7763998028362386 4.037483438212804 -0.36126082009627464 -0.4564356029279107 -0.5264714246000739
Ni 1.6993834795210303 6.549211215048447 10.844245595692957 -1.5759959921472924 -0.3278696462303386 -0.3059296516241376
Ni 4.056390831966456 7.3981544724840616 13.233205841145061 0.1285926961704495 -1.1554869279126616 0.17904211107025295
Ni 7.780711091007426 5.439586168383066 10.716475098915781 0.04445077411420732 -1.376441105835668 0.4994558152431785
Ni 6.098259742128968 5.9588686008660465 0.8967210749140054 -0.7677365461662906 0.7247677559142486 1.5477102578287216
Ni 8.546143802217223 2.9910814156351373 7.84245814446177 -0.3378439838342311 0.26553350719527813 -0.28418866040262025
Ni 4.668585478902666 7.216884832359619 2.571892064007819 0.14093887644062825 0.5529013366568284 -0.5797930188413498
Ni 0.24150694996246175 8.808459473595248 8.37777361601412 1.7860396938053822 1.5834933289656017 -2.3140707495830917
Ni 6.017286733541228 1.8377888147950578 5.472655395393834 1.880270110445878 -0.15605310637424738 -1.0426586936653204
Ni 1.447528305025154 2.416995472436252 9.268825393708664 1.147721682144946 -1.2128729220312982 -0.7166505261237528
Ni 0.8757097156007241 4.898223507315513 6.359178855022727 0.2168165016055492 -1.1393943932261732 -0.793520082888298
Ni 0.6133675735063296 4.515895084622911 9.370905603858604 -0.9375836210008368 1.1620851499554696 0.3103084974181236
Ni 5.999450947408837 1.5108663398115736 0.20239418456978162 -0.9539769747571957 -0.06898604025141022 -0.7038585165654072
Ni 8.460606877014234 2.6081870672822447 2.4013576685457645 -0.2972763468245138 -1.5656850971395875 1.8930585204597978
Ni 4.53828565953732 7.0913314862741315 5.023415391205073 -0.24953018978848643 -0.8000319158648866 0.5685426427385112
Ni 6.446906460201036 8.086539143395232 10.647861176522134 1.9211771330728846 -1.0638602674436 1.6656860977152732
Ni 0.7884658855836327 8.32410013105215 2.7108304647425077 -0.7172976727894486 0.35804745536529947 1.6364583111984075
Ni 0.9361323204533227 4.35797444190208 11.868625807818725 -0.5808723679484576 0.0810987643545442 0.1314805592412058
Ni 7.176129056985451 7.978903733941211 8.000541262614103 -1.713166916905056 1.465023323051451 0.9810162382631751
Ni 3.451963971109398 0.6487434039744443 0.3337847800061723 1.2428620121942209 1.7816248525671379 -0.15823802984070814
Ni 3.7798083572491623 7.26390230132991 7.908373879352482 0.8974476722118995 0.8166836654889548 -0.17783626368760988
P 5.056627925197559 4.00323033123204 5.134859845466181 0.4685267297644899 1.3776387256881952 -0.1515377350023971
Ni 6.268247380380516 5.773546202787264 3.934976045467675 0.2983371839888604 0.9803991735044664 1.309750546486654
P 5.116616045188387 4.451580371680828 10.977319363577053 -0.768261051211193 0.4689879856716246 -0.6544681390577374
Ni 5.632393389710856 8.898998451408549 4.215044439695695 -0.05166811779825295 0.6940394735924563 -0.4440210313136418
P 1.0274380362579854 6.384745915901351 13.13662971443311 0.23679911537506315 -0.5239764260923621 -0.17529549954362714
P 1.716032647333457 2.215361636374571 11.425437557061786 -0.14117387526956976 0.13812531825123306 0.8076490660905122
P 4.197406727544405 2.556048883869645 1.6279225859427915 -1.009846789341622 -1.216017638307867 0.23132035164867903
Ni 8.444660552360554 2.4866590956514063 10.39970825118455 0.64116885084567 0.24127874841297153 0.5027144313897923
Ni 3.3046224871027134 0.4977033219427625 2.940159972392163 -0.8291923394789268 -1.2361069528585744 -0.7909037283113733
Ni 3.49349561230816 5.229728154580707 6.48506536702113 0.7671223096210595 -1.4975086972736662 0.11998078613172238
Ni 3.321591129078208 5.219304169031479 9.655329800104216 1.7947966140624059 -0.30339428679679364 0.8267940144500793
Ni 8.373938100490664 2.5352739354370337 13.35165134349396 -0.01472445069436819 0.8593621781940878 -0.34029604491914944
Ni 7.44990928690098 4.518304832595762 6.02762217910812 -0.7134502740189003 1.02822529184881 0.30777544658362477
Ni 3.9423294279181635 2.6217145161298414 11.711037418227486 0.17540040055260758 1.9513600844141683 1.1451076415608665
Ni 0.4625538617387642 3.9413162384295783 1.1881107206978108 1.143124806802883 1.836318387455276 -0.5189486338604675
Ni 5.005429908607701 8.941452003763592 6.467604734834511 1.3688093003220232 -0.14956441332611017 1.31535735115047
Ni 5.216136810900497 -0.004984709727174473 9.257336190021435 -0.23124861787047915 0.6572140772339907 -3.669565077963764
Ni 8.02980053203446 0.8624122881505359 6.713179047284482 -0.37080424081033564 -0.35110264861635015 -0.5536197028800918
Ni 0.669689042888466 0.7446878846268455 12.819595421188222 0.9185173483980053 -0.13647826956611334 0.3205934242838995
Ni 8.071204383567997 0.5138650634606806 1.206899452619466 -0.26609812144949657 -0.3836592423961328 0.5898120936402487
Ni 4.107132456894789 2.324649183643313 4.005033078295063 0.904794599495274 0.8246954800498377 1.0854109970311823
Ni 1.3277985165407236 1.4501297374958457 1.4577359609268188 -0.29046035234394496 -1.0414312490161226 2.1003668254645955
Ni 5.709094572346724 6.211015866025299 9.360271678145075 0.20977450715710322 -0.7328459049366927 -0.058548132747537875
Ni 4.873861320423316 4.592979636254459 2.5477516834631233 -1.569952871277006 -0.17576806830467148 1.737698840608149
Ni 6.563706214218477 3.425730578404949 9.370571525162367 0.2872747555271117 -0.2327012911566057 1.1083974306240265
Ni 2.989328871654882 0.46226633499200354 5.440432318523533 -0.24198965843706713 0.13476694330196146 -0.30006805063703806
Ni 3.4720817155494132 0.9125624294855332 10.444302280432144 -1.5573485522494341 -1.6709766566902513 -0.4196824545682772
Ni 8.486192193559317 2.7090039853130854 5.128928579433004 0.9196293505152613 -0.019477649108637425 0.35267127865505066
Ni 2.096407713714733 8.06429461381251 0.9213835675194856 -0.8482105324526424 -1.2500991533726082 0.253280400859538
Ni 3.334096260603989 5.30084310327951 12.134480340140216 -0.4288438093525711 0.23292112047689564 -0.37634368257132605
Ni 5.869844843369008 6.375380759006861 6.882296803029164 0.4826238312875043 0.7443220238970923 -0.9715427515551011
Ni 0.7138047736747817 0.3357527408506675 10.548025500563574 0.6745196583919738 -0.10768911324856292 -0.07170909560952812
P 2.512381329694947 4.037569239845171 8.159438583490596 -0.5513972413074762 -1.1090510050476254 -1.6341273490723858
Ni 0.21072789630922548 8.350598230920284 5.364469577596013 0.7758157236299993 2.214140968564974 0.426884114523039
P 2.312819511776589 8.264842237719762 9.234264678748032 -0.9423812994997963 0.5449982797596679 -0.21435467032861796
Ni 7.841173858326239 4.974669110620926 2.3090707106688235 1.267472097433417 2.2152146612451267 1.2965011376759155
P 2.821440635046349 7.450018820899746 3.718190919026692 -1.2163943049209953 1.1015307854111804 -0.7604312707541291
P 7.708665103319112 5.395316177215156 8.532449314021507 -0.09100522483497875 -0.6083219795189782 -1.1496003872248977
P 0.32614113245895404 4.3547888281046365 4.151667155226384 0.8426456367703553 0.08721721854745625 -0.4679137787708393
Ni 2.1049878769514 3.0288797730426262 5.496354901593497 -0.19758953505513713 -0.6837836001924029 -0.0128089788392102
