# total energy = -340865.27049299906 ev
CRYSTAL
PRIMVEC
9.25884805389481 0.00000000000000 0.00000000000000

0.00000000000000 9.25884805389481 0.00000000000000

0.00000000000000 0.00000000000000 13.55126002557866

PRIMCOORD
 96 1
Ni 2.09599948849086 5.5790021812436015 3.7480483268578095 1.2477591923855222 1.5459084287332925 2.189762282610293
Ni 4.890143891375683 7.796264801755969 6.757660936442769 2.6019700260680803 1.296348157037819 0.1694603809190888
Ni 3.177969945982599 2.130303520264525 9.13279061858906 1.0270466981596762 -0.09232085832260875 0.8846024408181153
Ni 6.193123050200046 3.808895624026546 3.528951577633488 0.8448740118802417 0.8650823685073166 0.2321726723466453
Ni 0.9951132045716994 8.947361818282035 12.385431321777666 1.458490921249572 0.15875816401023626 -1.7100494543219968
Ni 6.4682497179880185 1.544033266038225 0.9987824860270039 3.440623510959907 0.1693940464575276 -1.3959948595978797
Ni 2.883251555864511 9.197591443846154 10.287317112407695 -0.4699135828096875 -0.06782981515977997 -0.16864225589316761
Ni 6.035954105703971 2.1360347471654415 7.134046995186933 -0.6669374751693417 -0.6426927436893641 -0.778120460503776
Ni 4.351353009601569 7.573441366218854 9.516318026781816 0.8137024713734439 -0.4526594237149301 -1.6895341079774644
Ni 2.0276136372951012 3.591479355710975 10.990762717271407 0.1956234124677018 -0.4165194834592633 -0.21876591202243612
Ni 6.521284399229463 6.076443047929676 10.433697647235032 -0.30983258622296966 1.312477972720146 0.2692145555912912
Ni 2.6723905519202638 1.0873961424092473 0.6683740145923315 0.2971593616306753 -1.9168813339110082 -0.9275843436962798
Ni 3.474521588001142 7.933795729682019 0.9652376797878712 -0.8437602099907727 -0.08417817461081632 0.7193383573685611
Ni 7.565978734745285 8.83503347456325 10.491521004652816 -1.7404038982441383 2.7464621670776057 0.5191805473656156
Ni 2.7289991484827962 1.1956042987759996 4.494654977474859 0.47281687249941157 -1.0020697164993644 -0.07022531197515003
Ni 2.640993798412977 5.631046165750963 12.64848815533618 0.7169724282395459 -0.8669831850744552 -0.7160676570370893
Ni 7.465307280635959 7.480139955103276 2.7270418280193818 -0.32185969259083275 -0.11852888417654427 -0.920938299134672
Ni 7.132368366047779 6.385531170115976 6.079541984349283 -0.27068471237891445 2.2535819481694155 -0.3873099517748426
Ni 8.823571020761415 5.231175039100213 1.3998183757539004 -1.9680457725999656 -0.34044748289534915 0.7498545236795474
Ni 3.4799657906146146 3.67455899865432 0.7519147481651846 -0.05462154399962206 1.0659192068551577 -1.906577123771523
Ni 8.376914935257137 0.8138666258981849 8.70055889235609 0.9423252494508804 -0.03867376242111404 -0.11582588342308439
Ni 3.0566975551131095 6.917220515487822 6.057155941698172 -1.9650866899716413 1.2143052836024506 -1.4211919276887977
Ni 5.321171041486183 5.752679651691753 12.310791118770002 -1.1740477216339844 -0.8499375424460781 1.6939579480767728
Ni 6.531811709385106 4.535872591036754 1.0802751624262175 -0.8969985004896229 0.09384963626230934 0.7434108249367326
P 8.93421425414746 5.952467073449414 7.419179699989158 -0.2786278784853911 -0.28363304500946634 1.1370492900327644
P 4.47722704791816 0.3318047057103725 8.322939555060712 -1.9765131866410282 -1.5990654723722462 -1.0228897385685092
P 0.55786410861723 4.679977301030092 12.399348296179555 1.0482575279093365 -0.9878281189786857 -0.5372695436568424
P 2.6227816444321945 2.285037387741308 2.3326056451341226 -0.8096185311120573 0.5853751409148177 1.3749742914821548
P 6.762384800683235 7.455955844174041 12.125139180226606 -1.7280975700729593 0.8293183235338298 0.02590283590869087
P 5.911728142328193 6.152708178758197 2.308741890345069 0.34223208559959767 0.30445075308576597 -0.26112843614904707
P 0.6779097021290919 8.686216010947026 10.192160228156505 -0.008701641539055982 0.9152060246365851 1.0726449556147655
P 3.744463300919142 6.157476485468977 10.895850266606944 -0.6487952570426762 -0.7309546014512509 -0.6351339575054997
Ni 1.3754481619802263 4.260449640113353 2.204342824038151 0.678141057194645 -2.0024659019510485 -0.7731955123983328
Ni 6.3379592091839685 5.643221550847418 8.290322485389385 1.6140231221233432 0.09756668010258035 0.8371334487028744
Ni 1.4938966042151767 0.17528388057304473 2.7884835432285686 0.18731386416074192 1.2299514747801397 -0.9082583896741583
Ni 0.9360324955979468 7.186921498358287 2.547677573140627 1.1351196771102192 -0.4690095829381793 -2.621254585329305
Ni 0.6938182547319286 6.475591984437821 5.635358937141022 -0.3862354877637412 0.3193179000055855 -0.6600569459994247
Ni 8.97026820818974 8.18696041005646 4.1857807346769444 0.4887358577225131 1.2862779172860106 2.3598471844872586
Ni 8.3960159386442 5.037859552082036 9.686453987876815 1.4302694645100336 -0.4742443489745574 -1.2050351711544343
Ni 7.370246688403782 3.096279130236569 10.547149089214047 0.29763295883298424 -0.780057786735805 0.8816857813919526
Ni 4.7355952008585405 1.6081322706182735 12.924202759971017 -0.6271815354276424 -0.21402711178587008 -0.006749402908691601
Ni 8.73333428832791 7.383810900697552 9.115186770920703 -0.09573682598269317 -1.3390634365181584 -0.8936411539816158
Ni 5.8280003800261015 1.3342925826998109 9.394193821897973 1.5071343932888883 0.5373908997260551 1.6155835246319272
Ni 7.995959635033809 3.1786736184292383 13.465250022998367 0.637759825164121 1.5831788830489766 -0.7725514510564307
Ni 8.31587135051118 0.5600353084690315 2.393057589494024 0.22493964493331584 -0.7325718253396997 1.1277089864684449
Ni 4.8559972600177135 3.341157141667036 11.058518966804384 -0.5424156066341561 0.07867549962503224 -1.3706669223560521
Ni 8.2722158822756 2.918712943635937 7.659795863693467 0.4305705622356907 1.0536920686613467 -0.26417853582928047
Ni 0.2577126265032481 2.4540298811105186 3.758889511960046 0.1492067728763753 0.06938019036603535 0.28157539114948926
Ni 3.25780899213221 0.22136979640392604 6.50793869574807 -1.0005183128518444 -0.6858178570136124 1.1253325158164682
Ni 1.4579722740446455 5.914042854323717 10.279579493149058 0.048373763317697334 -0.09305465116483974 1.4949705042328445
Ni 1.587975758561251 1.6486675070838885 7.568974897952292 -2.443657948456327 0.6827587584723144 0.8570219600966853
Ni 2.2341044649917996 4.888875429202135 6.392116062800842 0.24867478376672658 -2.0687193737626437 -1.1221798291200997
Ni 3.812849152114901 8.416552063468488 3.5103320343414937 0.7858715652041046 -0.5532741466152149 -0.06091046233212736
Ni 1.3578378331182805 4.174323836183899 8.352169738140189 -2.7467709565672758 -1.331614693549597 0.2880352878422201
Ni 8.74790771505173 8.346240371892453 6.902646162879204 -0.6157519534344621 -0.6506114843158085 -0.3930160010206844
Ni 5.255840610124516 9.190480648595905 11.234888910245727 1.7513655394619645 0.6779050299244389 -0.27308843672440064
P 0.2549534898045836 2.7236753108930913 9.51637265398491 -0.30820636347345626 -0.024907818985273233 0.1597935472532861
P 6.078655912597396 3.440347180099227 8.836749139094332 -0.11814861801899007 1.2044659289145256 0.382132007118329
P 0.8359971243449902 8.638282954943717 0.8420727803908413 1.6871540377810619 0.9280926507912661 2.2968302173350894
P 4.941243473388868 0.2800801514583949 1.35200475888956 -2.2681554751082165 -1.4901021203969498 -0.1137674582321589
P 0.6518756733730351 3.1176022571393354 5.990470014991925 0.43113723337243814 0.08825954376904155 -0.26087389693607976
P 5.880627671956334 7.727110466177696 4.289380762403008 -0.25071701100773597 -0.45420285694265 1.0582604047583193
P 8.17904409503177 2.693547019559352 2.065808236990842 -0.4086251683128511 0.9097084918571237 0.17167410074095596
P 2.6833900633229932 5.863609909365242 1.2063436365504323 -0.972958400955705 0.30226300140582785 0.5313624341437881
Ni 8.67072595827298 7.331442856510819 11.536119974034422 3.7632519633959642 -2.4158409262440586 0.4979445208049747
Ni 4.895365881637584 2.6267166548245853 2.060902899329928 -1.0779812802260145 -0.8217621084531266 1.4763683157506253
Ni 8.22415320240054 7.949600583187456 0.35973957595715345 -1.8471686999062187 0.06183297414639674 0.05236128721053563
Ni 0.3896993562576187 0.8930779221546102 5.730611187526428 -0.4061684792422424 -0.01041193936194336 -1.041414536845574
Ni 4.192563766708628 5.0918849300575655 2.4566269879694964 -0.22617840243642337 -0.8069026748427909 0.9967156512763028
Ni 0.7158413505421415 6.498479856649562 0.0003018384442163198 0.7420154872511028 0.964044643405843 -0.24868172574526204
Ni 7.833726100691529 5.264775398427238 12.301698004166784 -0.9643385204971778 -0.26420527530215787 0.1842532229575472
Ni 7.9482487913820705 4.346612479434736 5.543901888543477 3.476094193062691 -0.5653002245418135 -1.7993405246793464
Ni 0.27373876647545753 1.853343600576096 11.54128270766924 -0.481595647133306 0.03733935988040667 -0.8239920262249099
Ni 3.4330419490413533 4.523826829812048 8.826166275850797 2.814204564729902 1.2368844544545474 0.43121590912917346
Ni 3.752879593734867 8.008005396258516 12.191472344824733 -1.2139589560066253 -1.7083257867626707 0.8764263327652262
Ni 5.982197234319923 0.4165166835529607 3.239157968757077 0.21278758295181419 -0.9166201313752923 -1.9051437337591062
Ni 7.201809725913497 1.8187895799069147 4.541379753816504 1.255786947786005 0.675109983677805 0.8129738207375353
Ni 1.6280850880196898 8.67590165429497 8.349880025034215 -0.11095518559434439 0.8391162834608581 -1.4330943355533383
Ni 1.9721994321222585 6.502081548514597 8.179458891421367 0.02915733829024656 -0.5338386635984225 -0.8823252147481643
Ni 2.523249028624666 3.2982238635740577 4.308650276823346 0.5325968207715214 2.3477162055516794 0.5057218507575484
Ni 5.8623784825836225 7.607115796329737 0.45714265672880017 -0.8721996962783882 -0.04337065367615111 1.3638442430072641
Ni 4.636544045146081 5.658313473058234 4.726015070851465 0.6986222078671324 0.29945098587832947 0.17175303360800742
Ni 1.4732864086070319 2.939063891500584 13.516148688010341 -1.5781762876280627 0.6034412543879091 -1.0168977826511327
Ni 6.015158733136183 4.37212060562541 6.426021038226478 -1.692888369161678 -1.984454810085608 -0.7030097954118666
Ni 6.535755978625478 8.224264308576325 8.456609543378228 0.015082091144103056 0.664516781542991 -0.36253197349921434
Ni 3.3440181256935033 2.661881759460585 6.733594412882908 1.6775923622345559 0.9139868075175033 -0.9558924466123537
Ni 5.1044214102253225 0.8756805467962523 5.214673920226522 -0.2652763968791496 0.09652075533656924 1.226288424106256
Ni 8.95126905213048 1.176956978940059 0.2555849432369625 0.7162111245934891 -0.7443374505160599 -0.1518192707985579
P 2.9804694596765158 1.5444313965014551 11.558818039862532 -0.18496773252606855 1.62383445178681 0.9279406985944342
P 8.96360183764263 5.886405193097161 3.628295312942182 -0.7243957172868105 -1.0329257826482727 1.0126305227343464
P 5.507847934501196 3.606673125249594 13.04211233725341 0.3542327096048996 0.5466255309504457 0.16694378514482217
P 7.153256327095387 0.4527622957484707 6.326731004236081 0.8380629024956792 -0.3161343600712813 0.23132215142089194
P 4.66008929556455 5.7345137919508815 7.188468651856096 -3.386343152349787 0.5392145831983551 -0.625721148832032
P 7.377098235910532 1.4558890332486738 12.275124184573372 -0.5085708901705693 -0.7902650662861099 -1.1190464256974404
P 4.788102127765005 3.143304819137633 5.00339626812308 -0.3739170754077044 -0.6039367059670889 0.24882622174292632
P 2.014743838599988 8.357388024862898 4.6458325214417195 -1.4762685569479672 -0.44137665171225915 1.217581126140245
