# total energy = -340892.63606228 ev
CRYSTAL
PRIMVEC
9.06841558797001 0.00000000000000 0.00000000000000

0.00000000000000 9.06841558797001 0.00000000000000

0.00000000000000 0.00000000000000 13.27254286249140

PRIMCOORD
 96 1
Ni 6.401439932479684 1.897021864805356 11.415156544858945 -0.6859646670041218 0.07515283118375445 0.9539504923946345
Ni 4.532648045518101 0.3325152231252159 6.2698699175281325 0.835071423967523 0.4675774784773431 -2.2107525117087152
Ni 2.9877255542238954 1.830958456969862 4.778779355073056 -0.14822409724813182 -0.8871876850467882 0.8428060736076195
Ni 3.64632830747861 4.249187509880232 5.253498217312885 -0.28880096236365105 0.7732135101204619 -0.6963966609707232
Ni 5.214175753475373 4.332888986108319 2.5689805805940606 0.5386900781534529 1.2354590348619303 0.33270666260766574
Ni 7.272950947801897 5.917739711403853 2.508470670487936 0.33799876424454045 0.9523270978585984 -0.07717783203358322
Ni 5.155167572996915 4.339327561202786 11.769454102317841 0.06798536690103775 0.047134748704273664 -0.8934989719767966
Ni 5.720447261044345 7.742812766632434 12.504726682324232 -0.8297129878690872 -0.26141562837216265 -1.111173450707267
Ni 1.785598242008552 6.337679902213196 0.6886681784211935 -0.0697555714275831 0.30479116714432025 -0.47453205541830534
Ni 2.7961280688775236 1.4111724292261614 0.331835091953265 0.18063722347151473 0.14468728773946693 0.34501453344074134
Ni 0.5160254954163108 8.85935237216948 4.612606986617332 -0.6454340538799271 2.0484313129375686 -0.3659075748396666
Ni 8.761712741124214 2.2970931569781077 1.413007876548866 0.010236590126343661 -0.005287730761500571 0.01948561952843741
Ni 7.113455653771607 0.7317023447744314 4.750070564884229 -1.2955493152856075 -0.12999549005524708 0.4912956480298894
Ni 0.9542965815720734 7.553328222126922 2.6643431324756355 0.01653810686433926 -0.8213504748370047 -0.28416912001859446
Ni 7.789143302065726 3.9401721790082624 3.5712300371549204 0.07456481989076835 -0.9467611737350469 0.827741208854697
Ni 7.846120157443957 3.854965345786258 12.316481790234798 0.2985421009108149 -0.40631194679864224 1.3020974008167703
Ni 7.774978436857897 8.89275134692008 7.071663860359132 -0.48030135380191474 0.04454899025496844 -0.667823991539353
Ni 6.7855961552287845 0.3360954336143652 0.4190777844833092 0.6108645434351738 1.8168942172923934 -0.8434380507646635
Ni 2.079895534319505 6.666518789643627 9.131801130712685 -2.3301987654932064 -0.24100826836040426 0.4840317673786245
Ni -0.004631239860204099 4.743243861600968 1.2217114626012777 0.2231966941002801 -0.37582277707084955 1.1547785889917273
Ni 6.247095498524966 2.2514608895480177 7.057887123340095 0.47270682928410845 -1.6368126092140327 0.11400528527457784
Ni 3.5225262973523 4.516732976094451 0.6848394933438914 -0.5977390617968094 -0.5825363859144419 -0.4783691697762084
Ni 6.152031297517487 5.476842412082798 4.700922472715934 -0.2002323719946229 0.5537958234466398 0.44619669880872187
Ni 5.214057864072235 2.9906727893023493 9.281276732317794 0.6813060851861878 -0.366054384830176 0.6336362899140507
P 0.2736312799408351 5.574400427387429 12.543110565144453 0.17818002018027376 -0.0669965206252072 -1.3030929319608202
P 4.200363160149785 6.155014806258445 12.52649360035135 -0.3768846426764606 -0.37392170339339476 0.19897870209317992
P 2.391576979385522 8.51061738085558 1.3205327082026133 0.5994385609864192 -0.3200750898865843 1.5447853708724428
P 6.335666713944222 7.942036789520281 5.76008439890408 0.5274903527828916 -0.655415076352039 0.7938540691889489
P 4.72650356635535 0.7767787183266469 12.693316174207457 0.2451189480946682 0.9871071816522612 -1.3409228583244004
P 4.0040500986778875 6.20620601246728 8.196312443148958 0.5363184925974828 0.08119158117866662 0.1609518292274454
P 4.822320445859788 1.0684497974723068 3.6728842557978223 0.288756996499593 -1.6127403987561773 1.3203897713680552
P 0.2438778082718912 5.675395372214321 3.6536791651850553 0.5969700448412687 -0.824012337939884 -0.4343714240390197
Ni 1.7393130486533892 1.2462270174046373 2.640201196396068 -1.1037550467560087 -0.7098023928536679 -0.22909994695859254
Ni 2.094096673189839 6.540123212648278 4.770815472470293 -0.18129414032922325 0.6236426690364485 1.0830208995324508
Ni 5.911718283428181 5.761554389077056 9.34894071551128 -0.8906974979722595 -0.5732595885982062 0.33636020019985297
Ni 8.54567587566574 2.256131123595414 10.394458303548529 0.5062203876605217 0.825547543637488 -1.3870080827182372
Ni 2.31177492187662 5.358372630344583 7.082613972227541 0.05193859785082022 0.37922537499449527 -0.2959216325688323
Ni 0.5070060492346797 -0.1409920987869772 9.009747511119068 -0.004876097145378699 0.05231912111869054 0.6805157280744086
Ni 1.2604372246905975 1.1833375550382472 11.601078108864998 0.47736566821235854 -0.5412748081614936 -0.5613420112250139
Ni 4.117704551718691 6.664940885324701 1.518803640608167 -0.07622395276074614 1.0053345032935652 0.7904375873082322
Ni 5.676075503386271 7.896513343077703 8.140143583603004 -1.9939000146589076 0.2716869283911837 -1.0788811663324647
Ni 5.487715442418385 2.9146522611094943 4.705939120240244 0.2159112161824604 -0.30070234178692723 0.16691318901720287
Ni 0.6390403670662828 7.719370912239194 6.874035878621462 0.8681280973121759 -1.4255923707493383 -0.1433243459536693
Ni 5.149862549855699 4.464535175751128 7.115397201557135 -0.10094639520809068 0.8630589103193845 0.3227552078219087
Ni 7.830885219192258 7.206651761160127 8.969862805512744 1.5487286717909068 0.15196196702400924 0.9116869557397331
Ni 4.559817018733632 0.507842157155398 10.288702440517982 -0.39319752090387117 0.2679094636266225 0.3948797937023006
Ni 8.044165286300423 7.28745134438789 4.35733562095292 -1.0002378054969483 -0.6525045875734633 1.0931613304005625
Ni 7.016015527870112 6.203621514013867 7.0123228690272 0.6240805279048154 -0.494166027599149 -1.1948224922874906
Ni 2.470172937616164 5.128279720665791 2.942761629025442 -0.6086181706031584 -0.9750332812068627 -1.3098616181432217
Ni 2.4417253177973657 5.396478112805083 11.483218631498413 -0.8617263075508901 -0.2749103204244878 0.6800398168792546
Ni 1.0035743520838203 3.173365090503978 3.9508910462782083 0.517931762560179 1.0070815678916591 -0.2644068497900027
Ni 3.832221759396221 2.5877177409605263 2.6946443364483907 -1.2141057659971348 0.7545192761450683 -1.5719917560839056
Ni 1.1138281492648687 3.4509674296474433 8.080390886201652 -2.5264292154172874 0.33665793394592985 1.6212106410107177
Ni 3.3282626978118808 3.05751608088168 7.625965324449712 1.469070239427315 -1.1699727802336626 -1.03785510162909
Ni 4.428261513247082 6.891859849534388 6.0660699721153994 -0.2742302636383277 -0.690637646999759 -0.47805009587389286
Ni 0.7638000018826993 7.381481746014003 11.358881584850169 -0.40903320238454716 -0.3934836846857223 0.05286959430552186
P 0.09644441386575803 5.737867687461915 7.976559340966945 0.8848420676327471 0.15052729146001173 0.7306239575847094
P 8.503843274382948 1.5596586666864745 7.998870363931621 0.4459506442361868 1.582623781876455 0.6339707904353339
P 1.6839140975940847 3.2696263223740907 10.452644885571269 0.1881733839475598 -0.21990748182604708 -0.41773561525455155
P 4.201696217246809 6.047517807427705 3.9051408894449797 -0.4354404887334823 0.16608683646116557 -0.35807496616912526
P 6.916308298062115 3.9699347190928322 10.37085956556496 -0.20855451870707312 0.22449432986578113 0.015252298173380184
P 6.248310666218853 8.079078686460567 10.192384077629425 -0.3022000093783763 -2.029141354359705 2.5142236744900313
P 2.2780313473322313 8.68011513732136 5.583798933342228 2.073461259323003 -0.07425088819477535 1.6140488331549554
P 7.002113646715436 3.761587870085217 1.3485568330116768 -0.3435189227318213 0.21595312516398937 0.018912777744102913
Ni 5.0402888838466025 2.7616952947455573 0.3541098412554372 1.0776719765157117 -0.6431339449918408 0.506452815386302
Ni 1.483220991374823 1.293863404688076 6.911079449612157 0.17012295420375217 -1.2493974993198933 -0.05327737126690179
Ni 6.743464296230335 0.7487990287541509 9.19434145907747 0.6718307987059011 1.9650103282077516 -0.8632288602383456
Ni 2.3871969346381583 1.4423859158108931 9.174313863167423 0.5643355466356991 0.004592761577004993 0.9841244448748535
Ni 6.47820407075387 1.9869442741528867 2.609872787176435 0.46670484606440266 -0.4981913467084581 -1.0282090938988937
Ni 3.8761128910261164 7.236341753919689 10.441257676069686 2.0969143481396206 -0.8424695162038071 0.3374804298472252
Ni 8.15392032062204 7.102310570967238 0.3370739156604119 0.11244925364136762 0.34223362826149445 0.08926227400194305
Ni 7.463668796832546 4.061162980290509 8.229773083125815 1.2825670440933266 -0.3240302178795903 0.22436834581087808
Ni 2.896869098066886 8.072631042950473 12.566695700504583 0.9032802197332765 0.21577469060459614 -0.5048247928645757
Ni 9.232191212217318 4.910683087719645 10.158976941304761 -0.1758796541818713 0.029266610174601207 -0.08059174281113862
Ni 8.693581734525988 2.3702480658331426 5.825796859054847 -0.7440001217812994 0.5911297840104077 0.17543382489370432
Ni 3.5054414023128944 2.5236947266408842 11.453739932822936 0.4892526494579317 0.17947559906324573 -0.19229846185952687
Ni 1.4768005531116069 3.285922265254033 12.735867900849392 -0.9647123588968289 1.231427287994718 0.47287035144516626
Ni 3.0608169841695485 8.28402487960843 7.669565359938013 -0.5737293291457731 0.24468520299135924 0.6266413466534563
Ni 5.669156302263625 7.988448940694209 3.739313120783045 -1.0269173716706639 -0.2612554486452146 -0.835368900603284
Ni 3.1126429794722044 8.496742704947781 3.5204623259558203 0.9284428350418332 -0.17886907582749842 0.18532691563770018
Ni 3.450686308763037 4.431816332172478 9.5379546092458 -0.39524771856468055 0.908151946003281 0.1269937271144458
Ni 7.336438925599604 6.1254608397332735 11.4351451465818 0.1862129177870793 0.22352502397397636 -0.38030575254286764
Ni 0.5653993911336933 0.025293624864071416 0.39606758667386743 -0.6104953330212131 -0.30906099816426774 -0.06682168561023975
Ni 4.651643795362625 0.10267441540082796 1.5146493994098913 -0.5835077486887758 -0.020299630789300523 0.9201741672751378
Ni 6.041142711242618 5.523100400191083 0.5103640835409918 0.015692213924276197 0.14599777902077438 -1.171341378446415
Ni 8.04996907230107 8.888081112872685 11.20903417820439 -0.39940519237647987 0.0007373923866567946 0.45031149230804385
Ni 0.19618701049469647 5.099179174921921 5.8962874673989605 -0.8460209810004913 -0.912488368595106 -0.8493924685758856
Ni 8.037500000815305 8.738660828602892 2.270839186899242 0.061200225658404286 0.820143084792465 1.4297210482057312
P 8.56548129539295 1.6242076491124247 3.5361107839600656 0.6675828220628244 -0.3455562648768242 -0.043447529660673556
P 1.8421579502679861 3.2283196891976074 1.7143350046531032 0.586985422824731 0.3884990869869374 -0.34723082436576974
P 4.584301740923863 1.2120481589101997 8.168294666230832 -0.5158854215541115 -0.05585901595114896 0.5465764228800651
P 8.375588672184268 1.5745308683131334 12.632222258135018 -0.30428208871838563 -0.05496221516849244 -1.0471946338624611
P 6.245535731037293 7.579554080117347 1.5636378874631682 0.3514705734787302 -0.29532513663541393 -0.46867611085816063
P 1.8306682676698296 3.316482825913692 6.052199830415414 -0.2857727170602885 0.3780382966649296 -1.1708708665678995
P 7.004534913687582 3.9401631105926365 6.000954213712823 0.5604876336445186 0.831340239059865 -0.8547470480195796
P 2.280271245991856 8.676170376524047 10.466103321201832 -0.08197885296665237 0.1182730594119963 -1.2354968300784013
