# total energy = -381173.50159361836 ev
CRYSTAL
PRIMVEC
9.19563224526393 0.00000000000000 0.00000000000000
0.00000000000000 9.19563224526393 0.00000000000000
0.00000000000000 0.00000000000000 13.45873729969074
PRIMCOORD
 96 1
Ni 2.617665371595391 1.2000667511686935 3.5462025831700164 2.278375353064012 -0.742652092393837 0.3444419487667229
Ni 6.950720708479301 4.264317988105435 7.327649661847816 1.3453202160611475 -1.176429848712916 1.0358732953123708
Ni 2.6835796613671774 7.052028985602036 9.77685749317866 -0.628850181379317 1.3328655352375625 0.9548339234408523
Ni 0.46576703401252356 7.365020710066641 8.514764365423938 0.3970631745068645 0.3480507491639038 -2.445492944782537
Ni 6.2767268651725105 9.167428940437526 6.96881311432835 -0.1674029841694278 -1.2195889005988931 0.7486880141752719
Ni 3.540557384719835 2.357778421605126 5.394867600906837 0.2207127513361618 0.9763363162890023 1.2285754203682193
Ni 4.609218555414362 2.7973388241415593 3.1285507737392306 0.22081893789672294 1.1284772320930372 2.328506465392448
Ni 0.6058689236157607 2.850011403914549 8.573645835885252 0.8916899437925159 -0.7296137711526403 -1.4690365579759024
Ni 7.5668004618052445 7.726261915339361 11.423102743193603 0.188367759346553 0.21665426499607202 1.002478779012325
Ni 0.741598290229812 3.0886288572192484 13.30863121026596 -0.20364551144122994 -0.36033676562010847 -0.5259595179606619
Ni 8.504102030185322 2.6058949627075725 6.242619346730471 -0.2546186600549873 -0.9753202163196623 1.4100510805806297
Ni 2.7717197935466658 1.2160211725908543 13.288591169571253 0.5756329739263892 -0.603824862979573 -2.1758721548917626
Ni 7.272917260519458 7.107736123916418 3.04711149855705 -1.83271061549936 -1.4166644721320893 0.9622039906526783
Ni 6.05467074499825 2.2691693121965137 6.63737771087445 0.6969481625988191 -0.819031339785525 -1.7502314258575211
Ni 7.46954745836964 2.3116255448801546 12.092203590743196 1.0358804944012223 0.2808315710049292 1.1282543174489537
Ni 9.300094322487968 0.48011865678691346 8.054919318383098 -0.963250943859954 0.8996343954505732 -0.2485205175770494
Ni 0.8944370496381414 5.108182740306507 9.33619085611941 -0.3419001561814757 -0.5002109482416482 1.299941273705716
Ni 8.75196109359335 1.4556133628815757 1.061936405054166 -0.5432036497530902 -0.3651200459413647 -0.21898214179830028
Ni 2.387838942428782 0.31367679904440393 8.717923461954081 -0.7394204728304169 -0.2248810237812385 -0.6284848276200983
Ni 3.879444008737642 7.9005099450388 3.7942198114474723 -0.028513791168976697 -0.07067474080774279 -0.27102898309221063
Ni 1.992160095527249 3.4230739910082923 3.7852154486482905 -0.1397944784235399 0.2521349744011851 -1.539742666242213
Ni 5.717706008056658 4.101049542946665 12.509344123037918 1.672693639381358 -1.226894690231687 -0.6799207748028872
Ni 4.603324155338509 1.8349331805554294 8.216141735434414 -0.9957771986224334 -0.26600813283885155 1.1317206787309995
Ni 4.210551128131156 5.871125931403823 8.747479142584034 0.5280644801188067 -0.18901850555667446 -0.6934128957520509
P 1.385836907693474 5.50796283905489 4.158022919779681 -0.7391425365786819 -0.11588193347200043 -0.5016129707954975
Ni 7.076949148169216 6.040858905818951 5.522469868009127 -0.3261542062011286 1.1278956485579543 0.010157914369608313
P 4.78420223566929 1.0008617763743008 4.246634787877876 0.29935971171610376 -1.1622126766722694 -0.10568879498908249
Ni 2.047692516834701 6.43260202224862 12.599490742107504 0.5994861263949031 -0.1917017088157924 -0.36638477158640126
P 7.9607873124291535 3.8871867308341606 0.4636023822529981 0.22873587875095444 0.05649176443914142 -0.3127726426879
P 3.5872987818891975 7.3707311975036225 0.5817202745686503 -0.0725408474822041 -0.36093994642174615 -0.49844845702458673
P 4.30632363482384 3.1315080889722946 1.192293683486761 -0.4774422870865649 -0.7990561822151787 -2.4211872781576367
Ni 9.14641692144638 5.534161194462231 6.9592432201646375 -0.9028097078547612 0.005067130110262242 -0.14726584709992058
Ni 2.0215585308509656 6.702852449439332 2.1648917655191866 -0.6068060570950841 -1.3679001582441928 0.32797866100437706
Ni 4.349046540833845 4.012330085954729 7.1835062920053625 -0.9443548782863994 0.5419767193245246 0.7421805520740572
Ni 4.021010762509496 5.338882754507759 2.291538606462536 -0.15362187122493542 0.32707054736781094 2.4472703483979332
Ni 0.1482041609087507 5.7422767366099805 0.3221588499491885 -1.2268301555423387 0.6019605560773246 0.03658319844067248
Ni 8.984518625447208 7.010179664626674 4.511005528003845 1.044279517098195 -0.02378167580063001 1.3782033399424134
Ni 6.508456790151446 2.6253437242683044 1.49463318790789 0.15423790754237954 -0.4988662612882957 -0.22157561355708935
Ni 3.87057022391206 8.110602548054425 11.754093997624626 -0.7778358393838216 0.9696072250952849 0.7386406572415989
Ni 5.720253198105038 4.125785792874972 5.411959522000422 -0.4167035744456114 0.15362958453441927 -1.5263559605226618
Ni 1.0852041125610787 1.2884091872509411 5.323576625137622 0.5040092389418158 2.2067986692672896 0.15910243472353244
Ni 2.467077702886858 6.780941755904456 5.569723461877747 -2.719692355182929 3.51998035292268 0.8499583683816846
Ni 0.9808612768969522 8.485085463325941 6.232108739418927 -0.17216209612096803 -1.3257893451170715 1.466021168188346
Ni 7.783311615917508 5.893967881151747 9.332691918164867 0.33884157186081 0.5561918344826421 1.102142193742934
Ni 7.356367620407705 8.385285269841956 9.010583644191367 0.4793281912553681 -0.7466406447279399 0.2986724558410921
Ni 3.070807722512535 3.664422547000243 9.424440416319026 0.27459356051501743 0.24241697578247282 -0.4914285740633279
Ni -0.03180217351377589 0.5179264975230601 12.486598727425402 1.6058421289744471 -0.808100551805634 -0.35695833606617877
Ni 6.028922975556147 5.034617684757639 1.20643840454242 1.6368151803171942 0.3826791378710506 -0.384711337809731
Ni 8.172636281146008 0.2694614419699508 5.213376171925417 0.13522588521625098 -0.4443604169309315 0.09932582888553217
Ni 5.296775955837975 1.6083987876246324 12.936564907069224 -1.200757883935319 0.2029963078930052 -0.09424198660472156
Ni 6.9463711745699745 9.172955515235637 13.54029676582129 -0.28985537177009435 0.9618962296042723 -1.421614617048513
Ni 2.2130115879168963 5.536322167968979 7.575276995330864 0.8926394521899789 0.5228829359178672 0.05415617432742931
Ni 2.3151842544423307 8.804523325783014 1.5989245280331323 0.015325574613476832 1.3021020288024607 -0.2762490938405694
Ni 3.8444178466644368 4.837904726219964 13.56506060264543 -1.4859423325923053 1.1858370009594288 -1.1818152813945453
Ni 1.6315717801225258 3.9133850862415014 5.944427991879105 -0.8070996213449454 -0.6987772453877579 1.8624711345912441
Ni 6.210968901143765 6.25376537220932 7.765530022428152 0.24505338496405538 1.983695820432397 0.23718478084925607
P 0.04914697448581039 0.8491117797880948 3.1533284040112837 -0.4230470001651359 0.6656521806990149 0.852336638805874
Ni 9.044290233080666 2.9981438388941397 2.7734016746291514 -0.1565639845723949 1.1045523458463233 -0.10873915177963209
P 2.6379969138227097 2.4456886629860235 7.542828368891451 -0.7708609507278854 0.1335248433647442 -0.3913789796378937
Ni 5.81232906075639 2.210023007535223 10.471018276900976 -0.8047007820954658 -0.13896324077149616 0.03566762860493857
P 6.749630629136468 5.581178460589901 11.298878951267394 -0.11197977020411683 0.007023739616000806 -0.731946790161191
P 8.054389649983145 7.6755020270106415 6.958907579598695 0.04026398972636937 0.09317343613089114 -0.5983880082347178
P 1.959359276384397 0.03641746118627304 11.149701892499008 -0.8390437783517097 -0.2226991856385713 0.05756340023676538
Ni -0.27700094060051544 8.21644427172536 1.9707094448923932 4.239799763692718 0.35338707377515266 0.7840987895743979
Ni 1.8102888869465585 4.348706302451931 1.4058456832395716 0.48963960048370514 0.4335813240375565 0.8808056927798443
Ni 8.549739951521452 4.287481784971385 4.85000341916817 0.7717178994115419 0.8166818657167418 -0.8976975834391766
Ni 4.678332925102524 6.785695897619301 6.168703937604552 0.6704179775187744 0.1884163531963013 -0.547366008660896
Ni 1.1409664246671212 2.6871751534571287 10.981522060319156 0.05605082024698088 -0.4384659058233674 -0.1544091430129212
Ni 8.727362778144196 4.456617043310178 11.73845498637813 -0.06799590842399901 0.9406301211366446 -0.15719621883975507
Ni 5.639543136535985 6.762522905121408 12.997855633099764 0.36253120216826595 0.2145783563036498 -0.5766465027925681
Ni 6.64309003743782 4.375759851630027 3.3219257178813755 0.6936815760324053 0.7698962728217709 -0.3436405359113501
Ni 6.967208476554191 1.3897726381653384 8.617589002254173 0.7660090219522228 1.7534157371227737 0.06500597255773967
Ni 3.405013769871045 5.0958697891340154 4.857513491776515 2.72960370075937 -3.429413758287016 -1.2952927191901111
Ni 5.661382762402055 4.268750282702254 9.531477572142629 0.35694445210910786 0.49859809522857357 -0.2703460980925731
Ni 9.047885725170616 5.520073486324622 2.5943332946648736 -0.1822552186909119 -0.4748614137332661 0.33937893242151873
Ni 4.616501495913701 8.852929132334172 9.190809754217346 -0.14197143147020067 1.4349689268682317 -1.8111573148086162
Ni 6.033861029909865 8.59341000762165 4.8125348972507425 -0.18696162302764577 -0.9200301854981058 -1.4613152780722445
Ni 3.510147429882321 1.4941982345169573 10.491354416944267 -0.15253300903613085 -2.807165655605249 -0.9244177730428402
Ni 1.855356679102184 1.9562971309471753 1.668062806364348 -0.517608060672173 1.2464651561644469 0.027060089441585656
Ni 6.991347010406163 0.3343145558154446 2.3684416764069343 -0.41729081440764904 -0.11832602413711879 1.2732527086709364
Ni 7.229210421891486 2.1282922308204304 3.9684025521601116 -0.9252042734998774 -0.011869497744076333 1.082509250003355
Ni 3.5062760688340626 3.080812570067181 11.820485540694284 0.2840575341413946 2.388045501298345 2.06674116699035
Ni 4.615002607906892 0.584084471541352 1.941449863611025 -0.6598162907435282 0.8799479727652394 -0.16510827459798014
Ni 0.4347943065000611 7.136739147066559 10.601824302172421 0.3105463244605426 0.4271453386042256 2.86363556566752
Ni 1.488119921802232 8.57190142450555 3.937635806803186 -0.5895112745703782 -1.545685771199525 -0.6755475854358558
Ni 3.7487281006592466 0.0526707406466012 6.130468499983028 -0.15997378158489226 -0.2942010503332998 0.13349476145775718
Ni 4.323363140815346 5.489884226653755 11.233899857264271 -1.4673172612919503 0.2825128153620941 -0.5701804354522503
Ni -0.5494592390208882 1.1219222709119079 10.369903108049057 -0.4085254095101933 -0.5108532584468427 -1.1828696908009888
P 5.290007970727479 6.0301919727643645 4.129611175763513 0.49169159791672734 0.6369375863731418 -1.011453985927742
Ni 5.51364573959604 7.344256973137973 10.295152735542658 1.7378525925771942 -2.409858483408379 1.1076464113906148
P 7.539360696085517 7.3725979107881745 0.843118986450445 -1.9167967446170024 -3.0116457471326323 -1.5019173678643232
Ni 7.956934342644782 3.640293208780214 9.66361512491951 -0.14615024543823862 -1.4520983874596671 0.2473730342361675
P 6.300856203392539 0.30819620240601314 11.248125499881034 0.1625932214856103 -0.6073619295985541 0.4412774071302336
P 3.3668427016731255 7.699907234188978 7.655719464010356 -0.8271467698038077 -0.09707328540592959 0.8325175471974178
P 2.1133125463842917 4.671169527818453 11.206712971422993 -0.4725826450014184 0.7970543212938015 0.09769086438527046
Ni 5.372042203296411 7.579260543088834 1.8204693710713276 -0.16406594937639488 -0.4314987304769149 -0.24166132856337091
