# total energy = -340874.3330513307 ev
CRYSTAL
PRIMVEC
9.19686558558613 0.00000000000000 0.00000000000000

0.00000000000000 9.19686558558613 0.00000000000000

0.00000000000000 0.00000000000000 13.46054241792361

PRIMCOORD
 96 1
Ni 2.3349921705429115 8.58321380501637 3.4071323957102275 0.08583165105383928 0.6749711441070956 -0.32847719790735047
Ni 7.696498022106863 2.5918238352582663 0.8076356156022866 -0.8112002737768804 1.4959601218396237 -0.10044348742974316
Ni 7.494737187740128 3.921010012106054 10.047002545613873 0.006067803460634711 -0.23294014664028917 0.8493927256862017
Ni 5.149334165501386 7.781697783688295 11.809270036456235 -0.7187086942043622 -0.5628530485529016 0.10828715184387801
Ni 5.211964819254574 1.126376899819105 12.02816555085345 -0.5723028811118919 -1.0336420919890068 -1.2254906107953087
Ni 1.9073931080464677 7.675887846620682 10.520988758095681 0.10433870871909127 -1.0282929118619515 -0.7372779725661174
Ni 8.037692533647181 2.105741905329145 5.803297516831603 -1.5222535083185138 -2.1700753457043276 0.8757673590249885
Ni 1.7480206265649676 2.517421193721805 2.3650438481058957 -0.8892772205859653 -0.2956845768573617 -0.7522163390435046
Ni 6.084968075769662 2.3168007706715743 2.8092018668552936 0.3759222787631913 0.745711190935135 0.3481934453893552
Ni 5.417671108901797 5.229595210333116 10.907709593014713 -0.25434740867147165 0.460459122265007 -1.1004151837494984
Ni 0.1419545379949856 8.15094273486844 8.983767645267292 -0.8687819288460908 0.035948135959834863 -0.3373017381775159
Ni 0.5839623296008454 6.99896176162072 6.3978224464082984 0.6498213843143453 1.1972100186830605 -0.3811711858669564
Ni 8.471058030784338 1.4955114886137832 2.983448438838267 -0.4701575804996935 0.5123843503793886 0.3866622908885147
Ni 3.212363938149447 6.604434627302906 4.52578392854656 -1.1364188555376171 -1.677066828748389 0.8727527405683807
Ni 1.7697712133676535 7.431094878786815 1.1940051302609116 -0.059431563793755714 -1.7302269577111362 2.436327476233185
Ni 8.810045294615293 4.864516439204393 1.2427227659527462 1.836182376098044 0.37367230638675 -1.636333612695085
Ni 7.76671608986099 1.2374382470619116 12.184617107866227 0.666008278486853 1.3065070998486918 -0.181195667078146
Ni 6.451867826258609 4.547068234270643 1.5268157792518309 -1.24244832169557 0.6405998657160773 0.4053313280529277
Ni 7.50286721680295 5.570660965757054 12.619702418843595 0.211235665083662 -0.013106455474970977 -0.5782650122325976
Ni 7.440898737362571 1.0130347299432894 8.085222854008688 -1.0972786950030458 0.13483353487383876 -0.9733129560816465
Ni 0.4230383369169715 0.34695634774830286 4.880536459141644 -1.0064279934680604 -1.4023809656298816 -0.14716557407663042
Ni 1.3772030113918996 3.219509902608511 11.268183493609776 -0.8191817493204603 1.2180578086663474 -1.3106866851476782
Ni 4.136878838081804 4.359157879280164 6.188133914018765 0.39056522548734673 0.2692847467075943 -0.31894123339245717
Ni 5.769506393774338 6.789107685652985 0.8105050376244591 0.31332980074295075 0.5637881587726613 0.27393227278193466
P 6.348927311213169 0.6931328013059639 4.330229138989319 1.347294309068383 0.6846300073530984 -2.44913414107955
P 2.352033962232289 4.703479325075414 1.6457661976825213 -2.5197402334328864 0.8009243457721691 0.7961842599840223
P 1.0500245228060392 2.3999680249872997 8.899612647601627 -0.5422577409000532 -0.02392925712208782 0.242285335300615
P 2.2463527812810558 1.4454253593421431 4.608404889054219 0.5566240369240543 0.5252005283074503 0.03044314698120564
P 5.13535493000875 4.171826926813393 3.8791394427459736 -0.4655272808165338 -0.507704428405216 -0.457081978262658
P 8.611705694198072 8.75074390615706 7.034263929672352 -0.49578170882570094 0.9942203956582748 -1.1448034800568865
P 6.659045614378741 1.9706675423815547 10.369382109804958 -0.5937489668008097 0.13619519110805575 -0.7188030536903814
P 5.425028601266343 5.075713257528657 13.016801916429364 -1.6213188844538078 0.9598570876870565 1.3915280820757778
Ni 7.231265386165772 8.361284244705326 12.818555204353245 -0.3323189402509438 -2.314830253456936 -1.2302466374230554
Ni 0.5108619642129084 1.9960876785010577 0.020586263635996905 1.7245982986704491 1.142619327921374 0.8562308316539575
Ni 3.0035950923054826 3.639356007525816 4.0187662540941265 -0.33087680848777856 0.6462223541091774 0.19695267280208661
Ni 4.6755668384174225 8.908221833354691 0.5495559362445962 0.28553848956229533 0.760343081915697 -0.9819312938782766
Ni 2.675984351043205 -0.005687341597793282 8.408558892207164 -0.6910541657118873 -0.7677121206862585 0.6675311428892826
Ni 1.2382015868947334 1.0160788924091197 11.551662156296421 1.2858719400968435 -2.0334186415788205 -0.8419707221905176
Ni 7.28361394433951 4.051145658303944 4.77156004129764 -1.5547149712813289 -0.2601971825840293 -0.16359723727009245
Ni 4.051375579940336 5.753375091765074 2.359242465376452 0.25877819074931563 0.5163171097748914 0.6487325221255408
Ni 6.04235899811349 3.229129823875154 12.29660917789315 2.140955288409919 0.13116688465552895 0.06978925287899593
Ni 3.043748606884987 6.524394307242112 7.186300991266401 -0.9739454474593229 -0.5291839384352306 0.37514503427753454
Ni 3.1738934499483324 4.9615709603581974 9.255603076287045 0.22013193913202733 0.2955187407034588 1.0104301726489178
Ni 0.24990918408686322 5.448636954891076 10.483998965232932 0.7337208513424782 -0.05068287106684819 0.2749054353284814
Ni 3.728078168576773 1.853637429458011 6.9021491180284 -1.3433623210038284 -0.46789835215187153 1.0383523529804828
Ni 4.166281216943617 7.163815574913806 9.614488678217914 0.40972174381113957 1.0286163566396413 -0.585863650515462
Ni 6.465543565191207 7.900217788815659 8.02493280251397 0.9932415766847732 0.9460664616608676 0.9931194492846123
Ni 4.665330727165249 8.326317762242827 4.53845077133867 -0.5642964658676476 1.675510797115179 -0.20110706129009237
Ni 8.477238324370557 3.2804391362523995 7.84123737096183 0.034556397818630805 -0.6590791554671874 1.123966231596561
Ni 2.408300385090147 8.204891547631467 12.691609031095384 2.2840423215418015 1.6844443521593828 -0.42228261119528565
Ni 3.196839629260257 1.6571463989973811 0.09188220402152907 0.18151474098046158 -1.2252820943289284 -1.1988598955816578
Ni 2.5673785668770654 3.7746786858407093 13.208654967640694 -1.6622631880766532 0.9381996573182809 -0.0389126179047975
Ni 5.606501150437844 5.681915447174431 8.160870751127849 -0.5262629081336937 -2.2115438972617585 1.8815127246037273
Ni 1.0953834632334591 5.184411010349353 3.585551585550444 1.1203566598684318 -0.008529120516933698 -0.23120079535167923
Ni 6.752448979946639 8.984794935138693 10.41096205821664 0.5366900170042886 -0.5831526793422022 -0.38725158773308144
Ni 6.527098185686082 8.106871355604817 3.034868113600981 1.2337453946049333 0.6522248515495155 -0.9841591547675309
P 1.9027946753186271 0.3951736739593485 1.2514092053756372 -0.020485521547861492 0.7219850509627889 0.9648571120048092
P 7.885907466166619 7.34767011223833 1.1804507899523284 0.08249487337112245 -1.1081390347563174 -0.4018459406074885
P 4.622087065792636 3.6051620617615927 8.300524233385822 -1.3503796328619257 -0.4252820601432418 0.5151130621644613
P 4.358596870487368 8.250747118793493 7.5003757859510065 -0.07031041548978859 0.7609287792158379 -0.1445916427018671
P 1.9921974044133046 4.907695722518816 5.724701104647351 0.5904690104979573 0.41295670580866944 -1.5144751499246756
P 5.5124172168262255 1.8644345495029806 0.5986478843604771 -0.08355545342515287 -0.24082392026374005 0.9242856183403502
P 6.608232932736102 6.868964068404665 10.12799474124933 -0.48097395438890717 -0.794835973486244 -0.8166201592408711
P 4.413336613679583 7.950754564494628 2.3388631312132078 -0.6505852590635635 -0.6867110582518431 1.6487777519957088
Ni 9.074234451695194 4.750190204724819 6.227775163192388 0.9555286355150318 -0.09126207804079121 -0.5130111853301099
Ni 7.382553822911729 0.40353270497201715 1.2102872608636495 -1.3051978941189653 -0.039017518913777964 0.37362062721320816
Ni 5.365488094306262 6.746176717705865 6.251627233751698 -0.6737778951299429 0.32930560734591674 -1.0802705904808234
Ni 2.5358976964222686 8.760143102652766 6.028856160251459 0.866310841597779 0.1422938478066259 -0.3537154036488489
Ni 8.0072876964507 5.763914699577285 8.609860802987662 -0.47966140622507075 0.5184344132282104 -0.8877466428740517
Ni 9.091395802635493 8.482351781563915 2.5179693269029637 0.2543494655540007 0.8160542594350719 -1.4628360855921452
Ni 3.8737749111256754 3.297903983752738 11.367831530822082 0.2834217003296086 -0.5117770558126927 -0.3236131849468298
Ni 3.2730724470223986 6.095498486716417 13.392485593115032 0.9614905095254215 -0.3335134747796772 -0.41272299253130856
Ni 4.479186170342261 1.9045972609479407 4.757184420903865 0.33262078776207876 0.2041527900949516 -0.4715698874661879
Ni 2.1443595433775506 3.8263006916434485 7.576037478368351 -0.6685449288657777 -0.8350693670849941 -0.128251767891263
Ni 4.0899104461996405 3.4926843972386115 1.5246085315424676 1.8692765875488517 -0.19853107303280004 0.20745717187783624
Ni 3.0027581775490155 1.98072891319007 9.629389439629207 -1.7433100161473396 1.338466426364108 0.9413073497093274
Ni 0.324736720807377 2.9597904221400726 4.463542302202146 2.2822083536568565 0.7346081390434381 -0.351812015978549
Ni 8.105749338019223 5.878314508980504 3.2693238046626627 -1.4982764286776262 1.484558050650269 -0.19839377612398734
Ni 0.32594518892825347 8.865704724353076 -0.04170778484151445 -1.584905121711464 0.12399787771091546 0.43138817304097965
Ni 7.490653779477806 7.540785893076725 5.396465896220633 0.9641104636467718 0.2383119524751638 0.003844827667386927
Ni 5.86403177692783 0.33683151856814336 6.223723943959161 -0.1646210505489165 -0.3568161540613597 2.9017236307884926
Ni 5.894353842335211 2.6791112852981365 6.938141970675754 1.5265729616294743 0.5308379290988858 -0.4377498535929493
Ni 8.745575267770969 1.1307270171796422 9.848701572031565 1.0348695366382046 0.9470820474095755 1.0945911208685537
Ni 1.0804753443297999 1.445747249633092 6.880033415667123 -0.13361071821033116 0.32479512107007286 0.7004024396960067
Ni 4.84005277709228 1.0996875962667179 9.037905913458706 3.2276816618184156 -1.0637404540362843 -0.30410313993836013
Ni 0.6000025826420989 6.631859680091746 12.615247457216864 -0.1235098823309034 -0.9394664398458465 -0.03477545580797237
Ni 5.7109683451489275 6.261474317595096 4.083067058614067 0.4178055492605385 -1.8744663592799071 -0.7123243879445732
Ni 3.8729839806964863 1.3892692988697535 2.445565164230022 -0.4482247849823442 -2.1528826359751245 0.26432148916504805
P 0.9138943597041367 6.2384269727631585 8.444255605786847 1.9059502888208013 -1.209751088572865 0.5951661588633105
P 2.9478253001822314 5.261195640038837 11.379677093529 -0.8746802966083967 0.565013289429014 0.3279943447336609
P 0.3705499863883075 7.307065951251497 4.04545831670615 1.1755487316595434 -1.241940528821216 2.5726157412756794
P 3.535615365185731 9.212776032919574 11.079910782120344 -0.403612288479292 0.11907112983325946 -1.0196082396037602
P 9.112658955569028 8.298745559606694 11.270041260431825 -0.645423769467282 0.7842144892166558 0.028287534090783537
P 8.783705471950222 3.7959970199669786 12.461070285031276 0.09923764004710006 0.356516877653386 0.14616258673341279
P 7.025329174882157 5.185422665549479 6.522427097721142 -0.8527068776610992 1.2231856168112158 1.261377297389589
P 8.067775480552715 3.671811745718915 2.825340526356923 1.1254078491390942 -0.9309964547016224 -0.34111108462127704
