# total energy = -340873.3699052151 ev
CRYSTAL
PRIMVEC
9.17795519481665 0.00000000000000 0.00000000000000

0.00000000000000 9.17795519481665 0.00000000000000

0.00000000000000 0.00000000000000 13.43286514954264

PRIMCOORD
 96 1
Ni 4.767589842322093 4.677875329185017 9.915389332421348 -0.906970009880038 -0.11296141739109578 0.009353159080125828
Ni 1.5713118385302343 7.568573310992331 7.5975077328967755 0.11887084089699528 0.6059784189874661 0.3507802322799249
Ni 7.8170848068708585 2.0217016393666243 5.827042524339665 2.192531103604682 0.7183608239466402 0.02030194478214568
Ni 5.435515539872035 7.8042999151266175 6.847778919685376 -0.2937865885037005 -0.18352611498353552 0.8310263073638721
Ni 5.774466607356981 3.8275653037517032 11.970764889813541 0.13034156054075616 -0.2160336006929376 0.16535921426652164
Ni 7.462090673507283 8.914447033288704 6.461436562171315 0.2542908444019233 -0.10755952964923413 0.7160900256345926
Ni 0.8231809073379813 8.42730869939852 11.681582202782518 1.341424223440851 -1.3345151550258436 -0.7380287346892128
Ni 4.033142324698748 4.666825070994016 7.16834103591493 -0.33765243664871525 0.9260205987535859 0.49168362749692734
Ni 2.0909034223900056 0.9059779955593114 12.668481312498177 0.49400739053409765 0.185090631257178 0.9373946449184823
Ni 6.446696765946441 1.1330277607452817 8.708607522819847 0.25687274619648665 -0.6808551136916984 -0.21481026980879783
Ni 0.5628922592080485 6.819597090116198 9.847351314131041 1.545577527756435 -0.37526921856022466 -1.1147413705641833
Ni 0.6169100329696415 3.275419512413957 13.114022399545275 -0.22119611873048356 -0.924831463541491 -0.016045226388320753
Ni 3.6558732938023146 5.555095119581801 4.923199321185027 0.17021448547629395 -0.1537231726894901 -0.045345260904018685
Ni 8.846126333974905 2.4467327496866216 3.57396187826822 0.7254077034910926 -1.6929264214884652 1.842044748416092
Ni 4.424169110602083 -0.31798035740137465 8.654432806022486 -0.37998873552308104 -1.2837466662237247 0.2849684759914382
Ni 2.5264065797165913 8.323313287801977 1.1348982280370807 0.6167325721801765 0.5980187978207572 1.2530973167689838
Ni 6.420796576066867 6.149468683292303 5.7631428460977965 -0.24591830406751194 -1.8950593529399105 -0.6332154003265481
Ni 3.2841477479119985 7.979020650327693 11.527023599802368 -0.22481751753315476 0.1463235377913093 -0.39652761371836875
Ni 6.0748335507265026 5.286667460684609 0.6545570878481041 -0.8096928359934185 -0.1815237398415261 0.35883781247707874
Ni 3.909864028999801 2.0342754381387773 8.166778671043982 0.7124457440137858 0.8132499572170575 -1.2601177139508748
Ni 7.878586285390709 8.754117332010795 2.072355692507784 -1.4786028615080986 0.38568141503248415 0.5237478550213238
Ni 9.054107979212683 1.2148584102726645 10.271977676621947 -0.7383874035802122 0.5115163459521385 0.4897570998981759
Ni 8.508432646367174 -0.060434082317514286 4.313978579172546 -1.056170097888194 0.84580655099684 -0.595687064363787
Ni 3.6626099129984895 0.9682100393216904 10.419698702897534 -0.9244468265085628 0.42352779645629635 1.2420127768200482
P 6.333835449522234 0.2685451367251362 4.067270551512069 -0.4569773343639936 -0.3744395235700777 -0.2081968782573382
P 4.218894962180208 0.5806038773616985 13.169070857687974 0.4919566786526559 -0.24414758532033434 -0.29867142739982755
P 7.335095305908539 2.544441261897088 12.792251546601639 0.20052959152006755 0.04015857449675665 0.8812985732558628
P 0.7375551732906824 3.673807018474421 5.030581398290273 -0.1901269081295048 -0.3068153966632006 2.5676370571141653
P 4.1341824346860685 5.217181161046676 12.625657890825924 -1.3685136234584754 -0.4314933311602762 0.7158863942642187
P 3.2086865993684652 8.299101841699102 3.40250482397472 -0.5498525225281755 0.35347526261358475 0.2827043625476099
P 3.3920621464251175 6.873398264132519 6.632624702374286 0.33961727368456995 -0.28360347732311164 0.368853544841868
P 2.4840686718801384 1.3150816822375613 6.695665323999313 -0.6078149579755725 1.0166620124912424 -0.6905008643115785
Ni 5.44556540093445 2.321104897428792 0.9825735393789307 0.028578068748008847 0.2803435756249172 -0.4402109135389322
Ni 5.671242144006322 4.73571480353692 3.4446298032480245 0.2657643922591616 0.6442230642909614 0.7562437150353427
Ni 6.6142495180518575 1.4343675673774665 11.075235996372548 0.42404947328772136 0.539905952838425 0.5666045451755338
Ni 3.1536464013855454 6.347161840629655 9.409158098103637 -0.34424808758836195 1.2715925473596938 -0.8107531589371326
Ni 7.226061196847827 3.554952497233999 10.015732835600781 -2.5893219982867666 -0.6544228876420988 -1.227118119096403
Ni 6.365325014184465 0.23847540174907475 0.30950268008324505 -0.4057249639469206 -0.41584945397543216 -0.8660699292315666
Ni 7.914371133137149 4.705051254852422 12.730971256804715 -0.046748054788816266 0.4753753772552072 0.4374310368009499
Ni 3.6596454334339605 9.01048515763309 5.895603686082538 0.103252417633448 -0.01025124541436299 -1.0869122641670572
Ni 4.8873162693167895 8.876285095117455 2.0731073670475206 -0.3639275682951603 0.6833868789746165 1.2851695147131803
Ni 4.099590721129687 1.5987631028568832 3.585178257450299 0.7821648057764787 -0.7362605870451965 0.3885415101890986
Ni 8.041623483484521 1.9913134293413703 1.3951235482753874 0.4456356840989293 -0.05174088001771735 -0.5006768321344732
Ni 6.263486422085335 3.00982784170698 7.4765046523187175 -0.393379040787058 0.18093341455569484 0.9273665712585191
Ni 1.6979125540507274 0.6888716271541807 3.954944309882327 0.5371908679001072 -1.219296566169455 -0.7221030645978919
Ni 0.532482022090055 7.416880065659382 3.205000732516716 -0.4682122838478646 0.4144178637352282 -0.18772344089433476
Ni 5.616871936760896 6.294278462144147 11.585134741631393 -0.6714019386985984 -0.14769830665164885 -0.4903222283730266
Ni 7.1810066142401645 7.909791333438387 8.892556692083259 -0.07831965894751028 1.5406001291465015 0.9722153521420933
Ni 2.2009287506239965 4.967127768676381 11.337364824541764 0.7370545437014016 -1.1931705585063646 -0.8255686266834105
Ni 3.783970016038035 5.864318789823678 2.2364244927782306 -0.23976231176844515 0.27457839100636583 -0.08038039813128092
Ni 0.9734506518026388 5.546302638396602 6.2736051178125605 -0.15116235394084934 -0.07380043092091806 -0.5034433391360168
Ni 8.227623925759302 4.7919297797992835 4.215475256032395 1.0951457078204432 1.1512674905146754 1.4297459879063956
Ni 9.004886604895123 3.1052326871351035 8.276068845057791 -0.1604725755981817 -1.1870122522144524 -0.002486513867279589
Ni 8.462038082284524 5.919808707616697 1.7561861456887053 -1.144208526785365 -0.809664039638012 -0.3830642891246112
Ni 0.17655449067164164 7.856834531310415 0.7493763797275677 1.744802541532466 -0.13781730009251103 -1.3331434714892976
Ni -0.05274479136035398 4.243528594227258 10.756662743058268 2.7398657448070107 -0.5638462657041063 -0.1557700279161898
P 1.1359463505332705 0.8693854877457542 1.2600561689831344 -2.4068888592570934 0.06349750633301322 0.1124363981255612
P 0.27348471227197757 6.103340279913588 12.06295469749722 0.35981174635457386 0.11926627656320105 -0.13824847409265867
P 2.606722866618131 4.289684531471898 8.957061197579932 0.08393494825175868 0.1395437958653145 1.126812957016737
P 4.219482351319929 3.5884887459299453 2.272330489534739 0.32063404771384774 1.1924161968388431 0.9318600882534984
P 8.638126332826511 7.10841816570808 5.301145685183201 1.2173168167352648 0.16777425146591748 0.29333690256079165
P 7.978258880037117 8.577992369647573 11.149923443283605 -2.0427460896273333 0.23558375491072334 -2.466207551622069
P 5.353235170534553 6.864752630232251 9.420307478211967 -0.4292842393240994 0.5461755878972206 0.3188682140626766
P 8.69431377522295 0.5869779673232023 8.187103253073861 -0.6330374799877871 0.2621774462388517 -1.0969179692295175
Ni 4.972249067738324 7.381361378616877 4.328257642040951 0.13799573465190426 1.2278346855474531 -0.7406484317002471
Ni 6.009018433211826 5.227387047349328 7.98899525215658 2.2987552022719444 1.9882785547070725 0.694492759079791
Ni 2.0982641425471344 2.898618557238239 3.633509370102968 0.5685950932430014 -0.3949628403344101 0.0989044250773974
Ni 3.5747401688783507 3.1741132417226994 5.382992855030138 0.5774432876622507 -1.2899108860529076 0.0071291548456135275
Ni 1.7187373346448986 5.103649853884975 3.6903980082849475 0.12803553811539886 2.3569721769323086 0.305742475313996
Ni 7.419036885156794 7.297649248251324 12.704374460117252 -0.033861685744451364 -0.4119583464511421 2.216587373222937
Ni 2.8434315119703886 2.199249184802607 1.6153017783221526 -0.48653319364423947 -2.209192880531079 -2.281439593811632
Ni 6.474258165736787 2.4148760668120652 3.4205982450691885 -1.2321130012078327 -1.0528706012013156 0.6000186018596053
Ni 7.2862226938926895 6.830004891435631 3.729917366046271 -1.1387181930947552 1.3845403379040349 -1.9553013284501035
Ni 1.8438053316289325 7.456253493931305 5.0422539218511675 0.7410122427975689 0.09769857769475432 0.6479935870769872
Ni 7.744147596037063 6.22871114942279 10.600478724193044 -1.522821722117158 -0.5742106396575659 -0.15949555639689306
Ni 3.7407051347154594 2.753248923112598 12.36739757081909 -1.1112384996172475 -0.3350715632954165 -0.06933391050913221
Ni 0.6290295229540415 0.32840284344929926 6.06735627053696 1.0045225489152314 0.5238959505634139 2.095505640717552
Ni 4.600284895009996 7.497948944896188 13.565582389683454 0.0979384616197023 -0.6660167631272852 -0.7456744241599286
Ni 1.678060636719219 1.4887744864441246 8.701891095125351 -0.49487025275502516 -1.0031079279558917 0.552484560834384
Ni 2.570873773184533 4.264720493033755 0.6002740711781057 0.7228481702940326 1.6572078850409329 -0.09264404598998238
Ni 2.1302584947513132 6.596453462709373 13.01084474376669 0.10352855411297009 -0.7144437482804211 1.0918508391192552
Ni 7.891389533045565 4.408548230667628 6.475286096731299 0.417846429800803 -0.605830580555692 0.4485299749275888
Ni 5.529268353344692 8.613676259885624 11.259131933495171 0.6153770865935466 -0.3394547799647767 -0.20063680652189317
Ni 5.709303124669182 1.3942966145021238 5.860651278882546 -2.149084859495589 -0.6297708934213735 -0.375231937564386
Ni 8.48673596001873 0.549867822830266 12.85329045617396 0.49872562194537334 1.9204222571847316 0.5690486358406522
Ni 0.6075696278525468 3.898354873043393 2.078655441031292 0.3593350638284714 0.3860665662860448 -1.6767544397142928
Ni 2.0368727994909808 3.517359592291855 7.0603807476252705 -1.9587658899599363 -1.2922770722922388 -0.08994875854600638
Ni 8.181945242190684 6.666756600369731 7.328299947798392 0.8333742387707583 0.010058669787582677 0.2446551210843722
P 7.646833735904847 3.9513667429032138 2.5250161194874083 -1.1844696882982568 -0.18549712266697732 -3.5981953679715253
P 6.240110169915501 7.250043194067999 1.5132924762542919 1.6014386005901131 -0.043083975673667736 0.5197148226025308
P 5.632768155354596 3.8166068251137832 5.60020201653472 0.4953808738428565 0.5637727321536935 -0.5081420301632669
P 8.208533778718369 5.012567825406986 8.72629803167629 0.19067943819886515 0.43374227509545293 0.05483880221675072
P 1.4348815328747222 2.4399410627585976 11.323878737011981 0.5911513812769625 0.7024487807020741 -1.2838417970406921
P 4.973221931000986 2.579987482805517 9.894380074925484 1.907775000734366 -0.416662693905347 1.145798239869988
P 2.209702875898579 8.451171383199684 9.65527506544227 -0.006585623637317691 0.1532583172379296 -0.01690037529976444
P 1.5665117679040765 6.259420587883829 1.8214827087284726 0.31104280448098687 -1.0109428506192781 -1.849566253604118
