# total energy = -381167.1532169469 ev
CRYSTAL
PRIMVEC
9.25485008631610 0.00000000000000 0.00000000000000

0.00000000000000 9.25485008631610 0.00000000000000

0.00000000000000 0.00000000000000 13.54540859590553

PRIMCOORD
 96 1
Ni 0.9421437349155747 2.827884216204305 10.511562434403405 -0.19638034523838438 -0.023294965972198593 -2.3484224875900845
Ni 5.5595179919064295 5.424758120353329 6.793293157663573 0.8416434207580861 -0.41892886423170433 -0.4251733024795194
Ni 5.3573087732014155 0.5099061437454027 7.244450438787457 0.42995735413172403 1.0953046019958104 -0.679692717952481
Ni 3.381740717344016 5.295171709977219 4.619580613242366 0.44983429556130916 0.8531331665652403 -0.3555473146512651
Ni 0.06642853719158665 4.485242762851467 3.7208560073283286 0.6590321042793359 -0.36923741054384795 -1.2317584460818916
Ni 4.946236098606671 6.127358571469102 1.8755518168705718 -0.6975408018774955 0.09134923843795881 -0.4111967856947692
Ni 1.6064661262316344 5.8858902788592555 13.465761471491751 -0.9092845169458276 -1.7746489354699373 -0.8732664469800058
Ni 3.557573613411413 0.23198207131035165 8.90248921691317 3.3132513174601197 0.4509033602557719 0.603656969943141
Ni 0.2282643980459549 7.759164477132945 9.717733224421652 -0.3701491237248399 -2.161145390204549 -1.0169525471484677
Ni 6.735467003591868 6.744508992089044 10.984161352119159 -1.6160085279844876 2.829007434070689 2.6360199165639373
Ni 6.353908045801108 2.624268260291952 9.277385608154166 0.4687365317824508 0.7051736358324048 -0.5169997376642128
Ni 7.989563969085039 8.947848162484826 11.223834203819637 -2.303608673709504 -2.0622304236041904 -0.19619419736950724
Ni 8.391909320084249 4.083249096154091 9.397073030918627 -0.42091427009284926 -0.6494102649188558 -1.0524805648517488
Ni 8.182490573191622 6.581429279388186 13.186035479752297 0.22849393794347747 -1.3278809375387777 0.048476607444148764
Ni 2.1311420851690976 3.228471145694342 0.312817633572106 2.7993978387343725 1.029679250686517 0.4529658992117554
Ni 2.8597579197706042 7.24691778181033 8.52737626218104 -0.8832906639852273 0.9097347171093687 2.900990095056578
Ni 3.1614290119445534 5.627078397258922 7.169002124738809 0.09460785458457255 -1.5515923664919473 -2.1449225005877834
Ni 7.833416139070348 1.7112865578785281 5.279716110396581 1.2809626757206842 -1.539757321530232 0.45759774155681193
Ni -0.020725311198132985 0.9303438011040093 12.337523988260243 1.904208623539346 1.715108871122775 0.5251393360522117
Ni 8.759400905801614 5.6382767658173485 10.986206673979831 1.4935034327690149 -0.18431390099215353 0.8219174030840684
Ni 2.066598760932347 0.521442314330592 3.2651203518855563 -0.12366440563089669 -0.6738280316415879 -1.1576325135007546
Ni 1.6568032556442651 9.249732116209886 7.966934935231973 0.5579250151236649 -0.4143893244901379 1.607022522435794
Ni 2.009644413735191 3.561840099283673 6.934355582099557 0.7332238571014018 -0.04804183389957532 1.3262164053521612
Ni 7.684709208494478 9.196507473582189 2.966241447971175 1.841722332079667 0.10727233742611848 0.8582658598061154
P 7.360419262802517 1.182288583968515 8.011932941651748 0.7404797673328667 1.4230271811253234 -0.9192287726427331
Ni 7.922049837982788 6.498246687154187 4.407161443964084 -0.46241958842548747 0.23503045351041457 -0.5314665638218202
P 3.7982830083172985 4.919980089019681 0.26331066420880656 -0.6693671676567569 -0.30829583786346904 -0.07443009408511697
Ni -0.2603046889131231 8.696699296724473 5.019792721305448 1.1475059665897138 0.0009029714302436063 -0.42931097879697677
P 4.100055903841779 8.967042721484972 1.645103274213221 -0.08947541845401365 -0.399557401683628 0.3024198386986663
P 4.985273056110343 7.997810040478063 10.070564202177525 0.02515258800622765 1.0738983684058923 -0.03290317848592397
P 0.38228731448955966 0.6747655641105462 1.5947689212556049 -0.912706655253499 2.4831750327143425 0.528191235504658
Ni 5.976846945133817 7.631678917717796 13.198090847425195 -1.0186664445157811 -0.5949437584398594 0.30369047788097375
Ni 3.4365664490300656 0.6256343416592072 5.607785736848263 1.0570347598813343 -0.8514511508771272 0.24460549879335938
Ni 8.041641010306748 2.5564394642880592 2.957125420673613 -1.3295097313914523 -0.08206061404718126 0.0289652768840985
Ni 2.1400267412154528 1.8222151905572914 12.042816245262623 1.907998429599082 -0.3523347212512384 -0.35086970666993766
Ni 1.0103057055212055 6.613978587008011 4.113035831034502 0.5763276860005687 1.6745209223980841 1.4032803375156995
Ni 0.7902559123781097 7.698137995914542 12.201080659483358 0.3806099140468477 0.3580937352222026 -0.46789089595270383
Ni 8.027286737881855 8.845433991850486 0.3024984757682665 0.6158385996109975 0.676243583061616 0.33363380240762536
Ni 6.964089564334692 4.960618135581708 2.006399663308262 0.11918477259298829 -1.671960360759759 0.9678431912163268
Ni 6.3308727240309235 4.5973097420861695 10.741373317892428 0.5032296804633141 -2.031365101483902 1.7325442929904031
Ni 0.5819949472265213 4.98431980655537 5.941273152518212 -0.714997306791046 1.295180104871647 0.05820360492392557
Ni 1.8318865088577507 5.5772502845989465 2.275384476081673 1.45605171568046 -1.3152935877920702 -0.8169186643178964
Ni 5.8872044675661135 5.3525795448267415 13.025034406372285 -1.0575322683430433 -0.14471351299171206 0.4964021160185193
Ni 6.014042187477881 3.0504078307653075 0.7903475353935877 0.35252781109865094 0.39574008482006684 0.22975454982345592
Ni 0.3868953043286015 3.5247096408899474 12.63328770964837 -1.106874823331913 0.3893184975644392 -1.8858735726755844
Ni 6.124841252255967 0.769901720666913 1.6853063428229782 -1.0596806821446136 -0.06426112397191514 -0.5126879976627363
Ni 7.2508696027809485 7.348526780490469 6.732908037553517 -0.25019250596283366 -0.49073617598199354 -0.766689335848699
Ni 3.992597839931124 7.178283813852237 5.757773538670816 0.04381314053020842 2.0132218549159715 -1.1305839940233948
Ni 1.0433362653435403 7.285778897163086 7.131305269522128 0.3393943590404864 -1.9173554453339499 -2.6744388826617684
Ni 4.015096380398508 3.825547796559551 2.2544842482176275 0.15991233221933748 1.4166611296979796 -0.789087501038241
Ni 3.690278908253794 2.8505771085227036 5.547806904655328 2.5113975178951455 0.4576334798907538 0.5067014410619983
Ni 7.442694879731785 6.559921007875968 8.988055858519607 1.2643425506655 -3.3731870745838037 -1.9850325369659492
Ni 7.407794840199696 2.4161544472561314 11.61563457867383 0.092115427180022 0.1192711616592075 -0.2827863807384549
Ni 4.905200093492567 3.092785789136412 12.24117544634755 0.44838779292276965 -0.49124705418014103 -0.47799610270750587
Ni 5.594186660187311 0.8717615257833601 10.52322447094925 0.20920860735130423 -0.9839724926780216 0.16008073947640172
Ni 5.7460032203794045 5.662515218093811 4.178880387188041 -0.5741813290815273 -1.1473846105205014 0.1613477791142834
P 5.674694600757356 3.305582556296666 4.002492200117747 0.5870648699124148 0.9404719982922254 -0.20195578244363283
Ni 3.0816522045283237 4.00337048538733 11.289298385636192 -1.5917506838783877 0.584455971534658 2.1791873353079243
P 9.048281795208831 6.207394514686684 2.190238004667427 -0.8887200625309145 -0.18252595585379533 0.2516415797045344
Ni 0.613832556877632 1.908655490008288 4.317043267103897 0.07398477901758226 0.8888643014182628 0.5196454028171761
P 2.1683003081129684 8.39164092943285 4.930379764018941 -0.9906432198299776 -1.5126262696413948 0.6064239911653169
P 6.737095857200367 8.75104377620801 5.150655375503216 1.7490037240980074 -2.276378120128325 0.02963144971318768
P 1.7060298030511014 6.040150119464097 10.593890803977947 0.011752512550237825 0.2857305509684434 0.0762550631089977
Ni 8.252087045554736 2.1606002728727938 0.6513554209134053 -0.36142511358828083 -2.0256839919387244 -0.6512871702265944
Ni 4.9896598550332305 7.654732749188079 7.808589078330813 0.5656815191406322 -1.4872476816672902 0.7678113652682841
Ni 3.075895687798289 7.559352264590437 3.0791830105354405 0.9902261868972171 -0.24381334190936718 -0.15646551132131764
Ni 9.111131481886746 0.7540527899592222 9.548537906808885 -0.5092969697033164 2.152531166172977 -0.7025307988929191
Ni 5.668169931473314 7.898412950959465 3.3566471169230914 -0.694536724943849 1.0411887939880133 0.5031515189272109
Ni 7.609532061552247 4.041222822084822 5.143286663894769 -1.1734285999927467 0.8111989882252998 0.32010028669756485
Ni 4.030079982626685 2.4711375113930023 9.776249790306958 -1.0557913743925367 -0.447022794254443 1.9377088121793207
Ni 4.026840785109784 6.560420769778576 11.290518174872556 -0.5961197810258314 -0.42845480144426856 0.5796084136343695
Ni 8.925432915667875 -0.3442193397859424 7.294825513085286 -3.3456461888510574 2.118565093640177 0.7290087905787896
Ni 6.277259377701199 2.717112915976363 6.6513913183282085 -0.04194266298037293 0.5477714716294309 0.48509928941119035
Ni 6.114179665000341 0.4495497136704969 12.721265239692388 0.2493419850370803 2.4850478242570233 0.07601363652215297
Ni 1.5931483970121498 2.794224326578687 2.4228133118658732 0.06661136937164658 -0.04389361605915666 0.40146850266341183
Ni 4.448260382058514 3.4088759376855924 7.858693911007234 -0.5521690864764941 0.6907209507421846 -1.0471753505887513
Ni 1.8768373155422786 9.069753047320857 10.40093643532122 0.5802599311754395 0.7419422108110061 1.6008315631337335
Ni 6.935815997437176 8.617116841159257 8.977124955127575 -0.5920183572629482 1.503361042289385 0.860174389682738
Ni 4.276175700260673 1.4481619161556922 0.3375262322310215 -1.5466563626429104 0.11330183144965003 0.22140103565243804
Ni 5.734018189566873 1.1544592498733173 4.751431685425291 -2.3957508403624033 1.3701190202723823 -0.8590161077085786
Ni 7.1574418915434945 7.148927429499072 1.6759737520342861 0.19645285034753263 1.0337657620510647 0.698869290880932
Ni 1.0729610403481056 5.327582194846319 8.387804794087835 -0.8212987956634629 -0.2680447036529061 1.0846877457119126
Ni 3.293014469931092 4.944977439000104 9.32414481253813 0.5693617962056968 0.6464393552159899 0.016765135273480804
Ni 8.941795490553245 3.0050683203787516 7.0624538125879015 -1.0514791201704279 -0.1678318441767303 0.6619788456124857
Ni 1.9596682234744436 9.41246014460891 13.572905795985768 0.6377055748874179 0.38814504608162825 0.17684253231577285
Ni 3.7462429864957834 9.121617226991455 11.990937257831948 0.7162412065004761 -0.4393269682720821 -0.45485386026308755
Ni 1.036385872957277 8.028212222886683 1.5372139342903155 -0.07859116744134206 -3.5285531821933556 0.7216261249614734
Ni 3.9669063761970804 1.936780979305031 3.3653836953686738 -0.20285438299850228 -1.3876362032205392 -0.3209135266274795
P 7.635103212235663 4.222442040880321 12.91251301400021 0.32349131465698483 -0.48314602233956144 0.2841750335558655
Ni -0.20634521119159294 4.1403885403522125 1.2236947830845493 1.103281706664016 1.851372196464605 0.6787578648430375
P 2.298534557992457 2.0416291755020697 8.498592753045864 -0.44496719727699496 0.6093931010959698 0.619032938178579
Ni 1.392262621864041 1.4329561975263574 6.41078465225786 -0.8046689004162657 -0.035602836805274166 -1.4629062767084482
P 5.551392233564035 5.10033860676069 8.988882316628919 -1.5814423599738443 -0.17201914278520053 -2.128400077452728
P 7.9283246263155265 5.125484034341885 7.3447942994659945 0.8111622214500933 -0.48223816581331147 -0.8146018432592615
P 2.226744686167898 3.661598127954154 4.3923286957916945 -3.106803303573088 -1.069404594300597 -1.5360410490209095
Ni 3.3609358144354675 7.200356631217399 0.3480712083760393 0.9158092054382229 1.4972988952557051 0.09075119984264371
