# total energy = -340875.18325850234 ev
CRYSTAL
PRIMVEC
9.11678942007418 0.00000000000000 0.00000000000000
0.00000000000000 9.11678942007418 0.00000000000000
0.00000000000000 0.00000000000000 13.34334285547614
PRIMCOORD
 96 1
Ni 3.8851835786400764 8.178571398284312 6.8347402449253645 -0.41462715153255686 -0.4552600945625708 -1.3079613157967152
Ni 9.00786190357658 3.4330546467781162 5.483433324338648 0.3294092228033165 1.2810691193915615 -0.7285336507145841
Ni 3.326160292210305 5.834116094919766 12.534962613758976 0.983665502960564 -0.8158794244201046 -1.317412691017602
Ni 2.149346895509046 3.612828615027385 11.11773948315979 0.4250727723459131 0.37188513257934014 -0.07297973479183562
Ni 4.532074480364055 4.0043947155551045 11.5109949247452 0.8979855469932405 0.3294007381628843 -1.1905282357875109
Ni 4.945256488327192 5.867137105772185 9.28193629365166 1.556460750327842 0.5658638103547674 -0.19122296940716102
Ni 7.438734829624826 7.807144285325061 12.516495645348524 1.4435389279254298 1.1413324907891507 -0.05019847523126193
Ni 0.5065543406379875 1.9361963616245739 7.135232355361309 -0.09046092229573452 0.357038811595127 0.2759310483795184
Ni 0.7236661194742475 6.8211726390858916 3.3084819260744887 -1.5185812016732492 1.121044944184708 0.503689650818868
Ni 1.9536458963489058 0.14700366910265913 7.6908094954348645 1.39559171062219 -0.5022169229280834 -0.8324288441383535
Ni 8.664231881199612 2.8275357349073347 3.1899262863102855 -0.23527059454567867 -0.05791461292859704 -0.5376454389390225
Ni 6.867358293690628 1.396865340087465 1.9750284139781888 -1.2171116427029942 0.3147454501435547 0.15598754324363456
Ni 1.8256644081252007 8.201563940904357 5.212390266706536 0.03519660250579099 -0.23759512891379728 0.4628407351233061
Ni 5.45738301058666 8.179975383836844 8.50231132144076 -0.920336403884615 0.03057941544875379 -0.9560336001759084
Ni 7.332943606562575 8.0716770437165 3.5221885841063925 0.060548708117334434 0.4992550120862821 -0.7088197172254245
Ni 2.592295220543732 3.8694753506724564 2.8948513720776847 0.5334920788922812 -0.6221406305696253 0.48041936743701785
Ni 7.21670454296005 1.2122412399294478 4.6237620303758655 1.0746892397383039 0.023178494998992338 -1.1417916898137561
Ni 6.933017410244776 2.371532167591958 6.624528963911908 -0.20592505150402599 0.31566744773719185 0.9976219651406562
Ni 4.16396587871079 7.645658596415923 2.1238463241519776 0.6810214640662335 0.9804048299314212 0.8329062979954042
Ni 7.536111256161183 4.914350572592873 9.934185132448516 -1.0769759788899516 -1.220316522793537 -1.5654732382390975
Ni 8.285338117801894 3.966186251589757 7.619595519158911 -0.41826192007166674 1.1944784786845104 0.6654650043888733
Ni 6.755385887481514 8.156727571116338 1.3891224509331417 -0.9527798691253011 -0.2439696649815734 -1.2223631209099206
Ni 6.097098999129837 8.517624792431596 10.739549535896197 -2.684299577505932 -1.291897320355317 -0.41977064340670933
Ni 5.808397632298376 0.6663561585630172 12.772688364886347 0.012888425926893933 0.5572770971270209 0.3797961598963007
P 6.828821625310403 2.6471235914069147 10.639434425853471 0.09992386748084725 1.1258979014016353 0.38550683712783285
P 4.801083582302853 6.568382305315633 5.020152735802286 0.5108620001975912 2.7398526321808876 0.9279746371561631
P 1.7088418700073382 6.718927847062181 6.974111338024256 -0.3420217693610045 0.7099273484673063 0.5156581360346539
P 7.775153471663787 2.8337716187900113 0.6081709858787794 -1.0609214965302503 1.5604148498795836 1.321605646053027
P 6.649922868834142 6.192706768541576 7.563940255506023 0.8742414092987653 0.1055980350474891 1.965989404291569
P 6.993324971478557 3.5250977515727113 4.420542415078234 -0.3433206906780861 -3.310141825296861 -2.555866289731482
P 2.0591089149962785 8.157803352253994 2.1993433680420846 0.1925108349806491 0.26782024634692586 0.006309744268111714
P 3.906516865607128 2.0190497428025926 12.407987619074229 -0.2844768810670004 -0.9487198401233146 -1.508593751443234
Ni 7.682417490882227 8.159891097004188 8.858084907168204 0.5938083592838354 0.268758184780163 -0.17914958318239468
Ni 6.817908828515719 4.378638916408723 2.219278139530185 0.25134590284098646 -0.9832839512514292 -0.25742373360395027
Ni 0.5984606935930501 4.680067321105997 2.1079812874083608 -1.101707934418993 0.14236018226818709 -1.1908581083231038
Ni 3.5314886208735246 5.683871407220189 6.409340827618404 -0.31168275205783097 -0.8055024520611547 0.9447279453551019
Ni 5.125969485874583 2.243796832679411 5.00069750743148 -0.603340981364619 0.4393629637163401 1.1053182774780705
Ni 0.3717863144577557 5.390329025269281 10.873610099226582 1.8297204225227843 -0.1999624061626879 1.4336399236441633
Ni 3.0013382061636897 3.3116281300626635 0.46771225981614006 -1.4224893063439825 0.725068574984119 0.002579844912034267
Ni 3.372263895711322 8.085917468606473 13.406189438162246 -1.5295880943067142 1.0214995430892022 0.7753524108403357
Ni 0.16886025977565458 7.9629319809203505 0.9963100853078173 0.24990917039445992 -1.1327300938321203 -0.13995671503301702
Ni 2.80027653489388 6.279170398283251 3.9340039853531366 1.6710771868238576 0.2889621705318636 0.15494470380141703
Ni 2.914236401170865 7.298947099254825 8.868012179039326 0.03530304617666823 -0.7285213094194098 -0.412773900373902
Ni 8.926913931362712 8.485643095559624 6.836634713742353 -0.031440477897468434 0.7085029573159539 0.4087604083391347
Ni 1.9465256839039198 0.9733175426877727 11.223325578462743 0.22577679612263052 -0.6988276390097191 2.174184225666378
Ni 1.755456013709276 0.843858222918188 0.5635907978701532 -0.7733037558414231 -0.003052413673078614 -0.27215101251179585
Ni 6.569357801770965 4.696960731682897 5.934678839317228 -2.7758830434418837 1.4021343968367141 3.7668502222701834
Ni 5.780728176766325 6.5254969284382796 3.201508255439748 -0.22813526905247808 -1.614619103836129 -1.070796332441801
Ni 5.303856278738305 8.865421187519651 5.07696856673334 -1.2109376526817983 0.8453175271755636 -0.7978019980931035
Ni 8.36598523596879 0.9711021628873482 0.024836869095871145 0.03709047709439419 -1.8792213574663894 -0.287751180942898
Ni 6.535498046302746 1.270944246246048 9.082199291867452 1.2459547921869316 -0.9900855475542949 -1.8553831173962112
Ni 3.4347959535348287 4.138174481774983 8.75586108375989 0.5740201209133147 -1.192256017111895 0.9680915597817069
Ni 6.13672056543702 6.009185799889121 11.472873070278222 -1.0076909193408838 0.6433486321058082 0.06799359443115387
Ni 8.376961850288588 5.909302256294669 13.353617472651347 0.31847509238931604 -0.9110359524192955 0.8379461744121569
Ni 9.029815132216179 0.5646592855763662 2.5494991882015383 0.36918213182588033 -0.5531599896348537 0.6880418612481247
Ni 7.8904717395467925 0.6196626987941505 10.971683960144555 1.3116863300567863 0.5301283046263708 0.4578324832754373
P 0.7289866777109875 8.642880360653956 12.347155842455576 -0.5653058809687683 0.6044241871264687 -0.250069350121408
P 1.570731628868935 1.985700527535296 2.431584458725277 0.19644076616267458 0.6917841018993763 0.141378277970892
P 4.585982055507719 3.704160610256412 6.97133618736068 -0.003605972183703467 0.209830042985387 -1.4809752183950173
P 6.732913001851693 0.3331192759905096 6.9454636510000825 -0.13157800405101855 -1.1329784623975003 0.2526021438455908
P 3.118251912174574 1.0815338317043974 5.960004368319695 -0.5250169515417346 -1.2863717625513975 0.1297795173896991
P 0.5282431823878232 3.9129077349079413 9.169425085194788 1.0575878041713271 -0.21930738634820293 0.45638289531310433
P 8.075214357965738 6.252677008571177 2.249193971946289 -1.1642906422472208 0.7344726419068383 -1.7017167660865855
P 1.2823311160844444 5.281775415048477 -0.4178224537179366 -0.1376108405086598 -1.2845925591637877 0.5039819852483062
Ni 5.70257905886822 5.678164297117037 0.48662595090239863 0.1654990822784956 0.5063247744488699 0.3050814446912294
Ni 2.4028209884769667 1.8402239206407485 9.310824663913408 -0.6546681708836853 1.4446097923921057 -1.918670050380315
Ni 7.729542174785086 5.522540703729188 4.271083594616504 1.806030277994696 0.6302863996052113 -1.977440326440988
Ni 1.01680462765907 1.3829987035588815 4.827034523051448 -0.3230513989060888 0.0015264639468554357 -0.16530573532076692
Ni 0.5936643507411844 3.0167455800843386 13.028613050818688 0.3979576612966759 1.2391542243253304 0.6419059861220107
Ni 5.887111991133215 3.680976615061022 8.699219383504508 0.7309363466188057 -0.208388425442854 -0.14503952887256313
Ni 3.390269554583085 7.8461641435383 11.289521673906787 0.6896387734215995 0.12279151610764014 -2.9778686506821876
Ni 7.274267950613881 4.114142625174492 12.301361298111901 0.08117049813274407 -0.791374754410521 -0.8024680361102051
Ni 3.982122399289931 1.0982449064952544 1.0980333969834444 0.9954668664708664 -0.007488337957245168 0.8870789273830658
Ni 4.6361608638268015 2.0328707953846656 10.029657061699654 -0.4300689400089238 0.5580666829078518 2.6931562565656137
Ni 1.1438015026381418 7.775098770927973 10.402603031756643 -1.142455291539684 0.22359187265616975 0.4257577142280796
Ni 1.7711460080982915 4.208674613448576 7.293898221339289 -2.292018397768743 0.3071997765858128 -0.4078085859488267
Ni 2.5555272092881256 6.132845929983603 1.2558568716299054 -1.3579589878710807 -0.8081211206309243 1.7925728669382095
Ni 2.907006787254253 3.15248545600418 5.349025411335851 -0.7960932429321128 0.8791334472837439 0.4096073297204624
Ni 3.1956261029819957 1.2247221244841033 3.7773939553627924 0.08955846508612318 -0.47379003504595824 -0.8021631032752766
Ni -0.004839191761585877 2.5930792644237175 10.811856615209479 -0.04781969058644023 0.3644659572971336 -0.8447367149714291
Ni 0.30945391431996594 0.6976550079162585 9.056700543868244 -1.3358536713316091 0.18607536376795053 1.5333339345023915
Ni 5.42875629217788 3.1270587306404596 0.16112466405277284 1.0088134629811014 0.33774756746568285 1.595932326059903
Ni 6.872317827071003 7.427083572896667 5.723773770637878 0.17507824132649846 -0.8063807409010498 1.4521539232879506
Ni 4.360751775797887 1.6727211507921853 7.756018242597485 0.1526890749980209 -0.7458140350615865 -1.5091074578548591
Ni 4.47335324046885 4.653774500758572 4.268241891391021 1.107872411358492 -1.0506021168821131 -0.2519611678274822
Ni 0.10934859424795276 6.345987347078772 8.609938665868466 0.5110849148416746 -0.5926495630890438 -0.6649243013940549
Ni 8.798586005145525 6.148171252800531 6.180929700121048 1.1503115543593092 -0.7673920183426783 0.653049661443656
Ni 4.838617403859841 2.859070709103502 2.80792005104481 0.3454721898034501 -0.5953505069599747 -1.3288628418360726
P 1.2590741865746375 4.853368368950734 4.374962115283162 -0.9109513631252892 -0.4426202943113732 0.29250617912938015
P 8.768008293826085 8.724803829323154 4.728667101517946 2.312477179843727 0.4351003317852442 0.5237553112204916
P 4.222732702552505 4.702731659311164 1.6723874763037263 0.9210285448556332 0.018866754997515892 0.7750341082689685
P 5.06763115113007 0.40362852445340563 2.964957658453425 1.5493711904709124 0.08829528210298343 -0.3435430911015374
P 7.991686334379359 6.971800231936159 10.585526850709806 0.12593726082547343 0.06838954431799191 0.19638497322407467
P 5.31802376931386 7.615482023825777 12.828129383990635 -0.1449459407174923 0.03547608141942278 -0.4423117619320189
P 3.80487378167736 0.10922278255558297 9.5435726480818 -0.4639008009567043 -0.5177828956871405 0.015189306145928679
P 3.073880498640967 5.5721725046901405 10.291213188383937 -0.20210593486825193 0.8335264480779064 1.4460511528243223
