# total energy = -340867.42504874006 ev
CRYSTAL
PRIMVEC
9.26327018396828 0.00000000000000 0.00000000000000
0.00000000000000 9.26327018396828 0.00000000000000
0.00000000000000 0.00000000000000 13.55773225993828
PRIMCOORD
 96 1
Ni 0.09493740481488636 0.6352852678704046 7.254403241192362 1.0192236025708319 -0.4872729000237415 1.6337895061169927
Ni 8.119098956401338 4.1767715324148185 12.045204541410433 -0.023211919340089055 -0.5173334668545477 -0.24281498255183986
Ni 3.0398162603664307 5.120337510075534 4.288974746771745 -0.23149441533269807 1.5513033744966185 -0.4230457146135553
Ni 3.797931566300307 0.8987678760853822 12.244096218365824 -0.16747600349920835 -1.2954801526105688 0.5817092620274563
Ni 8.184951545077967 8.480857452053097 8.977984748468101 1.1509463597298308 0.8780003621205652 1.7620914105199008
Ni 4.3228440420282315 4.0674464161450805 5.927236902801729 0.05017224997901682 -1.4703023120622032 1.028171555792739
Ni 3.8139848137579797 3.2625701216559055 12.25749183356983 -0.11802263396408706 0.8878772549146452 -0.27721300041573554
Ni 3.3175198411705713 0.41786797660999203 4.6717775399274535 2.0272652203829153 -0.559264816981011 -1.4324289340551974
Ni 2.538701126080377 0.7650247792626003 1.9711451854526274 2.396422926728763 -0.6477621877924715 1.3289890830012918
Ni 5.1136123758261 6.774572323111441 10.821700682145352 0.6806517394316406 2.204284387485868 -1.3494103269701212
Ni 6.103068594632407 2.9242476999036913 7.782084508417746 -1.2266329519298682 0.9117394062442234 -0.15823288763438556
Ni 6.666497748334367 0.2854411904991172 1.456127735076282 0.8363037537127275 0.3279673481504674 -1.6242054619729833
Ni 6.177702763568628 0.49532003237634786 3.5940460603175453 -1.6720524062529332 -0.9133684572072142 2.400189335749731
Ni 6.59614321028415 2.958160532530662 5.071188450432764 0.9850618690874584 -1.0950372072670367 1.1481531132554097
Ni 1.5360169572627842 8.565431110038414 5.658495536028344 -0.5228274000895834 1.1601689067693632 -0.13417713223676245
Ni 8.572962148805344 0.9299674968367891 5.236158957817901 -1.5797220348486276 0.10611996898923014 -0.9496212688916612
Ni 0.4113929506590899 3.0158892331401357 2.641032473261515 2.5894022167053987 2.2299871915686107 -1.3922906712734149
Ni 6.48251067331746 2.523713154709047 -0.06561359630247472 1.184356045538528 0.8995991713372636 0.4695883382597848
Ni 1.191200983019036 3.8211175319013195 6.761241550799648 0.649078849721366 1.2143603052101022 0.9385830087996287
Ni 1.3051392079061546 6.277671976819179 5.758687994093512 0.7597198465094013 -1.960750524490133 0.1675189409220018
Ni 6.739334842829278 8.841754463565467 11.097315395493228 0.5485823975665004 -0.4472300251692427 -1.2691281449796015
Ni 5.993456316982871 7.141397827626067 1.3877425682952524 1.5647237616675826 -1.0933274236647816 1.0065128398723826
Ni 7.869759509304869 1.7297582559224662 8.943859786950894 -1.2430695002193366 0.5232799142459698 -0.08528760562491118
Ni 4.241808953303637 5.298349775738604 2.113229857194991 -1.1814923508374877 -0.6504096527176475 -0.35308522626401767
P 1.6754662286002384 3.4745507995678424 4.650695263015209 0.7325936797165705 1.8976247996742417 -1.1674541275768668
P 3.199459460992821 7.91189812597247 12.21386275670838 -0.22461697148657442 0.42467065181148794 -1.3872353682376948
P 8.1598851356028 7.559801221260325 0.4652699834711598 -1.338582897337314 -1.3652969162933906 -0.66098768534381
P 5.582741437710915 7.813818619866388 8.79208110282281 -1.7678599375725619 0.3110577168793223 1.5821414429233978
P 4.783071101139346 5.22202042833455 13.684361529352945 0.06444135830352127 -0.5022801720658511 -1.5268308432765512
P 8.71536640337361 2.9363177411254733 0.7485519056596113 -1.568829299195524 1.0233196270170763 -0.150303862595296
P 6.926425113402053 3.4960045336197583 10.235111499999263 -0.21152439996867442 -0.05668176896276045 -0.33152446937410646
P 4.715569650346466 8.853453973974608 1.998585771109791 -1.4411760841202081 0.04551881036740548 0.9507954917054205
Ni 8.267839287865765 9.498650014756128 13.131775959882924 -0.9223583194106502 -0.6708658636894704 -1.1881265683245539
Ni 3.0226143673895707 5.630308330783708 12.147457150793885 1.3292780749966204 -0.3320158071882282 1.0717370990885156
Ni 1.2966355257560427 4.356071392651816 13.49676363156685 2.138731798396039 -3.140840338553139 -0.1460312033618711
Ni 3.695933696850546 8.25027612734658 7.196037227585146 -0.696636287785355 0.5663183813936827 1.3527648452646508
Ni 4.118412929423855 5.089713138410753 9.952880958991681 -0.5419756908832601 -2.166868151620939 -1.3681876075776243
Ni 0.4793770178354356 0.7802813854730949 1.1738406881197716 -0.6470787885722017 0.8595167014940811 -0.25606824801732025
Ni 4.2873935065288 2.6605965001689618 0.973975441454165 0.1470814990032564 0.09522543356391341 -0.4492349714144134
Ni 0.8818059018097072 6.823510180191006 8.334561697625068 1.0588679564353312 0.6348282533396228 -0.40932707947588215
Ni 3.850269043585853 8.726584223726316 10.163554589462025 0.2156589909623383 0.8247222195227152 -0.09481405705810768
Ni 6.9728618874962915 5.121347206539981 0.2693935010036339 -1.9322542168226526 -0.46279265549419 0.5227970610722802
Ni 5.89022643258108 8.225765514090375 5.601485665195394 0.40356883683586625 0.7837743163554437 -0.30248283072611776
Ni 5.508301797451331 4.5748420477054 3.928000850115753 0.2625937078406639 1.4450779902777757 -0.5221635412533394
Ni 5.510043292270744 7.690978392205568 12.83899640663945 -1.1930294049428098 0.8529318491877117 -0.243171080339678
Ni 4.8916922088650665 7.103881582846162 3.4273544373076903 0.8330960454087071 0.721261542533203 1.8371923054197972
Ni 7.769327132538516 4.336322100338049 2.693650627637637 -1.0346466219941215 0.36346374128486436 -0.12258582785473728
Ni 8.695292896598781 5.235878280727325 7.54731896450948 -1.4333527314210477 0.9105281595449416 -1.0478271252401372
Ni 2.566250092000238 7.462268248102888 2.7997391572589554 -0.4888741830725903 1.216325142245957 1.6049700107821392
Ni 0.3733561100874243 6.4410482753829275 3.4161551434956148 -0.09561084192779017 -0.3850365823596337 -0.5408521188017782
Ni 1.0462030127622823 7.729958233695405 0.5292680654305195 0.2630001992504632 0.6608568161929005 1.1353803869707737
Ni 2.3965377165403274 6.82251901026719 10.277520604160092 -0.21149946026800998 1.2054347205856981 -0.10468220810143906
Ni 1.4205873458547853 9.45242629587916 12.357615743434657 1.188051235001928 -1.5256296238795983 -0.2886605801310448
Ni 7.740740680343259 5.993048733088967 5.250258581565924 0.8577616664761873 1.0569519703595411 -0.4160194038943932
Ni 3.312749256957818 2.730395242000217 8.285808179624793 1.5140126084659604 0.7661807716433966 0.029633249485400578
Ni 0.716670508212945 6.289176958551683 12.328751393129922 -1.0215627922269697 0.13857320442192908 -1.7202076258019214
P 9.019322092253368 7.494365479747918 6.496445410853858 -0.3416492165129341 1.0301304792913228 0.45681921151957455
P 2.562720786009832 0.7919873801714569 7.793852567027225 -0.8262761942733963 -0.5343487704656217 -0.3408192644124711
P 2.9633572271779527 5.820038633396551 8.050310837361561 0.7685225324026957 0.7105968637305052 -0.9176354600136841
P 2.4260041794156058 1.8899016731459222 0.14177157320568173 -0.6497915595176744 0.1176613939699264 -0.9301618746154691
P 0.20657092804737778 7.646505431418328 10.64784947750824 -0.22557162209035989 0.8459207079772012 -0.014850177638955069
P 3.4407769159956123 7.432005143980432 5.03440678298892 -0.5878482850456586 -0.49966484593019106 0.6986129518957517
P 6.963033557690988 1.0640533346612642 6.657931075946106 -0.142551986564019 -0.1637227071043632 0.8276491633615229
P 0.8603354938712224 4.061267814844292 11.352282279306683 1.0160061240747984 0.05072478004837717 -0.2622725770558193
Ni 0.25876204566193095 2.0784370138879975 12.495362425688027 0.6003865267219853 2.569150151324582 -0.02549685871952383
Ni 7.105372969367042 7.26684103424569 7.598471669521607 -0.029491581701213725 -2.611089728981161 -2.8708593371094686
Ni 5.455186205459238 0.7384428987637323 8.834584692340862 0.32519878426639476 0.1994780103271016 0.8188205093262995
Ni 1.920294463052803 4.703286553907415 9.500418373059457 -2.220702938053208 -1.3939338633037928 -0.3078368959491795
Ni 5.7268593972876465 4.81280619885379 11.67160758629479 0.23707062386889494 -1.3744531288713617 0.6315112731512479
Ni 4.799800567330089 1.0012205721076604 6.610343803678617 -0.29894422144524 1.1308179644110719 -1.1098215646650629
Ni 2.987423203458988 3.2354287396299495 2.738377402031537 -0.3143348449686973 -0.3509213858434795 1.227956041616666
Ni 6.401225476294333 5.29488531264041 9.036160865033839 -0.3099976510459242 -0.12600565216956364 -0.4720977349451998
Ni 7.407318528588223 6.578190992411692 11.967993330672293 1.230220155060494 0.7405617855237117 0.10093405391291649
Ni 8.023891064093224 8.262086796999514 3.908002375830485 -0.5595214130765074 0.170192631099423 0.8259594343639259
Ni 1.1985930727312246 1.4795758512272386 4.141087562503423 0.6229366441083595 -1.9234165639263647 -0.6039184511346437
Ni 1.4836609534366059 8.987373072933394 9.400186082931931 1.0742349258097046 0.3023668739735438 -0.689830063496799
Ni 1.5388978343310684 2.3519999128608746 9.771288439351466 0.411798166724194 0.0020926208629705894 0.46819762855984526
Ni 2.5058072531881685 2.1525617029568367 6.043318648439976 1.480009512047638 -1.4015245311668572 0.8102371385326627
Ni 5.92621423775884 2.5061314676492294 2.681298982998248 0.06413822524080567 1.2517783408472443 -0.5856818735219591
Ni 8.85890077692043 3.666254178757999 4.743023204582071 -0.2873400615474084 0.9148262726996632 0.21007121246191565
Ni 3.505517912234317 7.339715181821865 0.6501574483627841 0.8652260931740324 -0.4363326615304485 -0.06339980441288436
Ni 8.579816968839202 5.831154557775783 9.939403827008894 0.24565476599348016 -0.9893928923626445 0.4083904265942257
Ni 4.7674717539271585 6.383597472882935 6.554987426597078 0.3911550365525457 -1.82368912872704 0.27631722807434345
Ni 9.042924905018602 5.485940262908445 0.9064952961830112 -0.21042833869101824 1.7488880244557494 2.239167829626614
Ni 8.26493988425685 2.9022937492547096 6.855941815894444 -0.0023353330013959777 -0.3123869772137072 -0.6160481445186422
Ni 5.716169583342952 1.7216343678553114 11.168873232357496 2.612177819839017 1.4234856088189807 -0.4933959822023439
Ni 8.27726929704748 1.4493220103750977 2.9192103335058364 -1.9925255029088846 -1.371570150896612 0.3299285856418963
Ni 9.227504829335734 0.9497445789615044 10.434410760848559 -1.4599456514182276 -1.4055285101199277 2.1615577951516194
P 0.6009268719412328 8.792029228509039 3.020621837944593 1.2389642198017115 0.3234211235406817 -0.3282239442459638
P -0.1052946673552349 3.563042820896838 8.664950128351606 1.1969012291933903 -0.9970110710295346 1.1939886835322857
P 6.610501279273989 4.854018488489789 6.539084244118525 -1.8632818034179972 -1.3822145179843357 1.4698045464901786
P 1.9632945638597954 5.904380709623966 1.4782539825531416 -0.33947689145196375 -1.111797200334195 0.08310165371718592
P 7.25551205464919 6.427403478207422 3.1940524901093568 -0.9619648780586787 -1.1569054055267431 -1.0414957837054708
P 3.905172446748939 1.9882405508208532 10.33695745181584 -2.0203145000966947 0.4270954592028967 -1.6464511607450611
P 6.059753542634669 0.5285279301322691 12.91283208167443 -0.2996458754979549 -0.42116958063676496 0.09631480997335026
P 4.664593873797375 2.2397290766306406 4.548076754454275 -1.149839242708581 -0.1251139935932297 -0.4320312059416172
