# total energy = -340892.0538945865 ev
CRYSTAL
PRIMVEC
9.06873579833394 0.00000000000000 0.00000000000000

0.00000000000000 9.06873579833394 0.00000000000000

0.00000000000000 0.00000000000000 13.27301152272359

PRIMCOORD
 96 1
Ni 6.3412772179790435 1.984112425974211 11.478726011951505 1.1922606450975852 -0.47497737048584004 0.868024481854776
Ni 4.87510749850646 0.6122385142500084 5.898884335498633 -1.1576181153230514 -0.5485168344358876 1.2475316497557483
Ni 2.5480789665503183 1.4168085906317176 4.931056157016626 0.30914121658289984 -0.8211360448333535 -0.6909266389950874
Ni 3.390111083558287 4.002667910434111 4.9799674765628925 -0.053112563554263366 0.9705796163108832 -1.14836960014159
Ni 5.019100885193079 4.6386855567681975 2.343522748589573 -0.17798564478128057 -0.07115656554016779 0.09552136753777743
Ni 7.3074059153762105 5.942171225115245 2.5569264251755524 -0.5159838948051888 -0.07176488854812801 -0.49705826154527943
Ni 5.016625120325624 4.580047111226209 11.506347567384816 0.3705065070642587 1.6088354072748163 -0.8233052845705304
Ni 5.734424625907722 8.179582510110992 12.258714373132763 -0.29692899078742413 -0.8540497648422387 0.6724069829243452
Ni 1.8219906364669254 6.669193634983794 0.4397040023221677 0.7148371270640979 0.5886738662707475 -0.9424862005087769
Ni 2.953796067796441 1.612339602745975 0.4209589254685816 -0.604080944854437 0.14372698070872666 1.1804700802205603
Ni 0.19269703218356302 0.1094823126825924 4.869549270347989 0.8068042015917137 -0.49413260325805214 -0.9005083134150943
Ni 8.570662671811062 2.4515694803984736 1.3727218385194662 0.07617253069752043 0.2574494446355631 -0.27358208853136756
Ni 6.85152056780496 0.5119908952103801 4.637616352819945 0.14238229375537415 0.5558725034700104 -0.5943776015237441
Ni 0.7734298514664483 7.475104977387103 2.4306070976471115 0.20327784368916604 -0.16461076613627135 1.2835759449738153
Ni 7.619161845224169 3.8631635479577127 3.985075469897937 -0.2692919457964459 0.28631367716542305 0.07510912243001258
Ni 7.719289756951524 4.028758663268057 12.500575742590806 0.46356038689815005 -0.6463593939076738 0.6449244612333602
Ni 7.8828716129191045 8.825675521894683 6.9536109539547235 -0.28695311052163486 -0.10659330908122286 0.4196035217012258
Ni 7.226041217973997 0.4573825958482349 0.21614062104384626 -0.37795653558440073 0.9095843075744334 0.5094849173444065
Ni 2.0230354399343424 6.39767568578381 9.310287903790607 -0.3805914021040865 0.1958815512250949 -0.7497629924070055
Ni 0.05266305553771649 4.894786655145203 1.2472241384525327 -0.05293412899487012 -0.1469809688696501 0.04983440702362386
Ni 6.423802713560869 2.0939529537200428 7.3449395990151185 -0.30429725822703724 -1.4590218540523774 -0.22587732625623677
Ni 3.3916981123194763 4.698793137506256 0.3537949614214872 0.3223610577072835 -0.13761906803877588 -0.3210397677926987
Ni 5.63065108239752 5.452350668261886 5.0858467805207965 0.7108282630150209 -0.442365755098406 -0.22301851665120298
Ni 5.2705678595874135 2.660776146066291 9.49965398932283 -0.46750625891977554 0.7223987414614397 -0.4894431682021829
P 0.3405564209324378 5.693860170771732 12.294511393870142 -1.371733930167986 0.3511998363158468 0.6611123838471323
P 3.9972176002313993 6.601014879403117 12.718200008807969 -0.013751545258137607 -1.2567873640260612 -0.5545242169722321
P 2.444867684658367 8.61017515359678 1.5890583442561221 0.6779705930550518 0.3835805666393975 -0.6377233154992307
P 6.1797448962973425 7.8430235879095935 5.850636847411333 0.4038354602336916 -0.6854830993820129 0.5261009286345326
P 4.9255931505838255 1.0852556105798992 12.815424111339139 -0.24426174230069547 0.7555834557435246 -0.43281256419233205
P 4.082418372867801 6.175083566107336 8.115889151246224 -0.010793748181394315 -0.775439314127187 0.1603548190733948
P 4.775260717588229 1.1859367151897264 3.7921526261934964 -0.7758974847105282 -1.0749481498266455 -0.05942076516047831
P 0.23617255150436217 5.680266135840177 3.5434162481419844 0.03485824532976577 -0.7388160064771985 0.16080270524409082
Ni 1.3538897018024092 1.1068482704678473 2.711503933388934 0.07049270670392375 0.35617826336704467 -0.047404457425892554
Ni 2.04656880927883 6.3094822303405955 4.816749276900021 -0.0019434968796160077 -0.29168856832409124 -1.1671209126071642
Ni 6.082800110828143 5.617093322409078 9.272393284467729 -0.5248590858076316 0.8590485036084108 -0.04187015787122467
Ni 8.797208760286841 1.9814824925985262 10.350719474039487 -0.21226590612038926 0.9454452831371009 -1.2592157709618959
Ni 2.4288432285382475 4.992602039249113 6.9571151134594285 -0.5460909986032143 1.4115469483998657 0.9815109185114064
Ni 0.8075890585222795 -0.17013764506165646 9.213845526283523 0.3379851373977857 0.3658381550543119 0.500292452211861
Ni 1.5975122197485812 1.3578890142806053 11.642382231552466 0.7237020336538956 -1.0141847545953437 -0.9626215378060711
Ni 4.139551408270603 7.116246033907056 1.6308951430217964 0.5543545241635873 -1.053530603382818 -0.6617842131031765
Ni 5.514797982830726 8.010559412676479 7.99660444206095 1.4720496337706133 -0.12594831656906696 -0.06343759962935526
Ni 5.4514619321556195 2.834106892995459 5.033219093052616 0.30506087586593916 0.43276037079815793 0.2638448066389456
Ni 0.5763888948451167 7.1192568541854255 6.485432028162514 -0.20416641694170642 0.5867612226290668 1.21110091773254
Ni 5.322159897429722 4.213642979578681 7.397646184484571 -2.0279753590760623 1.0208333702601127 0.26566026258112957
Ni 8.192841001818753 7.360285713699026 9.133199072754945 0.31534914516582463 -1.1097475168940178 -0.5734971585303091
Ni 4.807273354885355 0.3640970452655481 10.129471341005345 -1.62510226275564 -0.6455253280421528 1.0953105155330816
Ni 7.8419897520308774 7.064109871918054 4.688053940597686 0.9416091972204622 0.09904634997190039 0.08833590553293175
Ni 7.341304849715206 6.10802026502738 7.055043856760566 -0.001600768828216598 -0.2030824398489083 -0.07318773703758363
Ni 2.283398844127113 5.14083052554416 2.302297182615351 -0.0811653559264215 0.6604621518576432 2.04500968885053
Ni 2.3094079783390558 5.348413887507676 11.536144712531321 0.5985471595204014 0.013227040213235284 -0.7503476612658819
Ni 1.0432129515120592 3.401555828110404 3.700183856045807 -0.3998636200701372 0.43932105473481114 0.014268079883239942
Ni 3.498908706689624 2.7133929510515378 2.925252221934485 -0.00025788164707697523 0.322519951882651 -0.819523191820279
Ni 0.9810649052238996 3.238790158362865 8.09451958225842 0.06245929487648597 0.5665855190121404 0.08956952082971671
Ni 3.356293767841295 2.763379822661101 6.916380166090808 0.825943493524326 -1.1218522705773517 1.1763349750062644
Ni 4.0442571327130405 7.071029317316839 6.031508248140093 0.33268609378237546 0.029044209751149977 -0.36877975418113906
Ni 1.0374724417644443 7.632674261533721 11.36780358402733 0.7307890224076641 -0.6699641778108074 0.535369241310336
P 0.25926699403718384 5.554147227372435 8.107646577297396 0.0792596542632764 -0.034521945036269576 -0.14687478230908899
P 8.628711649527466 1.567104748684201 8.188214132824703 -1.203832409095585 -0.8901346834902542 -0.2076528328284101
P 1.8923730948417108 3.3488936794462654 10.410022657914018 0.18738585504925792 -0.7277024130625404 -0.10479893618496143
P 3.9468407729833728 5.8444646658406745 3.7493998851142214 -0.3924555005315241 0.9552103329436646 0.22185329269850823
P 6.826608750622182 3.909341550540422 10.567321693734444 -0.04472999591752296 0.7032671628383114 -0.9857357552260314
P 6.487873331834012 7.773357559661288 10.286291547576681 -0.9683386427955066 -0.2710030149502817 -0.5975891664825064
P 2.2454733911025864 8.394203211038407 5.715836438183098 0.17493760198357616 -0.16391759672398865 -0.29740875863732
P 6.876541209817076 4.013459706010196 1.30271029143801 0.7916208089830561 1.0879728442210874 0.8183839360095132
Ni 5.173033606292629 3.2001120002687453 0.2307222413016504 0.6905047209663204 -1.060922782081831 0.7285979282936161
Ni 1.279081700367851 0.7235962414915373 7.055946195970498 0.3968929674775874 0.9674441560056952 -0.3504156498516546
Ni 6.935215930302176 0.582285386848117 9.408215740218168 1.4598137538260536 0.8517118607376816 -1.5303056891990292
Ni 2.607733110499466 1.6125300461973178 9.141866063538192 0.07170035385877974 -0.21363039056808367 0.6482234436996062
Ni 6.076252483596266 2.3447669791383454 2.4893797604786165 1.2970207576248114 -0.07929410704563764 0.3195791240867722
Ni 4.317380248145771 6.9200620728167666 10.474078766209916 -0.04326600977748678 -0.3818926374140133 -0.12407038282006375
Ni 8.337841018176753 7.161952462229299 0.5928386746732347 -0.4857356374436086 0.32431998120586725 -1.2936161028186368
Ni 7.501685441953073 3.8372904447824436 8.505332406138326 1.2842259198529884 -0.16050599993927842 -0.6335920669396765
Ni 3.2886954113504236 8.65986275692566 12.288194112527034 -0.3688759134393712 -0.09081599164230812 0.8190601361409314
Ni 0.04112943737497298 4.4876729685892345 10.158433255586676 0.2883862434237356 1.3028293938867885 1.0810943719336994
Ni 8.390330860861107 2.059482689027019 5.994158659837484 0.5710168153106165 1.7080097981841489 -0.5943706595452086
Ni 3.5844178163424845 2.9563897262290126 11.823705255322981 -1.2862987432216169 -1.2310305667769315 -1.411599656014672
Ni 1.0498331286301616 3.4483867796691454 12.638308980969716 0.7008796364427413 0.8159907531869882 0.6018152887487118
Ni 3.239660756997574 8.267540178423973 8.014934170815893 -1.7433382982821135 0.803231653749107 0.09850796096992712
Ni 5.656442566950785 7.501213867692606 3.6773805199314666 -0.2717085256577385 0.16309458660206105 -0.3628417914301493
Ni 3.3230296450067742 8.179002111021184 3.580222619171479 -0.7639639664977358 1.1618092705862637 1.365347567025668
Ni 3.50178349593132 4.3918889812996476 9.305097866304731 0.37453234039420014 -0.388474404396589 0.12727449157965823
Ni 7.128815301695672 6.138681660693551 11.510608059453425 1.7302709235751943 0.29863440351430504 -0.8710483562827644
Ni 0.7451988769888414 0.2974953428367034 0.4208528212599764 -0.4946203415277481 -0.907469832334592 -0.2901399928900487
Ni 4.78505495222871 0.44238109312389906 1.6177146424417277 -0.09395530860223819 -0.8317091923635096 0.501172283713653
Ni 5.987306323083459 5.720050679699239 0.12744203701778445 -0.4996072532193782 0.8979456948942407 1.9311956936511512
Ni 8.212302508798818 8.766429471055554 11.355220713135047 -0.8066985292517849 0.7340309263837295 0.42344680670671586
Ni 9.266071468756728 4.819171536226383 5.713779648908598 -0.9453264981710494 -0.11413101221916475 0.17601977930416138
Ni 8.03529892387947 8.962169064092711 2.5030381834341977 0.2652789679823109 0.6472376827475692 0.5740718000868564
P 8.37347208104939 1.8882649575341761 3.45382348676819 -0.28698910596589283 -1.550766271046226 1.473082960131134
P 1.7426754733505905 3.137909541565916 1.6054772903825942 0.3396401565027054 -0.16005142890036306 -1.1997204438097402
P 4.447271750697253 1.1753897754796536 8.098222347076668 0.7583741311147842 -0.13808752303476218 -0.7887931097262737
P 8.631522957618715 1.8623918543589069 12.447044809039113 -0.763398323802253 -1.654264229031577 0.8657693672720121
P 6.441241892462392 7.915972498509617 1.5973009182049487 -0.6205149220407442 -1.225203161461877 -0.6957916803968727
P 1.4842981222932503 3.091831295076767 5.832493027739843 0.4705267909136542 -0.5614973058559556 0.9812391529072585
P 7.015800716427463 4.0257659804612445 6.208384870758548 0.9248394339612911 -0.06119328367986881 -1.1256909275971516
P 2.7510735482100532 8.451572033571445 10.215918157937674 -1.4863066579102597 0.8434632475756442 -0.6121164135644038
