# total energy = -340860.35333239596 ev
CRYSTAL
PRIMVEC
9.39262063646201 0.00000000000000 0.00000000000000

0.00000000000000 9.39262063646201 0.00000000000000

0.00000000000000 0.00000000000000 13.74704972210870

PRIMCOORD
 96 1
Ni 8.995528975518376 1.3907747552622016 10.963285852015852 0.8816778109721525 -0.35336804761175916 0.4599837252904852
Ni 0.7787262235124041 2.5150902508987274 6.374163098731792 0.01110048078853572 0.6293376625386967 -0.9616244640001245
Ni 1.6550924973442678 7.618721047393662 0.5579376432904398 1.8740590965391597 0.32664374424303744 -1.1348656521178841
Ni 4.236870355960655 6.990899487525517 1.4540800802278715 0.0601545580027093 -1.0839657799442235 -1.8648802582533688
Ni 6.485661021787397 7.867522179905365 1.1448731247930954 1.3361910000663697 -0.5235254545978726 0.6212723690320591
Ni 9.143744531826076 6.085375700927748 5.191944913616807 1.243281873340459 -1.483588230537832 0.1616596539277474
Ni 9.127025666792635 1.3882481402655746 8.64384295322953 -1.0002786860372128 1.860830770774344 -1.275641777728403
Ni 4.8647764494160475 4.250827790477337 11.802131423516766 1.3113076065611287 -0.022929355102663737 -0.007264137761581038
Ni 1.0150699230500326 2.107948316851205 0.12149073233036853 -1.7248201848732683 0.15165523441686785 0.28987208394064273
Ni 3.4554136975801493 3.4095213523254326 10.15275997150501 -1.096365696270473 0.5455143001641379 -1.3484135102744907
Ni 6.979008429586002 5.422200316348437 4.628164120923388 -0.4489524071769881 -0.5090324031880201 0.3819476590216648
Ni 4.906413937445961 9.218350118882608 13.75667288254118 0.9741233677980835 -0.06305939035433011 -2.4011792104668257
Ni 0.4336065824285473 5.241448721571163 8.201365979712454 -0.339743257739473 2.9107572017456707 -0.2869790786635638
Ni 1.2647539619174348 5.518277434565895 0.9065259792376954 0.9345263222317518 -2.050966934875229 0.11515636815988556
Ni 4.57217752608921 2.597097223149839 2.840484449029365 1.1897090823203251 0.22609998379000418 1.1823631834782153
Ni 5.470065111972268 6.486450001935044 12.148844992351282 0.4853821107589318 0.7367141296428474 3.0927152009111385
Ni 4.108557763139394 7.621811219638606 10.938733541230786 -0.9775197950741423 2.651895964364246 -1.0937524270173422
Ni 7.895878502116579 7.661382331091353 3.7848786575678055 -1.0206248537937326 0.3077641337297151 -2.2884515063530912
Ni 7.0636171578001825 6.428769917569669 8.51593987867538 -0.12907889177824863 -0.027889270211100353 0.5857793183317718
Ni 1.343060241571256 0.1888386412906414 6.136160662359947 -0.4635377611903307 1.2068102607769862 0.09312227117798155
Ni 7.239249774238566 5.228176948373267 11.530750430589112 -0.7464565537415918 -1.8990466197224327 0.1420429081380844
Ni 3.811957583349497 4.624710454253277 7.602930173295785 -2.118188941247681 0.478326489463731 0.0831960132032051
Ni 4.351723323167915 0.14153176734264614 4.766912854721422 -2.225675708677451 0.3203157451424806 -0.569110085206207
Ni 8.011886761682891 4.058917762183361 8.78773320765639 -0.8198543499074525 -1.4956721582855594 0.884567988035754
P 4.126751269639269 2.583271285324431 8.135270107105528 -0.43975814227222976 -0.9269202277497197 -0.47360517272866176
P 8.890012273391589 8.328418082821644 1.7693415190337467 -1.1409211142833446 0.4921950199157072 -0.1798833760246257
P 2.3480330972555867 3.877555647053742 13.415388248532128 -0.11512911446637591 0.1842658213630375 0.4493727825438584
P 1.7895854346554187 0.22549991881790485 12.415964553219572 -0.8876065177517617 -0.36258802354813036 0.6661412045202915
P 2.767131837588261 3.2827773271786573 4.919436806192516 -0.8601468788789122 1.4651837598887154 -0.723080855130129
P 6.978275805163188 1.7180042714981951 7.983296563213626 0.6743651350919805 0.3670283187076711 0.366270357495724
P 1.5488901338986927 1.8226098894068685 9.772379492655961 0.23476125900942796 -0.47891141543292365 1.0220276476785302
P 5.70940787533303 5.626574352451052 6.272242831111355 -0.07956510131883716 0.6396449580019758 1.7030043745497574
Ni 5.570951252042041 8.901095565941848 9.407092955441033 -0.09866351271118491 0.008106688267534426 0.35329811360577223
Ni 0.8407222171378146 3.585933556290657 10.781357361851672 -0.038007846702340996 0.5770349964802385 -0.19715013352487334
Ni 1.5018331036641188 9.425964609163051 8.536367889664836 0.1172595305458174 -2.0722281582468507 0.8516799790584817
Ni 9.364771684616496 4.556811198451733 12.728585726317075 -0.4004817132701103 -1.597935472532861 0.8415914844742282
Ni 5.9177174195530675 3.954096113996166 7.6548112535759625 1.795807057604791 -0.447696680393016 -1.0160889135965918
Ni 3.2270133374575667 1.6928696182232013 6.171545482719769 0.5198546906145047 0.351664177546775 1.0715833471194707
Ni 8.564830348491151 5.175352848964237 1.7981007846775077 0.4347910280749415 0.2314609909916014 1.0235929352831212
Ni 3.7287671408769176 6.240306981111241 5.877702037136229 0.15885972258510705 -0.12877370183300402 -1.3636886912660062
Ni 1.5518675946939744 7.656714198551118 5.040974501626911 0.7480796911673117 -1.0297741243931684 -0.6634001514400446
Ni 7.592046004306598 9.04690661132339 8.233025686660893 -0.04801458020606569 -1.2563561900259137 -0.7717315262582967
Ni 5.811449307761855 1.16087157581077 6.194929351476655 -1.6570772730003396 0.18749307005108354 0.5291800817804886
Ni 5.828243313761739 2.639007097183106 9.544810379474647 0.338439708436701 -0.4837548595681539 1.2469238409684202
Ni 8.969990439548754 5.688903784115051 10.40038608715397 2.2522280052446826 1.644767088174419 -0.9421465577811711
Ni 7.677556424118087 1.3388053843464531 12.834369178874734 -1.3494324384573084 0.7069312419534599 -0.6475883812187686
Ni 3.722088987484347 7.314897942204486 3.6712730304034897 -2.377054292394164 0.9775833013222259 -0.3326503554484335
Ni 3.069020062891544 2.1354780884315523 1.3066751070956686 -0.3693891056303638 0.1470897265333725 -1.4129093759650313
Ni 7.631861323900282 3.2254447697830804 0.8355168266875149 0.4413098030300658 -1.6172444572741183 -2.0187659246626524
Ni 5.873365464110421 0.4980099047663573 3.0287773790512182 0.3748110479768835 0.2115701656049453 -0.04544964769236689
Ni 2.8949090510236197 5.45129865560327 11.811122040151604 -1.3950394376631459 -0.3740088637905623 -0.015056894333122458
Ni 4.979817269039414 3.889427919751647 0.43918204213857587 -0.5405145329567014 -0.639153620187854 0.5366463082505467
Ni 1.7849173021151827 7.881263584143525 11.125267233375807 -0.9128943457842729 0.18846468993573348 -0.6127087957327642
Ni 1.262537303407383 1.6436428925826019 4.014921787069236 1.0715463232339482 0.674757999655025 -0.009068795070487608
Ni 3.649427672934513 9.265303830288325 7.665258665697703 0.4362951234242938 0.07234621497289474 -1.129232107981191
Ni 4.095718050498543 6.865019583492829 8.734050622705753 -1.6844029573984862 0.10715663778386061 -1.072487604101295
P 8.61589802780959 4.1101732939179065 6.7144849891083 0.8111773909587449 0.23202714790771653 -1.3389603352813908
P 2.4960701937679866 9.259386479180982 3.36175893626838 -1.3638311303811415 0.03652791972270483 3.628674767507306
P 5.9015621117679435 9.509277155706101 11.535616747428339 -0.7023058273663065 -0.004650868508450055 0.3114438965741475
P 9.162088320258835 7.982403324975041 9.43477864452675 0.6485828839215539 -0.48634164645872374 -0.5207851728485741
P 5.296639761423131 5.9227236864422945 10.124138777387087 1.6274612499061196 -1.460434418129188 -0.05310587868604402
P 2.020587550741071 5.217309686101531 9.787129664368612 -0.2438207981085349 0.23283473141067645 -0.6432401315524019
P 6.695435814853062 2.261630378467593 4.355697341030639 -0.7653091676717207 -1.1783993137344608 -0.5564486876884546
P 8.71514985185924 8.791690318801663 5.286276882888639 1.8235173790358659 1.0145120560277754 1.241658993025055
Ni 1.1169892514083888 4.490696540603197 3.5941248608949623 -1.0714236816131548 -1.1542929076045603 0.9992057646880083
Ni 5.405547199660632 7.9343318916934935 7.1570436784263824 1.1496561801634975 -0.3017603507377964 -0.9670770024742634
Ni 2.5081115336403865 2.1646327834112165 12.039570302640293 -0.6993362032150213 0.3046258452110496 -0.6258723296979157
Ni 4.70073432705141 5.271608426976995 3.180325437220641 0.22709860025784762 -0.8263782670688995 0.017437992970789323
Ni 0.4269190364151707 6.687705687930297 12.655506440141407 -1.093038174559137 0.31610813481903627 -0.7396320746205907
Ni 6.7311559517756345 5.558412103266959 0.32756295427458215 0.06489258690832694 -0.2944735872683961 0.5173828320352445
Ni 4.673711756994549 1.943342637238249 11.574754859061962 1.8785495282103455 -1.4973364333618602 0.78195551797915
Ni 9.202354485651176 8.991011124911024 13.1590335703688 0.010711472880233166 -0.07837802298927146 0.4329658019407447
Ni 7.598188778313267 8.255240174127518 11.026563938381187 0.44890689865103334 0.3425249342496682 -0.8530838013845439
Ni 7.482255659713397 0.6347965200781637 1.2570848870299038 -0.5116924665186865 0.34277741658010646 -0.7803028128670755
Ni 9.66942134043654 7.651660968557864 7.186751598771479 -0.03155566331909404 -0.3325781074496014 0.8112658369074931
Ni 0.6517182657209998 6.992543196166445 3.0237457520858166 1.102295431491347 -0.9261591812139792 -1.2870754734866414
Ni 3.5891740104684864 0.8803027212113665 9.66753060586843 -0.2660816663892643 0.7059490805458487 1.0829856754191414
Ni 3.4726209788954665 9.122235430181929 1.6661147378592922 1.8784981061471195 0.3158140006173851 -0.6072014927612897
Ni 8.41625787259285 3.554177105347923 4.404747485400099 0.6656069292833763 -0.6055976386092796 0.26422353013460304
Ni 8.021579946353965 1.3415292443799915 6.011062224378261 1.8805639875372127 0.10506427403120615 -0.2634439716561011
Ni 5.053408453048973 3.4920637039624465 5.118383785993826 -0.46139963180140536 0.665836528795679 0.33886754000273894
Ni 7.481823599156353 7.249807080023728 6.145439632453506 -0.9942296516296556 0.30526399301568075 1.6121624147655205
Ni 1.2749543481119952 0.08496001223229882 1.5552179425352262 -1.61574139036603 3.121545237768953 1.0636322105931941
Ni 6.640883473215855 3.9665882996672206 2.640189628142494 -0.8003874994320925 -0.5222848973225521 1.0151221788079485
Ni 8.59897252511843 0.8277566433781726 3.226157669702203 -0.45963765480497615 0.11924776462043979 1.2617051130426529
Ni 1.6339778857739438 3.4089484024563093 8.309912741311033 1.4414689327702788 -0.8823293285132222 0.28497747485250274
Ni 1.678912183706519 4.936564250230988 6.1383876527528844 0.2237476815077437 -0.5274782685980335 -0.594245189710938
Ni 5.5908354302868695 7.761535846738312 4.747255038638001 1.7454268053800261 -1.4476701764849842 0.14278158607632183
P 2.5586720114353394 7.534375312562029 6.963252308185104 -1.0570167621592053 0.8019466163890964 1.3735673838322988
P 6.711544159534159 2.976127043127085 11.754126677842937 0.3871878243746816 0.5695029497692514 -0.20740652114555894
P 3.4699816524491762 7.160887138859913 12.957337370457775 -0.23384388940148115 0.9867816799920426 1.7756429239520906
P 2.639157379115991 5.311855807127723 2.6099050008799516 1.568831098967737 2.0463895999171915 -1.0019059372279906
P 5.3323974688289235 1.7600268569811264 0.8561721391004595 0.43547519862615974 0.086099045782613 1.0536252199791531
P 9.392996510136435 3.042626798428639 2.147509096421066 -0.10406617178399497 -0.7688395494224823 0.2491625220364225
P 7.549009015776694 7.097862653256322 12.77792422414526 1.0088651421546433 -0.5316447412708973 1.2364188276720385
P 6.683131481598113 6.156552981390343 2.6986831134696065 -0.9485288071584309 0.5166279561470909 -2.3532160523239862
