# total energy = -381170.2337721352 ev
CRYSTAL
PRIMVEC
9.21412211788940 0.00000000000000 0.00000000000000
0.00000000000000 9.21412211788940 0.00000000000000
0.00000000000000 0.00000000000000 13.48579909726497
PRIMCOORD
 96 1
Ni 6.115882641472728 8.639851775504582 2.8424561797625088 1.2872289683453702 1.2826349212167847 0.8870131071421369
Ni 5.227410934908057 8.418675992830188 0.6403178963076944 0.5344729547483118 -0.03547248187499698 -1.4730803890279727
Ni 7.92747115303799 4.973552661767655 6.099815977073073 0.6932491164806771 -1.7124480364611605 -0.5374148109854552
Ni 6.890910078903627 8.441720511763226 9.559125370250483 -1.0257552330417623 0.16542863405187636 -1.1144546925617
Ni 1.7342636003753125 8.442024577786734 10.189707625332808 0.561864202277071 1.6395858010837958 0.6374145260095603
Ni 8.208898078976333 1.400592603125362 9.349218458689686 -0.4638846030067882 -1.027703615017385 -2.3979393633732893
Ni 3.8499089213253552 5.425413200942469 8.442123168891325 -0.17664661425488287 0.5051526085176397 -1.2023565958810065
Ni 1.3197478973602759 0.8362184211311411 12.571664105204142 -0.2726318088029563 -1.9570571347989456 -0.9635170530371469
Ni 4.876767525073277 6.430904255947602 12.421054675288115 -1.6784703939641352 0.015573943178857049 0.17623472352844485
Ni 3.3250264658993087 4.288335270734328 13.239615153163248 -0.15242425137240845 0.027274776555553028 -0.8113643101585705
Ni -0.09384306756390168 4.99366708992872 3.112158135551995 1.0454185157986446 -0.5361760534823475 1.3957858289108669
Ni 1.9325975747990054 6.703891046203153 2.2201942767779577 -2.4629499639167194 -0.45910877888469964 1.0213388491416215
Ni 0.36994975950307046 0.690463912057105 4.879067369905619 0.6268773739236624 -0.2099447141863804 1.4732652513452693
Ni 2.9911527579670203 5.117228464935535 4.326607968971898 0.19612734868731385 0.8165098589152519 0.4024740611097908
Ni 5.575446748238218 6.0212259669428985 9.897780286049365 0.24726530501370964 1.641795921361237 -1.0941090390258124
Ni 3.9681537479817663 7.638838783754729 2.369657469926583 0.73967861158781 0.8927548947219205 1.3842140649128676
Ni -0.09981013292217268 3.463284365375616 1.4968967626552832 0.7343605418090062 -0.8706112687453458 -0.5004760289775768
Ni 0.8086405542112753 3.051274903524028 12.643273496564357 -1.9471954115135175 -0.4867625360462262 0.8846484635647023
Ni 2.841791841571756 8.862041111590663 6.080004693523323 -1.4677078118621496 0.016213376535068852 0.3348303938188879
Ni -0.03365365891684532 7.348299091233109 0.1179158825037084 0.7490387126464713 -0.15573994600920274 0.5435260660895155
Ni 6.958762872755244 6.261290699562406 4.170092286902302 3.199590045788522 0.4370260880530473 0.35866863388906617
Ni 0.10119777968399421 3.686984817457307 8.216789052992429 0.7828641458363486 -1.0203412611150426 -1.8954876987265807
Ni 4.936364465680591 2.855705165677669 12.279871292100797 0.0365986250596402 0.9036075211657083 -1.5622840418778385
Ni 6.406367049262803 1.361764293335748 13.233520011510228 0.13605198066197213 -1.618253872375239 -0.18536625351606784
P 5.438386684612089 4.898706349375383 13.954700120414664 1.1609556643367165 -0.7273748545197924 -0.9984688865219836
Ni 6.389569704994538 6.58477087796392 2.042936684844242 -2.3728657082341136 0.8007777928919757 -1.7669860196080407
P 2.865637989112221 1.7576213994537824 5.409005614031609 -0.36638759979987867 0.8767577479627158 -0.6255877085779613
Ni 7.626003511913977 5.194000528810016 0.913402356255645 1.1583459946280117 0.4513849278778807 0.14009144083866842
P 3.519085087750059 6.6915533369463205 6.644722562265325 -0.27350546965716127 -0.8888306199668499 -0.5788561088493773
P 1.576536261272652 4.683188037562598 11.58111835596046 1.4386396908515997 0.8167309737871224 -0.6499262853233259
P 3.3257912380190375 1.0482537948564845 8.362840256792431 -0.6857175839903223 -0.617925049826381 0.15627113592232442
Ni 4.004254677681745 3.031446113142621 3.8629533537337934 -0.5790581975578544 -0.996650345256006 -0.5738511994356181
Ni 8.54055118352483 8.512779820044551 11.464493371938365 0.051137442105763535 0.6506886174106471 0.4030474171147575
Ni 5.925518882513681 4.316825335724714 2.7138012381558587 0.08438771951846112 -0.5754861639358798 -0.10446057900893621
Ni 5.991482781370788 4.352235206280359 7.325162431080825 0.7393217424690235 -0.661141694423171 2.114693269389597
Ni 7.540192394431614 7.042233603268798 6.682645123869767 -1.1881458515982635 1.7582185578280558 0.6253686505886197
Ni 7.059132302878231 1.9922774425036398 1.9161835380027978 0.5470536196267998 0.26943335647031663 -1.960886792957681
Ni 0.3199732835970696 8.177993914041743 6.696454328397933 0.10159379898410245 0.20995808392281903 -1.0577328143896234
Ni 4.605227351959863 8.358000999957712 7.428584499797381 2.0216075078765052 0.7745710525896208 -0.790883159486083
Ni 4.317737533795235 0.8674248092648537 2.1028948190309946 -0.4257669701994603 -0.5831380240541828 0.31719725411815697
Ni 1.3272389784848502 7.007772787271371 11.850955759342236 1.0215239685692343 -1.2925501234479677 0.07701508120347382
Ni 5.949705952565351 1.669829245757664 3.6787906988298977 0.1687813525741932 -0.03398021360018664 0.9727470562758473
Ni 6.146657808700377 3.7083062955904746 5.0061715747923845 1.4324482173289073 -1.056382471009316 -0.4273433135476446
Ni 7.876222206894223 1.9709191078827748 6.662308635370322 -0.7212599998713062 0.18175693889825473 0.008143197932424686
Ni 7.490859985648132 8.662325018878304 0.8081743196418982 -0.06536284167652613 0.5419324963501505 0.6706084962630258
Ni 1.1403857999790166 2.362316578989377 3.398393911722707 2.2615575101757246 0.032636040867466375 -0.9209917780804266
Ni 1.6282182711468676 5.388925278121665 9.409729440191906 -0.11194737430428463 -0.6323821057919754 1.4312449410494252
Ni 8.601226176397304 6.956007850299835 2.419163104202245 0.6689730175421317 2.317248118869809 0.08356110985210768
Ni 5.495431313446332 5.808048042098924 5.6864492750620155 -2.1200123676096654 0.9442962571343222 2.5234683330167513
Ni 4.229862453001797 3.786644760192112 6.175983594549311 -2.4356170804297217 -1.2671903045269401 -0.1178136032770745
Ni 3.6489120656654976 5.173784745307782 10.91301896063837 -1.3674962379375546 -0.3331103258039876 0.0997289778612218
Ni 7.481535294260593 3.410303164310053 13.144769589133967 -0.3430558670524737 -2.2711986328099143 -0.5863002238322482
Ni 2.020629295665159 7.383460180496794 8.192420464738847 1.2842506024433364 -0.35307134230694676 -1.3169480926763575
Ni 8.787425152246502 5.035563702319173 12.189813385823456 -0.7349824916637213 2.5606446849567317 -0.3185357704239224
Ni 5.369787546884591 1.5756977761775273 8.515540370973115 1.6393520878064347 -1.2201637992657566 -1.7334981722632405
Ni 7.763017504930483 5.423717802508372 8.60934750346151 -2.7834140617116065 -0.2239227736330273 1.1579238194889283
P 3.4464133081319552 8.520869819094214 11.63740834820909 -0.2688605146859821 -1.0158639420699795 0.045332919608844516
Ni -0.24882091268430784 7.34529528748574 9.20152253412617 1.028743369135809 0.8239472890299036 0.130179323931279
P 1.0860409088686362 8.10107442421647 3.750144859012805 -1.8379844623037895 -0.9901958478799141 0.028290619414577084
Ni 4.7389058328397216 2.6988992387674524 0.9856447577920687 0.8939957091075571 1.4342580168441363 1.1278457691566253
P 8.497981940233892 1.6427673696655671 11.561051841233402 0.7998655654903515 -0.1772528803803141 0.9439699841431549
P 0.6955694570154404 0.14250837392005386 8.384997455784147 0.16552427908947623 0.8441530745538172 0.8449218343990416
P 2.3694667376027474 4.057641300111983 2.503692537324917 -1.709371968638998 -1.1581235942045602 -0.2911301247174599
Ni 2.400656540316996 2.166304563290645 0.9033350066409958 -1.2912164922382083 1.2172440545158003 1.331536532013494
Ni 7.216362079396972 9.027112105867108 5.221040291009495 -0.058537848334892735 0.19616797211726217 -0.01960389027385656
Ni 2.8208297141936423 0.02106348271928277 3.7048049292591854 1.0755137925221283 1.7454887689662133 2.2027584377596447
Ni 4.83716522904201 3.6178973312678138 9.703355863558217 1.2263537301265524 0.3521953674598967 0.976303663278854
Ni 0.29992243287728343 3.255920551465966 5.4604406854382495 0.4546741401521137 1.8970990090777584 -0.5179567022608434
Ni 2.7006775642988705 2.615290296425033 11.47988095555219 0.6191401531804047 1.0385963506704887 -0.004355191644902176
Ni 1.2853792225820935 5.246161673024304 0.33045158304954925 0.0017133831466809202 0.46938162156561747 1.1539769190260385
Ni 3.7799368794311152 5.405354057512951 1.7261957152182679 0.8221791413858873 -0.09417719480505717 0.8524847343479641
Ni 1.150687188290547 1.9608204302535823 6.9425432539316425 1.8522761963361132 -2.1957164433111993 1.3834260217939336
Ni 6.929710746327467 6.909329108630593 12.793559510800835 1.7679918351647357 0.11917911616603344 0.04620709468368171
Ni 3.6487554255927823 0.7854347881445589 13.136018016130128 1.289813955463727 0.02092955106381557 -0.33870067540757154
Ni 9.071717670103348 1.1527050809920005 0.8812782415782577 0.40815877019939384 0.7784050816237303 -1.2715709500931391
Ni 4.348945764753332 8.203185323383176 9.58033812174494 -0.9486344794983598 -0.5112389239210358 1.7748600230394789
Ni 6.531789676898357 4.601864197457441 11.345292119426198 -0.3773435845907501 -0.09372545197961923 0.6493565288627848
Ni 2.836475293221351 3.1704319282509594 8.925629609815648 -1.3120771377373017 -0.5573300618521434 -0.7318915114432234
Ni 4.851640614585314 8.000373285704203 4.696415830997332 -0.268702391841563 1.6971075494493484 1.8622045111934187
Ni 6.519820532518502 2.04172963487214 10.72870795837149 -0.6406862547822966 -0.2351510382486789 1.725231304268758
Ni 3.0981563558756076 7.518787989201127 0.3404074417889128 -1.2632241207903405 -0.08760879755892009 -2.578317419646147
Ni 5.7228542707855 8.878064469617275 11.566809746023988 0.004945774041049547 -0.519879116094537 0.8423149929038138
Ni 8.566553435595615 0.3452255061432054 2.8997302402326706 -0.5325983634334183 -0.7488209402087104 0.49594497387644265
Ni 0.8873807545288181 5.89753559422914 5.305245387040427 -0.5732415908760773 0.8931382462032682 0.023889662133404016
Ni 8.220793510380792 2.978289843760494 3.6938548667641737 -2.61115220678798 -0.7256272757010664 -0.006343939940156817
Ni 1.13243401275822 1.7556311491181023 9.977333171920646 0.7240902702312497 -0.1799725933043223 -0.05260297090769651
Ni 4.937663656871939 0.928553136936011 5.5840508952912655 -0.10851263759112278 1.1728673281726383 1.0470069433316873
Ni 2.018657473573328 4.395707433519894 6.796774923674719 0.03987678159027971 0.5159890370115113 0.2753672054562483
P 7.033563114537894 9.365417806445056 7.485305712952076 -0.7140609110197057 -1.0269207141047736 -0.2952873414189431
Ni 8.496480038360207 3.721325849869716 10.219497802926732 0.013205957167312739 -0.9138916767005356 2.1668663518487263
P 0.3446800301252782 5.799359125124172 7.749641364132766 1.2941362369881648 0.7047938838954829 -3.02293674666542
Ni 1.7935380467152713 9.07820441193816 1.7489324824790302 -0.8557724039603004 0.38564387692632934 -1.5561139085113844
P 7.585074382325589 6.574368134311221 10.6998889492284 -0.3028620684424075 -0.3388410576401778 0.13683693845711273
P 6.789223029345444 3.2162629707031516 8.93396378309631 1.5815783713310763 0.6479395939106002 -0.6579411852080024
P 4.88278434668994 6.263511302946197 3.7456667957575243 -0.6748850121511926 -2.6437098290090275 -2.774130065306519
Ni 4.239666278729406 1.2489189421270621 10.522590815158217 -0.8424067812866718 -0.4469531173587722 0.03816725509834072
