# total energy = -340896.26544849545 ev
CRYSTAL
PRIMVEC
9.01823078527640 0.00000000000000 0.00000000000000
0.00000000000000 9.01823078527640 0.00000000000000
0.00000000000000 0.00000000000000 13.19909233099590
PRIMCOORD
 96 1
Ni 6.2041187796436486 2.020200886084242 11.205923451565397 0.5397586286272834 -0.551526824906805 1.0976047108838967
Ni 4.632926575721818 0.5129470351251803 5.976971195180534 0.46671950135242196 -0.5219917915621656 0.3169789674597638
Ni 2.858463454610633 1.6420664780208158 4.7596318134954965 -0.5539865993012072 0.22407189761638185 0.32040316264996427
Ni 3.3232179673592297 4.1169575315305265 4.689478997842612 0.0008199247981340718 1.3128196723302807 -0.014179376824175579
Ni 4.932358885546047 4.584697078599872 2.6476587075978544 0.3259264064610387 0.31500153201841874 -0.5660653848426123
Ni 7.2095432701319675 5.865646549654702 2.4698534699098 0.852140720744984 0.008451730311778993 -0.1863620417704339
Ni 5.025661499088242 4.5951401896072035 11.436907391315662 -0.9483560290259925 0.5596152583418943 0.08243213845398707
Ni 5.480225411285641 7.90071849795923 12.513069078798207 -0.3352931923879193 0.37468506392198053 -0.7138925037626415
Ni 1.7691513833017556 6.600118302478685 0.47106096139058945 -0.052128088153807 -0.35096586592816975 -0.6583908711509112
Ni 2.9013451410008453 1.5019231748654225 0.49589626657460734 -0.5178109207115985 -0.10717103596156381 -1.1413646295786666
Ni 0.485996053047967 9.04059578810931 4.733101982786195 0.5896282597642168 0.049944707349243014 0.5163729027134913
Ni 8.538956712303728 2.5300465517142396 1.3267070711758182 0.8600329790088672 -0.8490271148166668 0.9168219629734533
Ni 7.0574147385406985 0.7152313578894894 4.909890865888303 -0.8817310328075911 0.09054165493499891 -0.8798703254497685
Ni 0.9648153982033303 7.463271187395609 2.641560580082174 0.24038683272632147 0.1956882042673662 0.022818283446096186
Ni 7.318167857423262 3.6020255838555064 3.85289382020341 1.6836251986921973 0.04219000310448864 -0.337785876902786
Ni 7.625437009618279 3.6991519271620437 12.685660877390115 -0.09023646498975427 0.6172488496949627 -1.4627764359988034
Ni 7.7953314554448205 8.691842775263405 7.227057575734162 0.9388609450513636 0.25531337212916677 -0.9852816984077484
Ni 6.8810452031603875 0.7550838206291289 0.3246959809606205 -0.6063378592094139 0.2065313176294572 -0.14834031111102194
Ni 1.9163379245372236 6.246062570053927 9.082796598091013 -0.6123259584720486 1.2673070326104625 0.38005327021242935
Ni 0.4650088268508479 4.829821603893742 1.3337944985857169 -1.0599822725454326 -0.7521397201692982 -0.21864969815954602
Ni 6.590910689060303 1.8388442691952485 7.033439772553658 0.16350030668091195 0.9115681707736816 0.16706925497909292
Ni 3.2893094203924167 4.252889321006797 0.26292561062838976 -1.2739636186950318 1.9048727394859066 0.4082976097701032
Ni 6.058366137069809 5.4327985366849845 4.6319841706265965 -0.6345297482625976 0.5383190679672794 1.2412193343844753
Ni 5.395517171482642 2.960567861195277 9.04958786581692 -0.6438006320415622 0.11990570991941285 -0.18761648300282527
P 0.17781064862640017 5.53759037598136 12.432766244631722 -0.15440811457165665 -0.11310977004350198 -0.1685502103999936
P 3.820393019029554 6.298656890774792 12.553735887758885 0.7634644011534981 -0.9547071680550008 0.4941043211232781
P 2.3844111461378916 8.560131517696833 1.3977175205565056 1.3517263766978076 -0.4067942857516994 1.2125692747479504
P 6.37944220027711 7.820537409905523 5.664614859117438 0.34949879446434007 -0.5545558415411159 1.18334380222393
P 4.6369847794811445 0.9945124314910208 12.45492764444987 0.8145249672747392 -0.450323833603218 0.5878184602489877
P 3.9687519302399386 6.073363454518162 8.136355844686854 0.035748875464835204 0.36370028277570265 -0.14515599984576938
P 4.9076128608447345 1.1244921887869463 3.7823712570968993 -0.32890991456939483 -0.7692105596086559 0.5376251272240483
P 0.3325878345379233 5.591149647373887 3.445174204911439 -0.6008704083369394 -1.081619391199234 0.5407312769531978
Ni 1.52546977490009 1.100684060065567 2.7212168071163414 -0.3572704679899589 0.3182478068698584 -0.7753133300722841
Ni 1.8776587335955581 6.667006518662955 4.840252089378268 0.3424912527982553 -0.29090592452179576 0.41849589045934377
Ni 6.024827337556623 5.688005443763136 9.162637698851993 -1.1582992005504762 0.1114426667537242 0.28978800886726863
Ni 8.667150859945549 2.4827910234945314 10.293615799069402 -0.5110751446496616 0.01197902673874711 0.6678720711684691
Ni 2.2133353121058574 5.13255458610889 6.996179149281641 0.15425513393356013 0.22544666647672143 -0.8034743658875324
Ni 0.4245169715633501 0.09065305739888319 9.231458521848761 0.4752722760184395 -0.6600214647757987 0.3436256235130147
Ni 1.4295338380296219 1.0075347564431694 11.355112941811857 0.22832604490704547 0.1923858793670106 -0.1785991099955634
Ni 3.998466999988781 6.854838225105718 1.578967722324699 0.817869972487572 0.5774743980105023 -0.1286693150446558
Ni 5.701947628234064 7.870227860380827 7.888569137726865 -1.5439417919252247 0.3784640713484385 0.7116443311584132
Ni 5.316463362250971 2.9220600166345605 4.97228259230724 -0.12928715113431283 -0.5934041818668813 0.27825224031352724
Ni 0.8572233983130202 7.55362483953936 7.0790034807172555 -0.12055645612953432 -0.7139480395909252 -0.4533700766287095
Ni 4.851762958885832 4.615782919396309 6.816354729767557 0.6610208525745906 0.012078528431088876 0.0982019996937341
Ni 8.201088703763393 7.103948808314303 9.28379221570597 -0.5489420948987643 -0.003269157669575015 -0.992563319670826
Ni 4.618623662027837 0.18822670494200372 10.247246762915342 -0.7891070414222668 -0.24984232171226647 0.8584350383941279
Ni 8.21209996329703 6.974997129304074 4.7137786201304 -0.4200796900066958 0.8879158214620643 -0.13471037903241315
Ni 7.051715216816489 6.078494827716066 7.016043605772013 0.7304385810467808 -0.07376314992507942 -0.759065500754854
Ni 2.393853233551257 5.3106646399904225 2.596261106074461 0.5079098595478027 -0.6880410899171764 0.32514247710716265
Ni 2.2392356703209337 5.295297575088441 11.43993030220483 -0.27526847509485497 -0.169616703991295 -0.21152568552025505
Ni 1.0745402096249306 3.3966444007113026 3.6848832827442535 -0.5165611074648975 0.20653286029135398 -0.13266249536444893
Ni 3.8156133568241253 2.603896841903398 2.575908763309912 -0.7878497719763979 -0.2860174860812429 0.044364127937671985
Ni 1.0409833736505925 3.2989950000313413 8.320259209890589 -0.12207006456058332 0.2603303657277839 -0.5897028217558942
Ni 3.492778738654449 2.798095419133014 7.367891675351697 0.17709372909463048 -0.7039706166632392 -0.6881992127615953
Ni 4.330915051952772 6.94732017966547 6.038069707334833 -0.4816578678298091 0.10283024249436483 -0.9749276088669339
Ni 0.6778354611588286 7.347278705723495 11.191839680874422 0.8387732982991426 -0.11021419366326181 0.2953444199091236
P 0.0981706544072703 5.525496928778568 7.850212799439831 0.7134590157696487 0.7731885704197974 0.5473534102554058
P 8.488265238234458 1.6688686592935205 8.220790832103392 -0.36115051977065543 0.5635467321858165 -1.3812799219852083
P 1.8130701662082398 3.120208578856588 10.367979226578349 0.07352635132392499 0.04609653724774642 -0.08078149022444152
P 4.008666618770554 6.211612929252537 3.828265032499589 -0.18951678534933167 -0.0752801007902381 0.35276280992759246
P 6.754014407262905 3.9386941677291967 10.453720053782332 1.452764560288756 0.9137124708101941 0.20484930194134396
P 6.245999442439893 7.713959960955044 10.180129483674435 0.15622022807973093 -0.8725689066923489 0.6830050701551657
P 2.5252217983559295 8.697407023528969 5.785610655113274 -0.8624996953818048 -0.8051298992130843 0.04056069503118175
P 6.7068310248878085 3.8982203489028513 1.481901801163023 0.4294665305382346 1.1298322034590347 0.12203638310917046
Ni 5.029322900702211 3.01842882857269 0.2909064746374141 2.3458151318742244 -1.6976081432348504 0.1765954493019733
Ni 1.3818724894339816 1.104940664897571 7.049226185177436 -0.03520817247001678 0.2154831275061063 -0.20433302442655776
Ni 6.8020725580039025 0.6152390209058105 9.288531295873808 0.6508297709742017 0.5243168401509163 -0.2012996369168727
Ni 2.7353104978609517 1.4053018524711571 9.133758619077573 -0.06092383206856605 -0.036964493039491175 0.8014149122553423
Ni 6.318442888659151 1.9808904190022367 2.3569749832556743 0.582558754511945 -0.5372793138488554 0.5031813437238818
Ni 4.001073268625326 6.718320250641989 10.310866772338768 0.5544167448600903 0.7441240489536732 0.33644916036923345
Ni 8.106289063945535 7.259729723288967 0.2455384620773216 0.11773364196875852 -0.4328164208470739 0.41243502897724454
Ni 7.54031393120877 4.021328214499651 8.417377436789607 0.9611087007059705 -0.9609770602241128 -1.049858039627237
Ni 2.842645478179838 8.306277345205125 12.45152145876121 1.3857317871089747 0.5198665176890466 -1.2008949237338156
Ni 0.09408900324844591 5.040739980611781 10.153467084975663 -0.11775472501468108 -1.2055596761993366 0.37809691781700694
Ni 8.755213881522925 2.3366235423141832 5.657711403611296 0.11935986471827185 0.5957294875659482 0.26885434403839503
Ni 3.7454785776323947 2.576806077252252 11.343022200078238 -0.9998102310412265 0.16297554452569352 -0.5669382743658687
Ni 1.2723911702379405 3.2444888144283044 12.452564868038886 -1.172207325991136 0.1101638000413006 0.871109291427687
Ni 3.063438817378904 8.221451868404634 7.896713501760304 0.9094228422959048 0.06180083535688067 0.4039519312068978
Ni 5.860443030612188 7.639063556019038 3.5305588120076594 -1.202661014495303 0.6437618083838268 0.14213289674872942
Ni 3.240592938819351 8.428185786135279 3.6722252943073865 0.6144165224524902 -0.25075943420989716 -0.17129023503897595
Ni 3.3534290397897686 4.285580406845812 9.391655664336628 0.5540133387740847 -0.0234245495715274 -0.15909369297278406
Ni 7.176554582683935 6.044703517746744 11.397337199193059 0.2883124527630067 -0.0792552833879022 0.007955250291334686
Ni 0.6277653431762636 0.08198383234590509 0.3490686509160752 -0.8398675598045857 0.027347024554385164 0.00641978748341475
Ni 4.640555998789351 0.31532243209963495 1.6873055298836677 0.055069173060001926 -0.48709575101592895 -0.3069462658141101
Ni 5.993092184158693 5.669599235156948 0.2277058129357853 -0.6332727359270448 -0.21059854572029538 1.149413468025072
Ni 7.835074797594487 8.722270285227774 11.445817403125027 -0.3252908297595688 0.6233451924006878 -0.2248802524502901
Ni 8.940845139705075 4.947753005139758 5.668151809149455 0.4105846060320671 -1.0217818502163112 0.17734749697664942
Ni 8.006619579616487 8.623800225565372 2.624454800325086 -0.41136853538594315 0.8718220012239952 -0.22055539982269115
P 8.478552603903804 1.615868518196722 3.4086657020694844 -0.0014380179981072008 0.3443123651673941 0.842149156749911
P 1.9256537567225211 3.068507062962774 1.5514873701126581 -0.932569198505381 1.0944566521732184 0.6893672649277676
P 4.829199345983978 1.0480717028835485 8.22208404636803 -0.5755121320778088 -0.1254513223279904 -0.8834102202822269
P 8.561430142899818 1.6241292174045947 12.417837465735747 -0.2525314385086554 0.11054895129486123 -0.3770826176198796
P 6.344298155721347 7.9015030840193665 1.3948803852172078 -0.04607339731929484 -1.4104388029373516 -0.13804252872943967
P 1.847709189851732 3.2197608261881445 6.0340178163369105 -1.155667419354584 -0.32795243575213195 -0.7178512313000733
P 6.890135579581278 3.933111883002479 6.215413211617381 0.1854307882054161 -0.047180257230228416 -1.05976527143862
P 2.382273825491313 8.376700707775296 10.098400867253838 -0.23809392292708673 -0.10505578939077391 0.10649612138172626
