# total energy = -340862.42121049145 ev
CRYSTAL
PRIMVEC
9.35786490217729 0.00000000000000 0.00000000000000
0.00000000000000 9.35786490217729 0.00000000000000
0.00000000000000 0.00000000000000 13.69618119181968
PRIMCOORD
 96 1
Ni 7.405627184261151 5.294567708722419 2.137562820722164 -0.8799364028010135 -0.719518334589851 0.5294353923244043
Ni 2.5986884615437664 2.4414856878214044 5.1061003081171235 -1.0705286806027112 0.7715011554150455 -0.3884900881258729
Ni 6.774008729879071 7.236203038880869 4.411553954921221 -0.05775623297386183 -1.318773833031187 0.22932491848520503
Ni 0.6670379733141084 4.548072103901878 3.698639984351531 -0.05636320928107713 -0.6274232191248033 0.3407120494106455
Ni 4.560312191289748 6.01157668100536 5.920284157664492 0.24087199989285615 -0.5684683378571499 -0.43660442713459646
Ni 6.936751359666892 0.0368147765998658 0.3464365834691472 -0.5446421819718298 -0.5613327552536332 0.19591009047018518
Ni 8.401715763706543 0.7456552685457478 3.501195583875298 -0.5072539711313586 2.3263084292998646 -0.33240815753064046
Ni 4.213556504624939 -0.103954650439132 0.8833506369403147 -0.37810797356060044 -1.2409977052919723 -1.0964981080832794
Ni 4.319815061421024 8.32804129275493 6.41404535258793 -1.1307858256215555 1.1061158336787014 -1.351193387012473
Ni 8.512475453555814 3.458723042111283 11.48113927212794 1.9730743361628085 0.4669717265725442 2.126449895704893
Ni 6.581882404068379 2.46066931102105 10.915473178519742 1.184426236654831 -1.025288577817989 0.51233909896375
Ni 2.951021435733937 4.862767745160841 4.549227800226344 -0.18733828964077415 -0.3012607853935586 -0.5964247138607599
Ni 5.7536739222823226 0.4137299262940105 2.3761228725409738 1.9891915534396452 0.9055934412474855 -0.6495946130155199
Ni 8.495968179739142 3.71328504303809 9.295694127899461 -0.6223997977682829 0.16942772790894045 -2.3148114844038585
Ni 1.4840825221844685 6.249584618790619 6.256839771506075 0.9737371881032585 -0.024309523279642004 -1.3850273048427824
Ni 8.933803966209878 7.81919802685058 10.185754354027164 0.17410970676564205 0.7657375134583908 1.4949684473503155
Ni 3.0487736932673486 8.525183434192456 12.623030874182618 2.026265061253175 -0.444737340654376 -0.16622336203902985
Ni 1.5438605636475584 2.4827070830382034 7.5196696131438046 -1.7876132089400891 -0.5521233208402233 -1.5739604497745023
Ni 2.3893530220432457 1.3517061642419397 1.01715687665109 -0.07082103657761996 0.4996679312539846 0.14783174690571957
Ni 5.278387960179889 2.033370480512656 13.230565927263912 0.060310623964599366 -0.3854379315631104 0.9353688727377052
Ni 5.1201090319853515 4.736155832043181 9.353519182942177 1.6575989498317645 -0.7069749507072017 -0.701668965113256
Ni 6.551937236146982 6.372079071319087 0.029473531526635652 -0.676037637698397 0.10533064031871536 1.2415859736952748
Ni 7.6311236565742515 9.098633399887222 5.463324638329953 -0.9924589328824779 1.4529069994038912 1.1171540937707338
Ni 6.509237298264064 5.478402966164875 7.370244161002527 0.666150460491672 0.1434909534385206 1.0694835271676484
P 4.921984314725405 3.1579706196657207 1.737977307338526 0.6992037914022151 -0.027522888010617117 -0.5071493272326943
P 4.506588688465766 1.7718649437740754 8.371393473826636 0.011712146230605635 -0.10841262167814877 1.1160194659456586
P 2.5607984662582233 8.62049328896728 4.702926053515405 1.7808470938608492 0.5610213946608016 -0.3839670034445387
P 5.218516340067045 4.729296517016186 11.451569354592058 -0.15003261121178033 -0.4812963707253323 0.9529601034569071
P 8.217347107960487 5.988808995520123 8.643550132480257 2.1759654859365174 0.2909398630835247 -1.113839170464888
P 8.971291573301478 6.250426826638408 4.25021313330672 -1.0276969301491656 1.4353461077019924 0.1458813080475681
P 2.8128525593716125 4.328630170227885 6.7148819958182715 -1.546429334233769 0.47214092947830943 -0.6262320270301797
P 2.6791286688726212 1.6955515548993885 12.507941300209213 1.9776295596336588 -0.5771864344564382 -0.8358144727811346
Ni 4.757351396212546 3.68801880760441 7.199630630983867 1.2628402550883606 0.18874339751841687 0.02152913232102744
Ni 4.605389026876428 7.408865005542653 3.466750218687213 -0.6044031040805462 0.37848772549752235 0.013021094850016285
Ni 8.523424155577073 6.996959862918852 6.280452472198595 -1.3213068838656856 -1.160410333356208 -0.208944297946324
Ni 2.3322045406382537 0.3585971290047272 6.572016407024776 -0.8496876312188012 -0.2261300656969912 0.7615921238314497
Ni 8.324232641709926 1.8119821109237728 13.43184518080708 -0.1701556072139005 1.7687006883063023 -0.9188845019294368
Ni 2.29827292223732 4.711694372997389 1.5623367322550608 -0.39262082246479474 0.008072492595489323 1.5512987465109283
Ni 5.464328737241819 9.391459710698589 12.087058221927979 -0.9891537797686448 0.0427409905119522 -0.5498147273117047
Ni 7.098745360256678 4.8890914193367445 5.297901916013168 0.20466675361689268 -1.0152898147340645 -2.2851913475445804
Ni 7.428422943341316 5.624657037865976 10.513284307099939 -2.2611479334421314 -0.17392304467613273 1.4587655150671974
Ni 8.598156065270912 5.891346831800949 12.637534629108046 -0.9504190822026084 1.533946628385726 -1.1946245173440715
Ni 6.807229150541872 0.7307472538533795 7.6517689782830605 -0.4816280430331382 -0.08776152108670048 -1.363502286286813
Ni 3.6077283261151627 3.670987493349115 13.626933270882498 -0.04046607843484643 -0.41057689272258324 -0.5232737435983827
Ni 2.8300710309264163 3.454671086576919 8.834173585175895 2.745131106971008 0.31948090794601114 2.2613333099800603
Ni -0.05136157770418226 6.4424408580693955 1.6116573596081 2.4019284299280246 -1.9362183436767237 -2.065301606330346
Ni 8.425915202533023 7.960380135734995 2.756781168225293 -1.566444343903115 0.4549500195213197 1.0342113342289154
Ni 7.218535389807244 2.677369390257239 1.6564160277856144 -0.9191539535407397 0.08348706208106267 0.7464480691011596
Ni 1.1880090322266244 -0.0037019713842827867 11.779030995250512 -1.3202010523960168 1.9794817823510489 -1.3404639164101109
Ni 5.121952531385513 6.957329304747877 11.748748944189998 -1.833400956698165 -1.3655805089720805 -0.7635736730378526
Ni 1.9952652543326772 7.734640358932533 9.869139414661738 1.2858241175780436 -0.35044058955231905 2.2057653429067687
Ni 0.3839344842122198 5.530236180263819 10.579615661405327 1.8978916801823833 0.22723255473255063 -0.020332798020081113
Ni 8.87020791583681 8.281701145396566 13.072087676545399 0.3777014821508011 -0.4204075056597599 0.5267403619907445
Ni 6.879247279392833 7.770247035164069 9.202820125377743 0.12231200536806032 -0.901961243811537 -0.9764198771417443
Ni 0.5465255165874386 8.793230118548866 5.142121537767071 -0.879587504102027 -0.7470574205503844 0.4045813372607806
Ni 6.84939569012119 2.288082207279069 5.617953999184071 1.0278722793847652 -0.4029918812864737 -0.26127756013240166
P 5.200015841010606 0.6106755525670527 4.241035875125309 0.1451418587783823 0.5710445832247585 4.372034427491128
P 5.054005073798867 5.107054810344617 3.820275384875253 0.9266083529362558 2.1432782801161414 0.10532935476713473
P 2.6498666250944303 7.538274920287968 7.884165940229047 1.3879961576631192 -0.09258671038948571 -1.6654919794265959
P 8.325346227642003 2.9595651664565104 3.997216703190304 -0.1421148990266004 0.24091776552912705 0.003099979081562403
P 0.7510416556256093 2.380294608747023 9.916993664573127 0.3258662426470646 0.8815315152022755 -0.1379993341963301
P 4.201597153186331 8.35121136643411 10.345122537704844 0.19613094823173963 -0.04100780987092937 0.21749501572981253
P 7.862880540555918 0.47371664814605285 11.892119857692169 -0.978079010011722 0.012395031230243169 -2.3187288171803937
P 9.227837441603077 0.41097964977772966 7.297147070319898 0.048052632532852725 -0.4912527106070958 0.09734273701723235
Ni 1.2838335695750969 5.153086148158791 8.288764461880026 -0.4060018717573911 0.07598175484295303 0.6470314802740341
Ni 6.590332556141198 4.048474408593259 13.186327556379034 -0.11535434310330456 -0.17254416205073508 -0.33045283357648253
Ni 0.21447103579904025 1.8616630160783667 5.6849422756107355 -1.0773539310546607 -0.12606581598353772 -0.9916773175214468
Ni 4.337492068359624 1.5671710053013714 6.2053013301538575 2.1269785145148528 -1.2929915818607602 -0.055327568927711165
Ni 2.0058115681599946 3.5223752396742043 11.21300930277325 0.011511343073709206 -0.013511918443505761 0.28653942002298394
Ni 3.2256092677081774 5.424323864471826 10.22744551406573 -1.124885915197353 1.0115699426803157 1.0843756137881324
Ni 1.5270819117466004 0.597579220533929 9.06703656879766 -0.334600794306585 -0.6608822701141973 -0.18198756685182205
Ni 1.7113008416530486 7.02466850111112 3.575168570719628 -0.16695278400588667 -1.5076943795574165 -0.09023775054133491
Ni 3.3308291014919886 5.998559890824527 13.09600076470363 1.782612670401704 1.156892807121253 0.28850194306599347
Ni 1.1775937285089633 8.527841067845479 0.7420590410356875 2.3438186702694863 -0.6261857471732765 -0.5637537059903001
Ni 4.874156266835947 6.950769441400096 8.252428807966902 -1.7595218500205119 -0.10737620999383445 1.4696698206845271
Ni 1.3257755203950043 5.227088144384545 13.198599460507822 -0.9820264246952443 -1.1184265327252545 -0.34828420533094856
Ni 4.596920159073657 5.510528516625549 1.6316120708817217 1.0537092950525273 -0.14124843726124706 -0.027733461359526427
Ni 0.5297028827210959 7.592185580411459 8.057312644296559 -0.9460168393698547 0.9341437420813525 -0.28769307401145294
Ni 5.923603392371279 0.31285869236428493 9.728425199026097 -1.81921823743988 1.7182479309723893 0.8390777169134387
Ni 1.0725797677546118 2.6794281205518353 13.345914714097137 -0.7198116974605538 1.7771968987027715 -0.3392148960398287
Ni 5.109646938942814 3.1246753360831168 4.323788410889594 -0.8318174358065997 -1.29237863086711 -0.23229017176111608
Ni 8.99095244761487 3.9934408046727152 6.828313356118029 -0.7846736882412615 0.3245218128040282 -0.3971490493524515
Ni 3.359361231802095 0.8003744482031168 3.1060887446689045 0.2883906142991098 -0.1351736918220769 0.8280453703586771
Ni 8.36620266612476 1.1324139564075544 9.379637919875119 0.1388871361179221 -0.6904712966252238 0.8087991205345554
Ni 4.434121382095984 2.5925777757148065 10.740490461344052 -2.3521917248245297 0.1920999726954756 0.1205903946912633
Ni 7.099774725403977 7.714951411024214 12.012660388013762 0.4949779819774831 0.6462732619517708 -2.2463921152891957
Ni 0.3401939517440333 3.05865559868141 1.9079601172578424 -0.8280217162095933 -0.7958281621961842 -0.4627792857577514
Ni 1.169938994959056 -0.15676388985501433 2.804553068924898 0.14570390192943938 1.1756443766971432 1.299879567229845
P 2.218450333996844 2.6738414751614994 2.944719849459477 0.12882795210970716 0.9903565418274944 -0.12479363413933345
P 8.9064041375618 0.6166318336239183 1.3189124622220192 0.5615857518047037 -0.7822195702738141 1.4225818660577885
P 5.9123458808058285 7.786810456170593 1.5312601984581327 0.157799913862025 -0.9599355063334758 0.3019410992900348
P 8.664858926815825 4.426373069896322 0.32303630631156993 -0.08571312319810401 -1.7497346887267606 1.805649754726826
P 6.89705529644109 3.0432244793369154 7.643112953180781 1.0423013103259018 0.4119699164153679 0.40404680491354933
P 3.129747298899803 7.105801190448157 1.8549281606555446 -1.3449854584295482 0.17531375437607227 -1.4954849819754181
P 6.3139480140916735 7.781598125379275 6.81569895413114 1.2171800340470842 -0.1532374913023232 0.022113029848955464
P 1.3403082847018577 7.200231405915289 12.182027450417696 -0.3760233231174298 -1.076637107493294 -0.3358719477095248
