# total energy = -340892.83273691067 ev
CRYSTAL
PRIMVEC
9.09051712387707 0.00000000000000 0.00000000000000
0.00000000000000 9.09051712387707 0.00000000000000
0.00000000000000 0.00000000000000 13.30489069435031
PRIMCOORD
 96 1
Ni 6.183160745632748 2.159106931014611 11.244748018862026 1.252003826594489 0.49200655805398485 0.04820818427411052
Ni 4.700079219784329 0.3962347383584222 6.087453052961215 -0.4116336161218717 0.4278349084720825 -0.41223216893781905
Ni 2.772553215491724 1.624920866364355 4.676988396939714 -0.0604566626241604 -0.039258945500622706 1.620821633102415
Ni 3.471295823243914 4.411318939614572 4.9126582383168556 0.05314855899852137 0.11538802455471739 0.11096058491098308
Ni 5.300816961158111 4.593665624957722 2.775240372388251 -1.1040406963172278 -0.8333259020313261 -0.6410873468754572
Ni 7.098357659417428 6.039457849082346 2.665023305147886 1.3151714603919094 1.2797717407363767 -1.2701043928499416
Ni 4.967067711161182 4.465907495648553 11.370000801619492 0.0004448008469024598 -0.0016038541520101408 -0.6923366319687367
Ni 5.7847779180502075 7.550947241309815 12.593584422297887 -1.2235021196103704 0.680534497127486 0.38355665537999756
Ni 1.936789241361485 6.6690670732144826 0.5704099577533709 -0.3896648251602644 -0.8087042468279039 -1.0694513883781325
Ni 2.7719896034227633 1.3658502155046706 0.16646555172260583 -0.32179592923243294 0.7415071801561165 1.8570875016818276
Ni 0.38842325689297685 9.192512844742982 4.884012200386084 -0.19797982851502033 -0.40559718011980467 -0.002660320440982515
Ni 8.571039633541805 2.173024512911035 1.2784439831778889 0.9168404749162146 0.09306082181242682 0.25812384499476837
Ni 7.043732741314482 0.712180210338273 5.178635864176476 -0.6379922528899014 0.25154824865977965 -1.4319828476567145
Ni 0.9151878232674391 7.473632392172594 2.6542328611824684 -1.0891429532697887 -0.11177279639963332 0.5103956020841339
Ni 7.895650564582504 3.828389521516489 3.6315961861734727 -1.0366783077121693 -0.5664093984455921 0.6543748080129826
Ni 7.976747068892103 3.8040360258270582 12.775928380485865 -1.5023595976080641 0.20103249929841507 -1.744060521160119
Ni 7.951184534409579 8.765440344746912 7.103707428813931 -0.33045797578280506 0.7187639729223299 0.5760075836569887
Ni 6.952063965453258 0.5449655999949843 0.35876544439324975 -0.8579971795257612 0.2778722312662891 -0.2666866469631149
Ni 2.0357213404985055 6.541572568905312 9.20601317189803 -0.773403514644081 0.24202488255037669 -0.0657168825818352
Ni -0.12445645344713041 4.6283095861643 1.5843335249854185 1.6715811230434694 1.0228234041069482 -0.5387561555046979
Ni 6.167897767184613 2.097791392222072 7.090149831400263 1.60923495670608 0.19848247918305173 -0.12147742528190693
Ni 3.352710025831212 4.299941922374218 0.5814585724084416 1.4461732802244838 1.0685715568763403 -1.3195235667130178
Ni 6.05962061632354 5.740370741326479 4.72641626633581 -1.2120360279522997 0.39940982036217015 0.8235945336761752
Ni 5.202639374952117 3.053559284454655 9.026649994313473 0.8330004003711073 0.2645857985700282 1.745300564214807
P 0.38439888491025526 5.49776301719078 12.523401083936463 -0.28887321036248315 -0.28055286342224584 0.8782322756257134
P 4.00989987927344 6.1327810990814875 12.6531773080732 -0.10903688552570899 0.28974558566510744 0.6135312916340594
P 2.278156344806619 8.668553611989184 1.4700575417968151 0.39672687421336833 0.1888830084200747 -1.9010829334261712
P 6.35275343528636 7.7778647326870365 5.8750140283942045 -0.027747859537229635 0.4464779774945665 -0.8914402896755551
P 4.991212124954063 1.071635624990137 12.7100157671244 -1.0683260165244375 -0.795891668444268 0.762080633432094
P 4.000891176687316 6.074883594771676 8.17021418397653 0.4070146292926216 1.0225495816202714 0.3029839387322524
P 4.664771650819136 1.1629680517134344 3.8049196241029124 1.3992496190897514 -0.5387877800735817 0.22456452098208418
P 0.2474511517218605 5.567587280121172 3.6128097232426115 0.5840844471278521 0.1742842846702934 -0.570593868840585
Ni 1.4676821896416645 1.0827805991279655 2.832611535749792 -1.20828967353599 0.38032375026499665 -1.3883558549953832
Ni 1.7604332068803494 6.732637060282864 4.957056324523343 0.6481098009398774 0.02566500886627193 -0.7038351195266395
Ni 6.165661499943253 5.770187637877928 9.347524344741556 -1.440539478977474 0.3096011869384539 -0.0366544179982401
Ni 8.687307349057976 2.243539655151765 10.229518144302403 0.12328491080429091 0.9778306414463417 -0.21364273186325786
Ni 2.318245525840733 5.393085711157261 6.978175567177155 -0.25005880859844676 -0.24367193123549646 -0.19442707816675547
Ni 0.6739018603386253 -0.05569032672362538 9.036415936985797 -0.7463817346395984 0.33763495314721853 0.669823281357569
Ni 1.4167389310214435 0.8959977413710639 11.29590581368914 -0.6543277568251312 0.8637243118175254 1.445198317905724
Ni 4.1801107240994595 7.03536946545249 1.6157721698127152 0.505099129571885 -0.8978963297135439 -0.39943090340809273
Ni 5.638975112017067 7.721612611997899 7.913469796478893 -0.5225708039940871 0.593601642589668 1.1912396600322386
Ni 5.462546353398001 3.022406081868735 4.853877135731189 -0.058646348888299 -0.5615911511213425 -0.34460135716272267
Ni 0.9169695646467331 7.760901827514779 7.068049874934948 -0.36570831434466694 -1.8353755639260325 -0.1880887946535535
Ni 5.409948620639864 4.813128892197081 7.011238687435472 -1.835380191911723 -0.8706176965032489 0.20223114759220656
Ni 8.125640650787284 7.240460624933362 9.219358051208253 0.33323245320414874 0.40825775767110334 -0.036680643250485215
Ni 4.469589155131278 0.45554399999580736 10.718699785246177 0.0373756124349808 -1.0168299055276748 -1.3703918143177949
Ni 8.174547633545455 6.848332073212833 4.965917760730158 0.940560958461606 1.7178980038321383 -1.024112812342333
Ni 7.353346668035772 6.130981176667711 7.029187004676685 0.5711152885616938 0.8446341279552937 -0.14725324869443027
Ni 2.4277498965293804 5.252600857710277 2.7114567581647 -0.14241751786868376 0.6305039149326561 -0.07542279701568945
Ni 2.4094961379088584 5.192403452538418 11.551372983514376 -0.8635559045604613 -0.10728827826571843 0.16833912283045202
Ni 1.2595366163677182 3.3884812111757103 3.699730521948708 -0.5929730078667337 0.02753882885021709 0.5640270142563447
Ni 3.6722417068627538 2.7018380818716854 2.630842960320614 0.6684402849671134 0.5244986171444194 -0.11239706024719352
Ni 1.1399690430929565 3.612626094794337 8.21583676285542 -0.7041747622542454 -0.9172755055711042 0.2175513228890447
Ni 3.7610742413446947 2.8424774741117704 7.290015761570837 -0.9159264477423774 -0.09612866210447316 -1.2439976684605607
Ni 4.142148724099808 7.1557188232100035 6.054709918909793 -0.6293039810872839 -1.1049999749067034 -0.7794664330087092
Ni 0.8278724961130702 7.221879607692153 11.351547051619663 -0.23101619014469887 0.8081933686297564 -0.1918660023077986
P 0.1463973258607216 5.63583888356882 7.989999224926463 1.34152989578078 1.011088632168523 -0.20570882172816188
P 8.427709448198296 1.7863957241214896 8.052798336132781 -0.27744722791372867 -0.9285320523215298 -0.05121251831807309
P 1.8043949482592552 3.1604455861778087 10.561914725333828 -1.699490447859228 0.40223237741262985 -1.2526036649620171
P 4.000109392204564 6.3377359008037395 3.8785219059987863 -0.16077545155058118 -0.18322015370734251 -0.3081783384489983
P 7.024851737004312 4.098468788755383 10.42963769990401 -0.5214107222477149 -0.4729667678137145 0.7914459739680886
P 6.271175133562973 7.800281948204072 10.504637194299873 0.4510463135915393 0.3973028013214964 -1.863133193655275
P 2.3293632284268373 8.824410530091198 5.790302225377744 1.1653733337884382 -1.2139324736440642 -0.6047484032351068
P 6.9495368016601775 3.831698469792321 1.4429287111936164 -0.052709157468257606 0.11468688472263476 1.3240741621981778
Ni 5.341442482709461 2.94379128876601 0.361987123703565 -0.4966368577371447 -0.9244666240029047 0.12972989509868627
Ni 1.5754229999855005 1.2584821163677278 7.1040265059691 -0.7154107401793808 0.7360950080016097 -0.5303969849067253
Ni 6.765072025799806 0.5730671159430016 9.17160647319145 0.08638058157877382 0.027909324815758387 0.795713748105507
Ni 2.5263001939422662 1.5505877068822809 9.202753312415302 1.4064975589014161 0.41503569982488525 0.6704994814889872
Ni 6.495474555974701 1.8016677930868665 2.53745516764906 -0.7254892074613054 0.7625650292676803 0.6002775119479468
Ni 4.221663478409422 6.940328107694745 10.445776095162483 -0.1659863063275593 -0.0777316476545242 0.11842655427072508
Ni 8.134403909407894 7.032405956831829 0.3064886068937309 0.1415410288010014 -0.6477241354656845 0.5609807712308532
Ni 7.45304237062106 4.169829349099554 8.247262680958578 1.343203426828461 -2.3296344083493037 -0.1188826679715372
Ni 3.081821702557843 8.399137952508905 12.495620463247064 0.7222164502473046 -1.180513531863986 -0.18742776403078687
Ni 0.0338476318962402 4.974558297368009 10.079651877062403 0.5526416552375386 -0.6880686007210022 0.9249697888915683
Ni 8.792620991298387 2.394478603426238 5.96466198227269 -0.6730574720241504 0.1386865900713418 -0.39786175914875993
Ni 3.4679323318646347 2.5025284913562778 11.557532717997077 1.4650333503537802 0.7607583150762446 0.08665903205114107
Ni 1.1315148620585516 3.2161704568669514 12.807500655916607 0.6706198091169354 -0.21714817391335506 -0.5776842000284631
Ni 3.014015534455019 8.547240659404093 7.925577456392573 1.3507370162013448 -0.2779555350087148 0.6426402931848739
Ni 5.683636823223552 8.189774249924625 3.625889159449388 -0.6469710593497439 -0.5266300616651253 0.5289414834071213
Ni 3.158863836177824 8.446981344749844 3.3818105896240476 0.1629061247403388 -0.4504269348399856 2.2976378008380496
Ni 3.2632502456596213 4.423472961166185 9.426701840861517 0.55931469638234 -0.5064805833004439 -0.3787165536788768
Ni 7.474859612000169 6.191751284425773 11.432772641274088 0.17775527393802934 -1.2610397115445122 0.3049960840662747
Ni 0.285440423273235 -0.09419139439568482 0.3032741999972088 1.539798973401445 0.38178285130902634 0.38362993182009414
Ni 4.590274862026718 0.38766419870332863 1.6685926202432637 0.40744888861656275 0.2690844577713301 -1.1687646188581744
Ni 5.916535874945546 5.22392027581399 0.09358687499913866 0.2619622449042521 1.32289916805347 1.0821657506210072
Ni 8.009336573202148 8.804529568884483 11.46630119601516 -0.06780410412816709 -0.5354065223061747 -0.7734081426297712
Ni 9.259055430949266 4.770967073231952 5.697327142188944 0.19392468460904022 0.18958646224500253 0.6634055507566834
Ni 7.834525926652033 8.736323418023042 2.6975664478200003 1.0709513699624265 -0.022931154874876635 -0.06691964464068476
P 8.421155185267324 1.6119850603299917 3.578017586605 0.8563850978436347 -0.1424897658675159 0.47751402086476474
P 1.9381255473959553 3.2162249999703993 1.559332784468407 -2.2546852085359235 -1.1097428889083274 0.6253784207806327
P 4.737741232715017 0.9351869611982895 8.391274655095184 -0.5006452075655894 0.48792827421955326 -0.5300917949614806
P 8.51977820681814 1.566059767226966 12.327819514541712 0.2166133844558076 0.6127442769563898 1.1925115847661267
P 6.3412721120106035 7.800163771479935 1.3931154038664888 -0.06443518765593419 -0.6723025961359971 1.0895980385293365
P 1.884155146534383 3.2114433879014777 6.050864630116724 0.12611183873012474 0.8248721148370182 -0.30420392718228256
P 7.0901671033830205 4.139667012892935 5.820170937877468 0.5039986974188546 -0.889132981698617 0.26472026726536346
P 2.4445764439430184 8.441108870611966 10.32389043999119 0.3414661539678506 -0.6102667619501748 -0.6743885321307482
