# total energy = -340890.61420911097 ev
CRYSTAL
PRIMVEC
9.07190987185949 0.00000000000000 0.00000000000000

0.00000000000000 9.07190987185949 0.00000000000000

0.00000000000000 0.00000000000000 13.27765710017219

PRIMCOORD
 96 1
Ni 6.680227775536131 2.206605976096782 11.30111842243973 -1.4188411680684339 -0.517963901349695 0.05574974406679431
Ni 4.529613626620755 0.3359545918523505 5.927345446680251 0.6233161389349652 1.4667138233799968 -0.20719131981095928
Ni 2.734990289504725 1.5998857217116127 4.647963040078382 0.2912257697550597 0.5580078046454584 0.24632916635268542
Ni 3.350428649191471 4.65609419281699 4.843145179062172 0.7232587754688898 0.23300390999868903 -0.5998195984749218
Ni 3.5993164940913216 3.051663444304036 2.848628660211978 -0.9422913108891514 -1.0772060926228866 -1.1566056148981372
Ni 5.158714282440878 4.592336810861235 2.4361715603495693 0.7085937172575474 1.053408733092973 0.10442869732973628
Ni 5.407638414979861 4.793279612557305 11.291014129323294 -0.36011873607203143 -0.538030333082267 -0.11019413905860377
Ni 5.805886182548972 8.098502935299498 12.36168455069083 0.0760311200236497 -0.6398203072375755 0.8192462840098085
Ni 1.9665541713256884 6.618302919356566 0.16670087821969048 0.6987988426543127 0.8254207882516366 -0.2709132834499528
Ni 2.7863100831478254 1.6999670304389738 0.4335529188720722 1.427969098511631 0.5283102775810257 -0.47058155541098956
Ni 8.161062825163881 8.878142862060685 6.6182484878978665 -1.823457729442524 1.051853729901027 0.17176100402780742
Ni 8.511175039423767 2.2436919432901696 1.256529358667216 0.8299137910259837 1.1648424009856326 0.4097878211623846
Ni 6.936436651630959 0.8649657742263068 4.376089697361044 -0.484974590907868 -0.7875754352690887 1.8790028136976797
Ni 1.1002502904063718 7.448273801594493 2.470892480662498 -0.4658093308333268 1.5750272004761194 -1.0489265289519032
Ni 7.810506087324624 4.374112021028324 3.6580743465656007 0.055596506318381665 -1.6087595597315585 -0.04301892676368721
Ni 7.651094488615669 3.9395493985973906 12.42945353115268 1.1224549371583572 0.5279796337144843 0.9317739562975953
Ni 8.537909957554616 7.192182860326846 9.311594175543187 -0.893159843469823 0.3816054451908976 -0.20494211876546642
Ni 6.8183113143449745 1.029970205316554 0.2513898776180349 0.4643862252335551 -0.8468064530162641 -0.2638707747808746
Ni 1.9486008618648973 6.372191078850348 9.278041717210323 0.5308466708496341 1.4675157504560017 -1.709375568183424
Ni 0.1247578105284213 4.77327605148553 1.1739722580679044 -1.1667625008264808 1.0518899824556014 0.5403510107956435
Ni 6.28311399668991 2.0805245739310037 6.636238992188768 1.0657515709290417 -0.2620036396651488 0.3227531509393796
Ni 3.3338270542883643 4.313493519857528 0.19210222561242177 -0.22421330829025257 1.2334638588087723 -0.062523315345202
Ni 5.8827343303217665 5.572783460671746 4.7594159877188815 0.03914941650595193 1.1253466568838555 -0.887299270923988
Ni 5.520883064802526 2.9630943890914514 9.014692340925205 -0.7391775035816753 0.6766845272537766 -0.036874761539162304
P 0.4449163930664062 5.566650849658358 12.297062615732743 -1.1913705291831482 -0.1365543742196874 -0.3758307474906495
P 4.005810627653287 6.226468992004119 12.531598699355701 -0.19503848649850927 0.12395622583970266 -0.6454291687839206
P 2.5585144284937242 8.63334644847302 1.2625095615962476 0.023580615533417455 0.5878505990385038 -0.38135347708109163
P 6.29181395817192 7.7611548981044605 5.754151802628782 0.9028565019322967 0.4563165608515431 -2.1361540103665337
P 4.946721894628968 1.210165549338633 12.346720435503576 -0.7427423381147983 0.3234830871268687 0.9201127179095832
P 4.316051798416367 6.138371676100257 8.0328232156607 -0.38309077148717247 1.0033079597818397 0.34903651011594083
P 4.7246052554991005 1.13716389131388 3.6243086983528343 0.7335056500078787 0.7930691113938084 0.3638067264465799
P 0.44501981283793374 5.743035991571528 3.461803578407836 -0.11044199340335172 -1.0823637255644265 -0.1310097902523744
Ni 0.5229974133787272 9.131330792197735 4.534306525551562 -1.6236182220109456 0.1625276583549975 -0.7307376003444382
Ni 2.04243162475169 6.803941409248515 4.627980344399107 0.07885239152252872 -1.2772353474677682 -0.7819894565408789
Ni 6.413613418920067 5.9782343246086525 9.243466854644904 -1.2482297042640373 -1.3468996447331254 -1.1141621010219458
Ni 8.825262699934889 2.605715575095289 10.192381360431252 0.40944175067687555 -0.7216857745548152 -0.16675300929025474
Ni 2.5314438497008993 5.518333858153471 6.937216835872307 -0.6765737127075251 -0.2681758299141317 0.4079314846799362
Ni 0.7566163269226116 -0.033402771821441614 8.853089876003626 0.3732357330699636 0.6499815640412935 -0.06946683654257069
Ni 1.8995581175773597 1.1993246171478067 11.648634256119687 -1.2630541708713796 -0.22445704886994247 -2.2448329983321917
Ni 4.540980729579003 7.103377935459902 1.311589500713896 -1.144804765608467 0.47493983237968534 0.006864331220001081
Ni 5.820827617961767 7.808555626721254 7.802880239960935 -1.100228521659989 1.5028645622689407 1.3735403872491054
Ni 5.161671725030174 3.0920878742976106 4.62768822890409 0.7523006712271947 -0.36337658088769675 0.7591467476147506
Ni 0.7897959297633884 7.467869126726028 6.56922660900283 0.8535352870996656 -0.1248399139962366 0.1666285678972485
Ni 5.385829543861244 4.655214217568028 6.901141479428759 -0.8743961897090747 -0.5031774870691398 0.69643008531182
Ni 0.860151311704406 7.6764141888203525 11.276501795243238 1.0921292895916224 -0.543117003576555 0.43151698530936006
Ni 5.005253856549648 0.2660101674245083 10.366105711205034 -1.8486907929777 0.47586645795901267 -0.4752067128878267
Ni 8.136831754133173 7.082857275530488 4.474968978042142 -0.4317578976755725 0.6854579025710325 0.8597529858746032
Ni 7.5047736557237545 6.3052857441998515 6.931813606405481 -0.47859131308934355 -0.5040652889907319 -0.6022438916456982
Ni 2.442266976532846 5.500416836331811 2.1533302787044413 0.30791222927180517 -0.23077270667532512 1.8889573538072306
Ni 2.2801700925280883 5.21612132754845 11.229976505920517 1.0649642991410562 0.23415499288399672 1.7331819265744022
Ni 1.3162252466130693 3.390263405049143 3.799959015573571 -0.9880011542214402 0.8905098074414857 -0.19865268621232884
Ni 1.5927370568025154 1.3904243967291938 2.317681532290304 -1.0045274340112378 -0.49878372887681843 1.6605500620402884
Ni 0.9438142781062796 3.2077093644834536 8.1183840255892 0.7811114248112999 0.2060600344199935 -0.5959004659261737
Ni 3.7368194306740463 2.76895551973272 6.963334864137904 -0.04185704524510211 -0.23193381686296186 0.10942512210306315
Ni 4.158663235589048 7.180371233789226 5.753394298161892 -0.0402660466088984 -1.7418128627765228 -0.020183674036726527
Ni 0.5736939668197273 9.266411528868366 0.2579116735611186 0.32888960285442065 -0.4402175984071515 0.33718706697652245
P 0.2936023810298627 5.8591655087052255 7.812998140942047 1.1144474934728483 -1.6447123236770835 0.8525492690373124
P 8.327795455067813 1.6390400843355513 7.812373993548968 1.1514814062976941 0.23656360232548934 0.14659221807166367
P 1.9808515011438828 3.317724414423329 10.234365251716545 -0.4363784271667194 -0.4803214084065728 -0.41225633730753514
P 4.1005485815183915 6.287060277445566 3.3606681137636767 0.22264904912692624 0.39724649416226426 1.3953515695869259
P 7.117856703473758 4.062074612128186 10.098547875971525 0.22063973200638132 0.3180927693492328 0.6393150854663828
P 6.4843198837696905 7.788125685889671 10.34033422989315 1.2275647197155182 0.5914408874929233 -0.8897441329200546
P 2.2747541623875667 8.750573666690476 5.425529128263149 2.944593947789458 -0.7994852993327972 2.0627410446920216
P 7.0158521498723765 4.032826774987413 1.369763122198142 0.17734621142506876 -0.22040087652269783 0.08140601118231787
Ni 5.108337967415221 3.0335286966475823 0.5049878580772806 1.3751776657422123 -1.1460782330042518 -0.5479311371357467
Ni 1.342134620953655 1.0984721960888806 6.78254621721601 0.5942557312338992 0.52986270966981 0.3428771753827643
Ni 6.878449004297266 1.0527860584210966 9.279700969509655 0.6487479487445086 -1.1096876101903599 -2.180781419267922
Ni 2.8677576891806615 1.6280086420392794 9.196344633658452 0.7429246293289334 -0.7205166939473785 -0.4863555304157947
Ni 6.344576185470537 2.1193251320734006 2.5096767093672856 0.6778644064944905 1.2228266908099006 -0.39795097642845656
Ni 4.094996572731123 7.020741909245476 10.37688767598227 0.9135756881220136 -0.8157871218166143 0.09567743349966748
Ni 8.613161449205583 7.121467323567439 13.552770059373607 -0.4346385616574773 0.29109361505256964 0.07001216752307943
Ni 7.627353300713248 3.93873292671691 7.879890774918848 0.7511274768546999 0.0989728164214876 0.3077808459002635
Ni 3.364780410468364 8.524610537812565 12.440288113006657 0.12365129300477415 -0.28201633534164977 -0.09499120606592028
Ni 0.2753097821431829 4.922164234846068 9.917161390194922 -1.3620637540680736 -0.4030631008440413 0.10579086778458556
Ni 8.759763511300775 2.5508395928172063 5.732947120701722 -0.0829936673844119 -0.22830419053017453 -0.2540298774310528
Ni 3.650418561899627 2.899799674534635 11.61946353021207 0.8041307685246086 -0.1380499849286074 -0.7557996855193887
Ni 1.1293801927199647 3.3671028193728425 12.685566245003805 -0.26834218028866685 -0.20798990445285467 -0.9760087577462546
Ni 3.0102683199636666 8.349921843028838 7.760763898792808 0.5591092652397532 -0.1554499255726097 -0.16511650212809625
Ni 5.9155111403681735 7.816411900593434 3.2718804255253193 -0.5478761155280952 0.24523464773692608 0.9361887975358393
Ni 3.3960875711299057 8.54466853034304 3.3478549483860003 -0.1702869905854422 -0.6849701643013365 0.14500301920767286
Ni 3.852214123115311 4.617774445893099 9.492582404480311 -0.5759327645549952 -0.5172725317096253 -0.6980542511788043
Ni 7.543837299249861 6.195951087493709 11.376176682412316 0.4974043320307885 -0.09049974595346995 0.7645491495772445
Ni 8.184114547922785 8.802637356935792 2.586367913100833 -0.37753076090089177 0.7430195030355848 -1.338284906480921
Ni 4.820295759891432 0.5473164819343325 1.4727311126184914 -0.8271349427292658 -0.501008247331963 -0.3826482846331152
Ni 5.882271662922828 5.554939014128352 0.16982524394899645 1.2437824671259612 0.05274669557441238 0.35359121936615884
Ni 8.349350312712502 0.2074110733714339 10.790685604110623 -0.48270893480214283 -1.177189866807392 0.34891566826736037
Ni 0.2351157786580989 5.00319453302888 5.631612074042334 0.21447808328035964 0.07705930417784794 0.34344410362982786
Ni 7.448926979098878 6.197103220036165 2.2796811165907784 -0.0981631760359987 -0.19047220728406553 -0.5420283984980666
P 8.756071244019045 1.8089115950244414 3.56408119649369 -0.5923328031795734 0.036601967493749867 -0.9811795033139165
P 1.7763978703617453 3.5743505983681803 1.5400891355671664 1.3652784043506294 -2.9492062497504885 -0.23739638263942986
P 5.004364809390903 1.0346150231255107 8.09190856407815 -1.6851346933581883 -0.178212416080106 -0.08577714366682002
P 8.708244135642445 1.6464881222674912 12.220742453109326 0.1103149809071842 1.1374982046447248 1.520370432363188
P 6.731565712998798 7.883725471184172 1.103989731618973 -0.6313382379084934 0.5810117217397994 0.1228748198500658
P 1.9221018133884087 3.449820492775315 5.984133787540615 -0.3308806651425205 -0.6701382414948266 0.4450684987415496
P 7.086422536075253 3.982504891420456 5.729242152746296 -0.3824809058173154 0.4304895724861102 -0.641376853091418
P 2.5827817871635657 8.460281625540473 9.94319958565443 -0.8478500637894301 1.3472847959866863 1.184401811174799
