# total energy = -340888.50092773297 ev
CRYSTAL
PRIMVEC
9.10486670391387 0.00000000000000 0.00000000000000
0.00000000000000 9.10486670391387 0.00000000000000
0.00000000000000 0.00000000000000 13.32589275521335
PRIMCOORD
 96 1
Ni 6.7929132071968965 2.082674457331823 11.189231641501609 0.234075545796313 1.1245670984053535 1.01084643425073
Ni 5.163014651591703 0.981650276912027 5.703201823292118 -0.37276907784619023 -1.8905768916885246 -0.05111918727331842
Ni 2.9366471925697257 1.8598783762674418 4.666514449902038 -0.5533631067845953 -0.6605626819912496 0.7051052444883147
Ni 3.7287250459492034 4.47383999838344 4.8932274444962065 0.23716369780333352 0.08489988326818927 -0.31473567995154184
Ni 3.605099169827742 2.8806613690117002 2.6958680898580107 2.270446328024922 0.3804687604832931 -0.11829491378886724
Ni 5.365033427507374 4.7237594764846325 2.61737867847985 -0.5811564748477798 -0.3100742699201305 0.3654046670613191
Ni 5.2032126367939595 2.9431116477211643 0.4676550744146307 -0.9271513699239193 0.3702727937868978 -0.3713986798612249
Ni 5.9510317345521075 8.220519840894104 12.457457588683411 -0.9744786942549735 0.3654501755872739 -0.22340778166982167
Ni 1.9941205266235198 6.4898941481898 0.2854302780753369 -0.0552280672353694 1.2125062827204989 -0.24100312615408168
Ni 0.8824755195359023 9.423081491523543 -0.13504337860020021 0.3475100461690854 -0.24120727174508777 0.41650431395061166
Ni 8.229934272762538 9.119889440054648 7.023890921217732 -0.1967986637227256 -0.296209081902264 -0.13694209657640932
Ni 8.947588948102775 2.3296348538496106 1.2545859468122658 -0.47183162576800675 1.2035683568009208 -0.1790104865013691
Ni 7.534586520127972 0.4517097218699617 4.6947386252878776 -0.23853949510493755 1.6918373021893442 -0.042173290933940275
Ni 1.4182377261608268 7.616147913433028 2.5403815547063657 0.030204805718154433 -0.8599080233952286 -0.9662971868854456
Ni 7.972275658212439 4.059432003710563 3.5570400429666784 -0.9486583907577598 -0.9295355538853798 -0.3782154456727421
Ni 8.007038038167641 3.9306345634679496 12.61053133423628 0.179844038146258 0.04614204577370117 -0.44399994826771916
Ni 8.547821578617944 7.7191057428027054 9.592763423895763 -1.074461439998214 -1.2877511593974273 -1.5268457556748867
Ni 6.844319282950451 1.139883750259713 0.219057622916239 1.2333525300418888 -0.0373082495321551 -0.3754502242227792
Ni 2.2004823238169893 6.79870390223396 9.062272934922506 -0.5793207071906216 0.3787373796144832 -0.44848215240878886
Ni 0.35910867804220176 4.966440585789496 1.2359446433234544 -0.3704877380111813 0.05426390354988719 0.5127659020885234
Ni 6.820027499367297 2.185832593762531 6.870257226380619 0.3450073343518897 0.4701460105354677 0.681842160195316
Ni 3.5536293600093134 4.633894445013222 0.035612774477941145 0.5722725420945887 0.4490938178508588 0.9623400020099103
Ni 6.333381494593693 5.875852852600795 4.707265100495412 0.0714481286386576 -0.11811776478105464 -0.14018322922152632
Ni 5.468564863460912 2.9940988996198383 9.389983481148176 -0.009598442321712503 0.614681860298735 -0.7759033982477992
P 0.15912392928263072 6.000571312691515 12.356500098464116 0.466665508186035 -0.5386795366304915 1.421746771751003
P 4.498432242558138 6.644531199305347 12.590222929707709 -0.926860578156378 -1.7968879493737957 0.33410405717582464
P 2.732188312456046 8.777036590501712 1.0541149981863753 -0.643030329534441 -1.3805381587231773 1.1228334035436984
P 6.4944192667958065 8.005426476812987 5.745484822902376 0.34471217170897406 -0.5282488282154708 0.35520767192365926
P 4.956844056592853 1.452071409742161 12.222508331934325 1.3417263280623022 -1.752382153651937 1.4986268700385095
P 4.222900775244273 6.556842230906039 8.030529503993314 0.1538617551498834 -0.6478359784532004 0.47250859723037336
P 4.7407218426073525 1.166834154834726 3.6031479969559768 0.5764415858706137 0.5326585272473923 -1.0219302028687174
P 0.0930225991425651 5.834507654230818 3.4945151043526486 1.545797871297357 -0.6647957462359907 -1.260021554692643
Ni 0.9466329606973312 9.299528454333366 4.338151084754736 -1.3215112865670078 0.2317276143894267 -0.3646829584039461
Ni 1.9354851869400456 6.575716618974958 4.650776688311527 0.8220906954371391 -0.4920111860396752 -0.5373083673145778
Ni 6.231161159403264 6.095343867158174 8.924190351914488 -0.5484507570846425 0.610436968979452 1.1563862997984795
Ni 9.017650895131398 2.675210058459279 10.041459434983858 -0.30698174703773584 1.2719435029412094 0.6041781325539336
Ni 2.550473388635739 5.590242298170531 6.847017054867876 -0.7916899716580946 -0.8413827108975317 0.5198431206502788
Ni 0.6384186649164157 0.4272331094986755 9.073719572973758 1.859010172625837 0.11329617502269519 0.12136789628723614
Ni 1.8588950506951103 1.5267950483729487 10.998644935850932 -0.7312924444066438 -0.8573117234229621 0.46946929618341726
Ni 4.179015319145772 6.925807837324224 1.7108581172405177 0.3095531073093379 0.5768254515725937 -0.7552199017565187
Ni 5.8730758683456 8.464302639034635 7.883957543544168 -0.4100768131577131 -0.9417768331465781 -0.3991110581748288
Ni 5.7978059377301845 3.0749865328105184 4.707184977671 -1.1558152577863576 -0.40774585103169136 -1.2315247328045307
Ni 0.6661502670294477 7.436599947818415 6.399773269972253 0.32874973484244674 0.2065313176294572 1.6371897900477932
Ni 5.485326922522601 4.797490684676679 6.922215057038649 -0.5637619335204163 -0.08687654737858587 0.0707539307851104
Ni 1.1391644658132853 7.664795214664208 11.185274666559616 -0.45592395339881486 0.5551551656880117 0.45904604396756427
Ni 4.657585307413283 0.6178726233745325 10.266334157049751 1.393404473162884 -0.061263731906488046 -0.43182063259270786
Ni 8.408945051258934 7.414220186181461 4.512347209893272 -0.586541393308777 0.11265442767363823 -0.14875040206524706
Ni 7.5370448340588005 6.353066215773145 6.825908332581824 -0.8450493611158414 1.2658353331609427 0.38009826451775186
Ni 2.753357126860406 5.1928604036852475 2.6801030136682695 0.47038666579136407 1.4707437704749962 -1.4648641717657676
Ni 2.7758734614935165 5.803387220839807 11.281767130291215 -0.7785986856917753 -0.4775420458892227 1.1699637813725978
Ni 1.3169916116763187 3.8056338525185063 3.7023063655725625 -1.1863203683537504 -0.9092210106977439 0.9115535154856623
Ni 1.838026696882296 1.2807269287633876 2.339387076261873 -0.5283174766698773 -0.25254120870066826 0.10170615619225065
Ni 1.1868557560713657 3.6535552688643027 8.113642366534716 -0.11174400004422691 0.37329332578077645 -0.1468426435195729
Ni 3.770771319032788 2.9739680399862727 6.837649057818136 1.9414345977703402 0.5333853781110879 0.20879928772802747
Ni 4.269608739930022 7.021554612496804 5.853038788836063 0.3592520171963619 1.5540750237044847 0.5217462512102627
Ni 8.420644804596396 7.641668853981596 0.1866597767678374 -0.32679209689544364 -1.007369788556039 0.08741133683613332
P 0.2301482606908415 5.963341513939073 8.042801953427997 1.0019190498541133 0.42229726648330496 -0.46785490050844586
P 8.715651581162273 1.9191328468668283 7.959729152298801 0.5837558601438397 1.0681115865207862 -0.49430589561112287
P 2.0570351535199185 3.8422900446870876 10.59184587803729 -2.111196826200564 -0.3763061444651713 -1.8771104817709736
P 4.352863638387427 6.330722873601834 3.882059190681412 -1.0513693340654409 -0.23116839945184706 -1.8391406873954195
P 7.194838430021009 4.368132499357797 10.348701331032133 -0.4181601043864799 -0.8770251426914896 0.09596591127436375
P 6.535454899707829 8.008066888072026 10.186458985003915 -0.7313263829683727 0.5785303500788423 -0.07579869229786945
P 2.306317290972378 8.709742522861873 5.726748828802896 1.6039693374317665 -0.2688815977319046 1.1185810560252478
P 6.840149254134453 3.5352739493257914 1.5301319819123884 2.351783176532201 0.5567243099473443 -0.19233831395852682
Ni 3.0750684766082133 1.6163414095199933 13.49086721016572 -0.5491788934999187 1.0775652757345184 0.13162274124602494
Ni 1.8370342664435542 1.5217418475151336 6.923800214280714 -0.673396600531124 -1.1596474870482545 0.29625767575201234
Ni 7.160986536706854 0.9321289085054406 9.250007996413421 -0.13465741430729067 -0.4276011951947216 -0.6147394530095478
Ni 3.187859561701207 2.0901677623876456 8.915461516486763 -0.6326330454605169 -0.6476025222861557 0.961933253489795
Ni 6.662604359130145 1.6100590516967639 2.6135009158756275 0.45868763218688097 0.15539927484033236 0.3434225063632731
Ni 4.337940762340654 7.197114646623628 10.364492811334465 1.4230891447115106 0.5868820644776472 -0.5843330728035485
Ni 7.175818364089522 6.253732123234838 11.577655257925626 0.8708005019380165 0.3022671151708859 -0.5484646410417134
Ni 7.735758543467469 4.381571282179662 8.22506043777301 0.6433332054868405 -1.3536156233007204 -0.1101000366829007
Ni 2.9705081907502913 8.650560891193772 12.192005208485943 1.9959365854729627 -0.5661952255522571 0.08928875636450428
Ni 0.31195730636226265 5.620843754176146 10.217321750675511 -0.0358648322174092 -2.2160142743282867 0.10910450553885082
Ni 9.09170987851422 2.4403773440002468 5.6665428996636145 -0.4934751721797114 0.29383158280902294 -0.48896417168323525
Ni 3.6385413441534253 2.8931714554596963 11.564849263319287 1.7269498296217614 1.5344855316083312 -0.6869573699346944
Ni 1.5725378972191868 3.456298338081311 12.67802752991043 -1.5917864222123295 0.19925586701396653 0.4740507449065127
Ni 3.273090216169685 8.696467627635398 7.717090835866068 0.4348601907499801 0.14223754064739375 0.11349569262801097
Ni 5.850086080659144 8.053135976803889 3.5096273616207587 -0.2885695630791353 0.5407852701195847 -0.3534966027698235
Ni 3.3013972458398593 8.649550251022207 3.677853425853944 0.41575098072435496 -0.6621675645845242 0.17568862121698775
Ni 3.3634560152936728 4.629669786998759 9.205060002404817 1.6982774013877333 -0.17974067979917432 -1.2795552538501962
Ni 5.2718633295289585 4.827809889823567 11.325676259042382 -0.7548949143169322 -0.31785288542428486 0.1397731382673012
Ni 8.775106358822692 9.042097461443529 2.0651002441863193 -1.6183232921605935 0.5990467248646393 0.5948920792663174
Ni 4.80990972246057 0.4818577555283344 1.3057989993979189 0.018076397885736614 -0.9854228519713029 1.0488388543341032
Ni 6.337232853085325 5.4012981104203055 0.42412835005270266 -1.447889748694958 -0.1378088154520788 -1.8294900516795332
Ni 8.069060388155814 -0.044114898732044903 11.580573367610183 0.5281079317622325 0.21882787560862313 -0.5673511935335713
Ni 0.048016333988934456 4.977603152008741 5.8670038329364536 1.7747070424013822 -0.2493406994854996 -0.6575331511363064
Ni 7.277710924089173 6.174456051398812 2.221253255559211 1.3057095436480608 1.4663024468741908 1.9051856427406348
P 8.78955578181612 1.8257442320945623 3.4412252317387657 0.3068606480788392 -0.1217327358258226 -0.036457214385769474
P 1.9829943798699166 3.386882836567831 1.544310990373425 -0.5547306765560833 0.2776845407355153 -1.4019176528402177
P 4.9801434097372645 1.332961547360296 7.824417180139492 -0.37264952154919045 0.9088525716147314 1.6998714853477306
P 8.971316229968478 1.9047926822703265 12.202972930564005 -0.9875771793101444 0.2371197319392755 -0.057035552757753384
P 6.5717195826207595 8.127968873831602 1.2825906949176122 0.5313071554258204 0.3088604521176875 0.7931758121750017
P 2.0081511257620654 3.519012657916679 5.889631246939771 -1.4923474647877009 0.8914446605509294 -0.22393331515598852
P 7.238578208256943 4.071250120311362 5.7745093160456955 0.3336613132114512 0.5206021103034906 1.0303719058781675
P 2.7618155477557393 8.803540856622613 9.957573569284206 -1.9293259874322641 0.31147295003987 -0.5184521538400233
