# total energy = -340873.80287833314 ev
CRYSTAL
PRIMVEC
9.27383336473743 0.00000000000000 0.00000000000000

0.00000000000000 9.27383336473743 0.00000000000000

0.00000000000000 0.00000000000000 13.57319254273918

PRIMCOORD
 96 1
Ni 6.488826914964834 3.8263557660138257 0.36548825897338344 -0.40292091883922215 -0.32785499094231924 0.2802235051072851
Ni 3.093991882617005 4.72752196172262 2.9286199612139536 0.07468951839409071 0.5603081706438608 1.0669946993075237
Ni 4.3369081064001085 2.6746105966389755 13.019460270095715 -0.5413905078037515 -0.11348180867094004 -0.15711342931796168
Ni 2.3708925586092446 2.4826422489377413 3.106157297037995 -0.7225841179993684 0.1723636706088128 0.1303590440422529
Ni 7.233701199378513 7.976794907813513 5.509602865024093 -0.868660315666562 1.3338335555777867 1.1352670013213608
Ni 2.170049152514287 0.482148443993078 10.740589176401206 0.30272220043043346 -0.24141604532178423 0.736359574516906
Ni 4.7982071185428525 4.214484234032766 8.69762028791517 0.8008796085771627 -0.059503040461639456 1.3773358497357957
Ni 6.404972914968962 2.61712210449405 4.853108211218761 1.0158253755225601 -0.907829786777172 -1.9107261129428896
Ni 3.358963845444043 7.694453055361142 7.291070986458193 1.8600483840823645 0.4284427172594105 -0.897550516338351
Ni 7.959897983682516 4.610430543458089 12.189296396303355 -0.097621958820548 -1.581544432769347 0.23353124325706875
Ni 0.6778040677834916 2.19615499303501 9.676138599147695 -1.0395417453028937 -0.8248304629658052 -0.6649505266462999
Ni 1.5937082392491364 7.626800442004596 0.9952353229990104 0.4611995999754573 -0.8401403538499983 0.2956583516051166
Ni 5.607905497180281 0.9651000019432057 0.8602676638152092 2.152591329986951 1.490604256844349 0.23702511534294013
Ni 1.6217615847465392 1.1346256732465179 13.272383668800362 -1.5325965421157346 -0.4489120408573559 -0.46591114651851373
Ni 4.870246255013537 8.850686760015577 5.141443742082694 -0.28398939990762057 0.552412569945868 0.6659540282101498
Ni 6.664918460189522 5.932730779623925 9.899119572527562 0.3807749788698023 0.5023166817307413 1.57940244672568
Ni 4.648907677497337 6.905834099637961 3.498314318208694 -0.431252933014696 -0.5756543140826279 -0.4903888199449039
Ni 0.9186427344161847 4.73890095508636 5.829034486065658 -0.1812478604723201 0.5609751148038984 -0.320968291124815
Ni 1.3994121594091093 0.38509221502196506 2.2403095677729383 -0.8972792649548352 0.7117404904166451 -1.5605940557699252
Ni 2.0793139682674813 2.752167663876919 11.697933471620617 0.23598896076894196 0.3286872570356275 -0.08598488880225191
Ni 4.471833105951087 0.3375582554578372 11.73893865259626 0.31583996875931414 0.14766951029624245 -0.4031073238184154
Ni 0.6856682783559866 1.5779149012715905 6.680494790469667 0.5962033418785732 -1.1858945936702414 0.316905433909351
Ni 1.8923813120059456 4.290807881452146 9.450335598318286 1.5713124706286938 -2.0189793262250393 -1.5914519216910463
Ni 4.103226056865051 0.15653303095889542 8.774336218479853 0.9654201835971309 -0.37938915426586917 0.42660772093320076
P 5.7157138083893075 4.302761852475666 11.79449355051434 1.042839699327875 -0.8464146168944842 0.00012238451047720859
P 7.543141192506391 7.522460544420703 1.7013588952933842 1.237146192756366 -0.10668689723629368 -0.5334871937962747
P 0.4473808432427433 4.018685793210729 11.033336269728977 -0.4356526047442884 0.9796548391392741 0.472567989713399
P 6.885700607712386 1.5851484911849703 6.611786814892425 0.21823343655773383 -1.6209589300112277 1.5129697690237427
P 1.4945431406032765 5.21717108202588 1.479246880086445 -0.9162972008182348 -0.19789832454480757 -0.36824136517916584
P 2.3212960985364814 7.8469519688683445 3.7034181232859686 -2.252546564926366 -0.17370295824552667 -0.645753899113191
P 4.822615847583899 6.768173319286408 5.749047674523477 1.6868146521637724 -0.5255957068633399 0.6275093510807064
P 3.8515156755458766 7.1308914842762965 0.8773370812441412 -0.17386673751690057 -0.7073107367800657 -0.08918668356900124
Ni 2.128632213343576 5.4637901289060204 12.866395652761952 -1.1545811282689404 0.2987627015620532 0.5572999799451563
Ni 3.973234736588326 7.603866252445893 10.139757924362655 0.4198724590918963 -0.663601211707257 0.3991401116405513
Ni 8.850566200183687 2.0763556154695735 12.008107952339701 0.7601888157260198 0.12262490862278881 -0.8745725673859389
Ni 6.231756258043181 8.65265332538697 9.785362097306443 0.8316932515239096 0.07039474767347877 1.295432587202085
Ni 1.5806785035718305 8.881364600314885 8.708424303619129 -0.4951273630711537 -0.5378529269641382 -1.272348708799428
Ni 8.157421357483896 4.227541791209739 4.330567586626034 0.9128318679774537 -0.5959518879893995 -1.7472142362977523
Ni 2.885636671611999 7.885039601912256 12.293295016824668 0.8660943547115987 -0.7067890599486408 0.10924797309525056
Ni 3.677538564295869 4.3809124450398365 11.112155505668474 0.7912102038081987 -0.4987803864427087 0.05583253358858772
Ni 0.6281297075116611 8.37088645059438 6.105480035355304 0.3131868474071832 0.18393980548218644 0.47678228490506275
Ni 9.101859259007858 6.4375611649120605 11.390663555466753 0.3599714118608897 0.45957491988784077 0.009006831484300617
Ni 5.111727598288535 3.0305774110430423 6.726276922938106 0.6639364835594888 -1.1218401863924938 0.999549264070356
Ni 2.8630177923828537 1.8547295491234816 8.17714216383108 -1.237267805935895 1.6990836993391125 -0.4813053695863969
Ni 5.0661930771671315 4.433495079410174 4.885602795446315 -2.5927852742450184 1.3676695302906252 -1.6674246776729347
Ni 4.834866581270532 2.911186082139386 2.1341946585103004 -0.9379055231166299 -0.3065402886249431 0.3727191984448613
Ni 7.46510188594089 6.486888683821377 13.338769476538745 0.2906655263762155 0.7932236346938015 -0.11629228153654166
Ni 2.109787784235899 6.050137508218013 10.628827430089522 -0.2105167846397665 2.941321961906405 0.3769872296925959
Ni 1.5426650611936972 6.5085709058950725 7.35825805338698 -1.9670425281464317 -1.2944190583359063 1.1942599349158014
Ni 5.3487018586175035 6.5720317466351466 8.072411837868527 0.309509398555596 -0.45985774123558226 -0.936054071730188
Ni 0.6437607534078172 6.147679686049974 3.397587506048202 1.0234695223313792 -0.32622542575869623 -0.0534843450713853
Ni 8.292745131863434 3.3428366494704944 6.520331053804249 -0.4916396616328695 -0.033286272856955575 1.0049506375915853
Ni 5.8341963016371805 6.085980873622133 1.5791186448238428 -0.3289667359492593 -0.7093892165756492 0.24289262986731072
Ni 6.175862865212489 2.008369144117025 11.732776190420052 0.22855847263282572 2.01851704187664 -0.08723778737274654
Ni 3.7158580431703374 4.5998120044185775 0.7488490493327484 0.5723216501649692 0.3698747870175308 -0.4473989466469392
Ni 6.2502204599887445 8.428467681071528 3.1062389067703506 -0.07021579889345328 0.45307568531674225 -0.41436515612042185
P 7.796928912467356 1.9591992803724867 0.220371316711117 -1.5256867023697789 -0.07511760707044482 1.007104964930427
P 2.9132170516150655 2.1749364626224295 1.0704053055655383 -0.2239636541732917 0.6619706180823697 -0.4204954373878758
P 6.989298598638498 4.5422400477746505 8.234244864513958 -1.806798523619288 -0.030194778415825414 -2.033099567676505
P 8.847107060391776 6.6553014951380165 5.4156765547655015 0.4797650216824705 -1.9671679979807024 0.07053538701640111
P 7.8679942964497025 1.2401247999831964 10.142988927857296 -0.9129640226799439 0.43121153825379926 -0.7923191206016613
P 6.372959642685645 7.40991330443509 11.583036242296478 -0.33525719694366135 -0.29423267490218363 0.10422120930462052
P 1.0801233553991674 3.375972055573708 7.665908196702959 -0.5203766245562458 0.2317849499899234 -0.14143278535791126
P 0.21689362925276132 2.2919815117208486 3.5168276714703355 -1.001322811031011 -0.2030094205191278 -0.14190355434674273
Ni 6.006021883579619 1.8741489558909397 8.955158346031226 -0.6254504116691486 -1.0943072710795476 -0.52888311936536
Ni 3.5381621247981947 0.20819848322354984 0.4477211929220011 0.06000671957093537 -1.8253665164294626 0.8735513252102761
Ni 9.051706368941758 8.718599553430616 10.49665212208895 0.35911266340502024 1.0116468186648384 0.6642290750992432
Ni 8.956519744748258 4.8069894386043535 8.841306277711238 0.7544943364444038 0.4539827705120439 0.19084578857340034
Ni 8.922902099317485 8.312618956458785 3.368662420227905 0.17106577773299572 0.8230733710653825 -0.38843352385632457
Ni 8.323840294657744 4.97933435520724 1.6248469890595922 -0.46255739955493236 0.7455461261121805 0.614086135696265
Ni 0.3248883445095557 3.163647643949565 0.9616557002844501 0.7511398181498742 -1.008426769065644 0.3209266392536021
Ni 4.677999692315636 6.105335363557035 12.5122984431355 -0.04125309311251605 0.21427856567504389 -0.07378140475752455
Ni 7.438300507928495 1.1780735818929085 2.806121898180832 2.570956351295385 1.0848558958586607 -1.475064509337537
Ni 7.199425111788959 3.5314107742123735 10.144752810936176 0.5066091384585082 -0.03226425935034444 0.3304047539473664
Ni 3.4487530987021753 0.18351061180251332 3.1831718450324344 2.275998882412035 0.28580022786411424 -1.109609962874889
Ni 7.3751642513512 6.551508753714238 3.759082452436071 -0.3044456108794434 -2.8015565369485884 -1.4614343201486122
Ni 8.407184233826392 0.8496583986089189 4.9475232524881685 -0.2919865591804842 0.8774321483219212 0.9511613596852715
Ni 8.375170961543075 0.08100600581330976 7.949085621528657 0.06859343279868188 0.5592378203978174 0.599489983049645
Ni 1.535088339451093 0.5802081017188419 4.514498303073517 0.18129234055701035 0.2095899019501229 1.3753301321596765
Ni 3.9344701137191875 1.9123664225999633 4.841449148091709 0.08704161220154041 0.07953681918406301 0.6679062668405144
Ni 8.82029640854616 0.018704394226020268 0.5994197746221209 -0.46750291648566583 -0.7894379423991242 0.06631157874304064
Ni 6.103081822084021 8.712423180504578 7.5776964224759364 -0.5816910071950112 1.3161153123624172 -2.173718341773553
Ni 3.096273245589687 4.127857357903431 7.109896453244373 -1.1562628868467377 1.0761707093798367 -0.35468290976844075
Ni 6.832088577854375 5.314963653354842 5.95320183907879 0.2704769672434826 1.018958007614271 1.7816474782749576
Ni 5.623689561324605 8.087468833488225 13.599660025364656 -0.04215580743244352 0.15571937718391246 0.0390771685071198
Ni 7.829600626909456 6.909200501097649 7.78746960258063 0.5279189556798779 -0.33297225756422655 -0.21810899516472762
Ni 2.9445440602399335 6.247345571689837 4.8161760977943455 -1.521955774572437 -1.8275941202084007 2.19494665502471
Ni 7.179300893696608 0.09459495363391936 12.015397185252416 0.9737657273483488 -1.355354203258382 1.0349484695052562
P 6.3308657136897075 4.158386816871183 2.8933024221535373 1.430710408702194 1.8274645366090718 0.2897041909042108
P 3.4102852384961504 5.957974153654976 8.78191015807249 -0.7667965508505244 -0.4716027975866523 0.23806718345420932
P 2.953484035466213 0.3339238402180249 6.514806631353736 -0.9179133962654192 1.5818128559393854 -0.38685229541213373
P 2.6572407070136417 3.7879064534742453 4.999237856068901 1.4285339698761657 0.29730051519422995 -1.3772240067482797
P 3.8012514994811086 1.9375727012981254 10.244231365144948 0.46706762872046015 0.3014106807078616 0.37328818357445387
P 0.8967759630613663 8.245430034763352 12.59041194036678 -2.0368554351745116 0.35108362245295666 -0.733404348543324
P 0.20511400629381887 7.1034131164386745 9.212573989548748 0.6589318312560458 -0.4467980798381466 -0.8044380153523824
P 5.460266072281554 1.0541102532106668 3.2773151629884287 -1.4788275759243952 1.35087945531648 0.9213221648366521
