# total energy = -381161.9867719038 ev
CRYSTAL
PRIMVEC
9.32010044546224 0.00000000000000 0.00000000000000
0.00000000000000 9.32010044546224 0.00000000000000
0.00000000000000 0.00000000000000 13.64090909213235
PRIMCOORD
 96 1
Ni 5.2408880892853045 5.40803476706053 9.993984500042192 0.0739536686693307 -0.42882195497570014 -0.09831589956377906
Ni 9.323269078045568 5.7034353442929255 4.808856706496467 0.162634616246507 0.4502554422591278 0.7827286486997487
Ni 2.722792725471728 5.341964576431079 4.88269520067926 -1.4927436717848548 0.5746778091019715 0.49423133361944555
Ni 1.5892262131995303 6.321777394978626 7.3469660535739285 1.5116713619272932 -0.37929248078700484 -0.8385156737623818
Ni 7.174948691411208 1.1534649262930579 0.3518272601394182 -0.9411816227647405 2.0865561448337484 -0.12035822407579917
Ni 5.585834319414605 7.248232639629487 2.502656617759453 -0.9782854695955732 -0.6858361118460575 0.21302540999423314
Ni 7.531041761432288 0.02900787999930926 6.481846388628586 -0.4083991683449741 -0.09041798487294106 -0.8933544759791324
Ni 4.1465591990401895 6.588145859951078 8.705532833875726 -2.4851349846541915 -0.3689846711030936 -3.564454009855022
Ni 6.859463298153074 1.6629761664300065 9.037224949448087 0.31392758222794964 -0.30337500352308394 -0.4980681908670326
Ni 1.6891097275140776 2.116995529714402 7.238029925892421 -0.1900474610418211 0.91925885454972 1.794583469610335
Ni 0.44174479126309635 0.5428156863487246 5.852741486181158 -0.07467332044417463 -0.8046812417114398 -0.46135952259208934
Ni 1.224754373059128 9.363718313104366 3.1120644203512904 1.2632176930324372 1.5397236400788192 0.1585542755295463
Ni 8.759421653486317 5.372599745932985 7.300791480935265 -0.5432051924149871 -1.3625028984880212 -0.11275392936598001
Ni 6.300900370432149 4.6760900145011695 11.686766347052389 1.1079770552571562 -1.1848424982566432 1.339964351065873
Ni 8.607103255199236 3.5776323198479796 4.470835310848431 -0.9291362615644321 2.4187974377692214 2.767843203856543
Ni 2.749988777983611 3.843525459707989 8.957234257094253 -1.1268566657704786 0.38984094572681244 0.4846578309983976
Ni 3.927639364409752 3.2928473367934576 4.704763302901721 1.2473879250890323 -0.8365364385488236 -2.6786709184652446
Ni 3.6260595607156096 7.573345696439635 0.48598171506104054 1.1007630540072204 0.4158628237118709 -1.1861211078587508
Ni 5.174594216249999 6.9893948156541565 12.321301139901951 -1.6676416787797474 -2.7908550913706835 2.378393580030878
Ni 6.910453566587793 6.72365079739805 6.3877646367159056 0.891946282777696 0.6656416391760537 0.1041985835968012
Ni 7.016712029469211 6.7355712056100785 9.303577570250123 0.40288132385053843 -0.45006338085297976 -0.05957117469541354
Ni 4.627886456039396 3.4085284210215216 1.0515216698245948 -1.5282266951828132 -0.5046679555717374 0.11727238606162382
Ni 4.741880602123302 3.1763740440446564 9.898934389714164 1.6521510393433159 0.62432529692577 -0.3569503656463788
Ni 2.2800320432820396 3.347957089536009 1.8156049240552115 -0.2885626211005998 -0.9935413673133793 0.5311896560113496
P 8.840105761298302 3.2418943487597143 1.6214131793920552 -0.18666980281883983 1.104693242299562 -1.2604123623731582
Ni 5.9858530218854815 -0.23252065691645266 12.264309658920146 1.1478162987412814 2.0580325834727584 -1.6839851531347774
P 8.192796839054365 2.1602221546459 10.61880681642752 0.9037705291061338 -0.17482858720953762 -0.710152577104235
Ni 2.713323503623862 8.416917289620935 9.574730974687824 0.07045131194302705 0.026835889245921524 1.0599359926885294
P 6.474142393766927 2.170492905114747 4.9429338045860645 0.757905933229114 0.683761488705216 0.6966409157710455
P 3.0582883739536504 2.613095145600288 11.05240956811749 -2.197398201888996 -0.13280879113432612 -2.640474867011498
P 6.649919484368062 9.126065076983563 2.497431769562687 -1.5036865439496039 0.006601564476917662 0.27334323304768404
Ni 8.441112269854262 9.16122049510379 1.4736681542946866 1.8108989189409068 -1.9213686802584007 1.2092183559978467
Ni 1.2079129519182874 6.029750694034545 12.353984867437479 0.5994778988647869 0.4234522060233546 -0.4284319186261331
Ni 3.648446441501607 8.876575313552928 2.4596331710132726 0.4652519156679601 -1.3031947476460073 2.2676641372940947
Ni 3.587716668311947 3.9184683857696925 6.711435874018313 -1.095845819211261 0.6394662663322663 2.1822685453364095
Ni 9.25636007839416 0.799326281293137 8.159132636973174 -1.5698739384099545 -0.6044002758670688 -0.3263380400771606
Ni 1.7896083684447266 3.6386789764459344 13.16332652845278 -1.8236024825505046 -0.2797509363462408 -0.4979488916803489
Ni 3.1144606181240135 0.9039611827120565 0.9105458335344162 -1.8444554147401135 1.461769592000844 -1.699954274869524
Ni 4.864067116321652 7.831521793297643 10.372001241867144 0.9599036246542759 1.4863539662084275 -0.31404225342894304
Ni 4.74109771370281 5.8890917411526615 5.98404865047825 0.027638073432242723 -0.6187452317348312 -1.0441849005018597
Ni 6.436927233492784 4.591752427393552 4.513599658807828 -0.22533765170268288 -0.03976391016149926 0.8846345796076314
Ni 3.822135829648095 0.5207410289208991 12.060786629892732 -1.674411650513729 -2.3903317262293604 0.8982544843839111
Ni 1.820224897746144 6.046470953872214 9.650997354984172 -0.6315868635841897 0.11253487137663845 0.9348040013731708
Ni 4.790615406298984 8.749989712039428 8.150224485159994 -0.29250669335001234 0.5365694322660243 1.046458527027385
Ni 1.6694070355983406 7.865894322997377 5.318235601209951 -0.6249174219838141 -0.7618294366532363 -0.7116438169377809
Ni 1.0655297804912705 1.251214137651738 10.010353392100663 0.5278155973327943 0.5922893515361477 0.7817390310929698
Ni 1.4568435093342853 2.3685077548979767 5.108206210202228 0.9970210983318635 1.3819702631840136 -2.5243170541702913
Ni 3.407736212500785 4.828082209279712 11.50781203427809 -0.18455867001310797 0.16991263796515899 0.2477432730913927
Ni 8.36210578008619 5.364304856715858 13.116197577549132 -0.6364932997468716 -0.7892055146733441 -0.8262877642376222
Ni 8.620971564362252 2.797325567122697 12.560740107229497 0.20291634658468924 -0.17824018399424787 0.8144210947070232
Ni 1.3006199890449839 1.003401992265016 12.41164459960678 1.619488001892656 1.3660242813777181 -2.7632496709485896
Ni 5.44020775310269 2.4828001441896905 7.158817461908958 1.012238172391934 1.2259163854788175 0.06965709817650584
Ni 7.654206886156254 5.76633670083943 2.3458133108039276 1.4916144432764182 -0.453698920723038 0.45261288674771083
Ni 3.3129228327189533 1.467375222609963 8.756304079954713 -0.20361517242392674 -0.21006761291748982 -0.7325067764297191
Ni 3.7606790886394057 7.8402174468252595 6.296384781863949 -0.20142999184714985 -0.4250141511938358 0.8398649887014247
Ni 8.122476682713668 0.24177738047875633 4.044952398190533 -1.1396656446096889 -0.666894280636232 0.462212614621004
P 3.167641110116064 7.23634019171819 3.741687520372283 0.6094175265760021 -0.5309572282855695 0.8185608279070097
Ni 9.301702366081038 7.512867565956561 3.247231970169431 -1.1619342261999022 -0.992614998844368 -0.21532011956568076
P 3.0868451611011523 7.504619277240654 11.75280205331094 -1.301027050570727 -0.2966891068624761 0.2395437679997358
Ni 0.9022006157759721 8.248223475205211 11.172654705435022 0.14122195489868583 -0.6406155494453613 -0.5046283605830535
P 1.0752972455469434 4.277702329572988 6.251655756773124 0.22957251571963688 0.00965886324600272 0.06739067073983233
P 8.87582970553341 5.79131456949325 10.859377243924683 0.005423485008416466 0.37803803955461346 0.06584415218831885
P 8.757352591232157 7.757641358663751 5.380642992443525 -0.7530280363115224 0.29734370972733953 0.2881874971493682
Ni 1.8997719533283646 8.919923099787598 7.577538809539393 0.002882206643801488 0.08440340324774497 -0.8818274491761394
Ni 5.3935326910809245 8.506408892163465 4.515468338906743 1.2219106067535344 -0.1380481851563945 -0.024915789405073222
Ni 3.540268037969933 5.18374655468957 2.6970394244776106 -0.7922846678193 0.8376301858336348 0.19775331432651105
Ni 2.806869349772515 5.505457774910672 0.3971248113451253 0.42784879242915347 -1.0328118827782278 0.27039572038358595
Ni 3.4393686327287942 0.28782426774407804 4.901751077638067 -2.2691111541532663 1.4160371229607354 -1.1735059901979017
Ni 9.117798148067168 7.407140348789049 8.371275826716227 0.6309399740288102 1.0329409521569244 -0.010182339849640528
Ni 5.005620798826957 1.3752087512974165 2.3086009465598583 0.280682961242207 1.120436878287064 0.9764682138811764
Ni 9.212303964540949 3.2597330206266584 8.665414462375589 1.1172062871649082 -0.5769087553150193 0.09996140558700203
Ni 6.173224317190106 2.10690186115019 12.01755907295121 0.3301383876598572 1.0095400567344808 -0.6443374783816387
Ni 8.012956184746864 2.4218094081931993 6.61856853116742 -0.0561544357043807 0.06707339660972965 -0.2512291747574641
Ni 6.885168134625922 2.68629521291637 2.876826954213722 0.16291075272602912 0.34476950730947076 -0.498389064541561
Ni 1.538934952283108 8.402238131736695 13.524565225818549 -0.1871392862560906 -0.1598645097005376 -0.24188835697251246
Ni 7.227579297488865 7.442370327711228 11.704499701786578 2.821167112090664 -2.570551659657799 -0.9563699004694045
Ni 8.525198214255294 9.225072501875179 12.594024049220735 0.08607899117795499 -0.0363397149712987 0.2211099867745805
Ni 7.1695057528687345 4.18837848883485 8.90346193873671 -1.163425466033448 -0.03349401799238747 0.23610980261752243
Ni 1.9321686217763787 7.278755967928463 1.9248281108242338 -0.15224864502649266 -0.37310769213253164 0.6331948315012579
Ni 8.144677161494787 8.824457312988688 10.029464257650908 0.17504507409571787 1.7283261411439976 0.5241150085527554
Ni 0.8283788977736173 3.8015290880086936 10.868353432469641 0.1565974089134916 0.3230639973115791 -0.04679330620445489
Ni -0.14182955747252557 2.0745983937046155 3.285535718152069 2.511995299380145 -2.805718381635762 -2.440328369862462
Ni 6.788994020208472 3.5784152082684724 0.3921366936945565 1.9467359553785957 -0.24240746270077604 0.19564989483026304
Ni 0.5848083300079225 1.4362367676948837 0.6863610742761637 -0.43683788330164125 1.3900517546405673 2.428647333980108
Ni 5.647524062929394 4.744275867886 2.3673800227684576 1.1481579983514163 1.0125204795190432 0.3832635496196109
Ni 4.903724142859713 0.9865512510239314 10.258836584704952 1.4003827042529304 -1.6265343672164763 -0.5961951143484571
Ni 0.9966821999891188 5.262333639946663 2.696126054653702 -0.6636860581115795 -0.6676465854212243 -0.5958143339702706
Ni 9.198444975478177 6.996151888331029 0.7685857946584751 0.3633218163903614 0.003285355619491116 0.35723935764170733
P 4.436740520135966 0.7732821931714078 6.617177972211021 -0.7669197066919502 -0.007746990935270529 0.23776327906054537
Ni 6.813766846656925 7.1312374212670235 0.5579226368341635 0.12604833248204098 -0.04552343835309579 -0.9893023895313672
P 6.860022504167711 8.692335571930276 8.319167146252232 1.1039725620834535 -0.4888965516700935 0.7932208064803242
Ni 3.707936641358821 2.520127145666761 12.920750415383115 0.9061187176233363 0.3506478204671187 1.4166009658840055
P 5.7746968307582645 4.886481957408382 7.444034897614799 0.03719152144863272 -0.020815394083454473 0.871751552997376
P 2.9304725192079473 1.8065709508887386 3.382127373060449 -0.507016915419888 -0.06318048931322667 -1.1788610838622278
P 5.477450873677564 5.204903182243365 -0.029745099928606702 -0.5345721993303374 0.9055078235122147 0.7734986454610485
Ni 5.31590557614896 9.139989306748042 0.6037672779241913 -0.8301529036199832 -0.1873650291136515 1.8979253616337959
