# total energy = -340857.70969869744 ev
CRYSTAL
PRIMVEC
9.43758624283565 0.00000000000000 0.00000000000000
0.00000000000000 9.43758624283565 0.00000000000000
0.00000000000000 0.00000000000000 13.81286143222372
PRIMCOORD
 96 1
Ni 4.296857428355767 7.041014886834234 10.846977220503115 -0.20855091916264729 -0.390995628156546 -0.244428864006179
Ni 0.1485806359947441 3.6297616583371255 4.55495653167995 -1.051735202045292 0.1295260066179963 0.9924072537089359
Ni 1.013587304296981 3.6928330459163097 12.078228290688543 2.929646839561322 -0.6629952026921421 2.716278187295057
Ni 7.758110987751352 7.723022042813539 6.647826176775288 -1.1860671146923638 -0.025824160151955523 -0.5885797638950444
Ni 6.352005042005049 7.222877170038015 12.304483091159264 -0.024172997701777724 0.7823617522786332 1.2030047709879668
Ni 8.13992740661878 1.0851147689779075 3.0026812531749463 0.2749805115407909 -1.381289692177221 1.4275309825329479
Ni 8.326140416992097 7.235561285690629 0.2542230867330149 0.10753458994856964 -0.5538845265057042 0.09697635481674913
Ni 2.412652810849199 4.322263410005201 4.692836832610011 2.463703554253293 0.2366211950363022 -0.9758022981624033
Ni 2.2812155499161917 4.628437576673444 2.238885145201406 0.471048210634763 -0.02524977570572426 -0.36485522231575224
Ni 2.6535660699744144 6.20216448827249 7.457052936481385 -2.3029628125953883 1.4788208910561758 -1.1095827091813792
Ni 5.012066012062674 4.828193523030021 13.466241440216374 -0.3406058628500844 0.38276475560632145 0.08182098723254941
Ni 2.91707291010585 2.8484994098589027 0.039856813410804666 0.23642476275477992 0.5151403158579709 0.2007249953603253
Ni 7.650777321592733 6.951556008656308 3.7575956489158413 -0.4513373624693969 -2.4160471287175938 1.1974131358328024
Ni 6.64004960586922 2.783899133339449 11.046946456304443 0.15908289433950668 -0.32041627527608685 -0.1990913164116442
Ni 6.607546559509395 5.770413801608942 10.531104990408808 -1.716183849354509 -1.1571203497510267 0.002208577615544584
Ni 2.827444155379005 2.380489517587212 11.192036129218904 3.066038205840584 0.8946400275597755 0.8771616682693538
Ni 0.3627260698033597 8.179168889419056 11.017469100032587 2.1647634465731103 3.392525884121732 1.873828211475276
Ni 4.092127874150287 1.0749127384567196 7.942257166779487 -0.8651721000076454 -0.19448389954661988 0.7360741820660033
Ni 9.004136598899704 3.7513649546049366 10.640364867880448 -3.0406061389207246 -0.10795008021943345 -3.824716755569664
Ni 0.20927658316487766 0.9167038771726921 1.28062757664593 -0.051497653658659694 -0.04010380999942125 -0.6210646238966272
Ni 9.2251554266293 5.545346249463444 8.44262759786163 0.17625323547120614 0.7587626248024545 -1.1269458830501753
Ni 6.356591708825861 2.1992123647185973 13.336358549705974 -0.5141823228200757 -0.11713740314565632 0.9389301077264023
Ni 2.0320821533405096 7.1566253159596265 1.0024452902051086 -1.2066565088079413 -0.787499844836147 -1.009074687062288
Ni 6.661123735521221 8.074137994256894 2.181313039014171 -0.1210943309108753 2.962938768845233 -0.825457812137159
P 3.883670473454641 4.782421230682416 10.929385278142298 0.27720914376099354 0.6700641937237816 0.7673305689771236
P 7.201151846948492 5.454367919931299 7.410752139314922 -0.6066093677032456 0.9274159364392156 0.7638824625275231
P 1.1451566914347031 7.50243734404229 8.859044094709429 1.0029192089838534 -1.2751334706334168 0.1300890782103179
P 4.504323882516053 3.3983803611234733 5.332662697734136 -0.20097953457329257 1.27504759578783 0.23361274722728154
P 2.8895340340088786 5.336341468776837 0.19230402841066493 1.2705959877743795 -0.6005194527554238 -0.28706829594326044
P 5.463192062889032 -0.2774942864177 6.8853107608881565 1.957275421457339 1.0206544214800874 -0.23676080593795998
P 1.0123604181103443 1.6142613436883158 13.097327145239339 -0.21529877940944214 2.040632642828757 -1.1214470647191332
P 8.67340583332662 5.196070627300044 12.078200921688996 -0.1620571464764822 -0.4986034945452123 3.630115870829206
Ni 9.320871424359074 7.854817932016487 2.4191015133978833 0.38168952026427166 1.260079918734404 -1.291892949479943
Ni 2.3656630699010086 0.32910561325509047 0.4088182963180947 1.2054378059094917 -0.35237868711529635 0.6730109350569313
Ni 4.349443657832231 7.449426423193529 6.498992613474376 0.13858785970994844 -0.5724229516295237 -1.422700136803208
Ni 4.7706053729464974 8.302763516343639 3.973849439448262 0.41289859887722435 -0.7176350015242092 0.933274966323154
Ni 0.6912748654814381 1.1004414087248167 7.830331171248425 -0.9756930262780487 1.1762529568154194 0.8544120332776639
Ni 6.379298540864693 2.5738279054290722 3.4063485150263766 0.3472889312972148 1.5128332434458784 0.3061469098412663
Ni 1.6051068852187949 6.9848423746583705 12.509258889536394 -1.1951719052071093 -1.0288986637667505 -0.798554817098728
Ni 4.965434899384425 6.951065254181654 8.604238708917064 0.6118749869775592 -0.20869284405715027 0.2912152282320985
Ni 3.645541302214485 4.876891467053451 8.743140156657848 -1.9798070269009518 1.5090066706109366 0.49512633462988914
Ni 7.411959206570851 2.9455083568776708 5.612773083005188 -0.5044614959878861 -0.4604550084999489 0.8769305260951542
Ni 4.760327841736902 3.3584782472996237 9.510002536339375 2.1930700068272873 -3.430601093726898 1.4349581282349546
Ni 4.790990558816771 3.828149154716299 2.219256853732427 -0.19054342684163314 0.7509212743811647 -0.5802715011396652
Ni 9.099031526643035 8.990178409130197 9.063212112544871 -2.064644946582954 0.5959171780967221 -0.5503142926559426
Ni 2.307933356026721 3.223766144006901 7.180311769430558 1.525412879883102 -0.7534661522902055 0.4693661949466498
Ni 9.538473845938192 3.545710516966453 2.191728358980112 -1.9717085661635332 0.41306700613428865 -1.5004230427069836
Ni 1.6242557473163803 2.3281581029341263 3.2692553087729737 -2.0701327091704025 0.8863127386410027 0.8370817695293324
Ni 9.435368218330442 3.3867532551085766 7.545786064291985 -1.2890266836757411 -0.31862421637267063 -0.12283368219948523
Ni 4.8703417823340205 9.278402287129339 13.88620741317797 1.0147455121948201 1.0430482157942553 -0.7439952366852929
Ni 3.2908201928996283 9.562728442089396 11.894323713863315 -0.07037880683387879 -1.3144723774423555 -0.7448619555609624
Ni 4.086295445970737 8.07759215075158 1.8486721060243563 -0.09657243451011109 -0.3096019582694023 -0.6340566652809209
Ni 4.384145661741951 1.2972622658195152 5.5338191818606886 -0.5735964031123346 -0.5328716716994629 -0.12927301006692574
Ni 2.6637586629095513 8.135689930481858 4.950916117003486 -1.4266786618349816 -0.6964987337662263 0.382170059445116
Ni 6.285526685861435 0.1353557466614043 9.084139015854475 0.06336895117494894 -0.3835224597079524 -0.0829710416765926
Ni 0.8139512152832534 5.046466013218761 0.10213921879612013 -1.702875305171061 0.6156511661905397 0.9646617081645517
P 2.0502872568329895 8.181632099378382 2.6921676844404296 -0.06046051927890233 1.6384277762199522 3.2543149481352276
P 4.082444910861907 6.244605312744072 4.451277098840298 -2.0779627467377826 0.009072651725229535 0.2621345088160582
P 9.02751349954816 5.713967599437598 2.13126929521986 1.3387636458895524 0.5829171662926284 -0.7520453606832791
P 3.348011964369006 2.344230311979069 2.2587342761839793 1.0419868644092765 -0.7250336079811255 -1.2456853405756287
P 7.667142095805258 8.558087969368811 10.997371760536872 -0.3030428169946458 -0.41408079211078364 -0.8415428906244796
P 4.16900645012216 9.114018413292108 9.855614487597757 1.215103868244346 -0.5138017995522054 0.07048190807064635
P 1.9668023706253797 3.3615832131104195 9.489919353222737 -0.39059453606338534 0.6644499328607977 -1.3634305525086132
P 4.525162072516777 1.7273330621659748 12.583516647861892 -1.1433315234970503 0.40039969507926526 -0.13702797142199624
Ni 7.439224392672341 7.316224333668974 8.877373774337782 -0.9871519188472676 -0.29821891324344124 -0.08425042260964845
Ni 6.0094678562821 0.30891012286444336 11.529663882678094 -0.9407465921098507 0.14833979689038967 0.5383918301867439
Ni 6.284545176912126 2.1689082759086675 7.808424646506722 0.17430022550989335 -0.19092986364677442 -0.2893889736566371
Ni 8.521885389276974 5.7321066398277205 5.7143394403280094 1.048516695107994 -0.8147476248085065 0.5045568839151698
Ni 0.8301395066366236 1.7886679339117648 10.610031522553761 -2.326501519147277 -1.6691334328339253 -0.5513093095793602
Ni 5.474724793043419 6.129070384307088 2.7332202400039023 -1.0732303958045903 -0.7137811749957578 2.2460660994083446
Ni 1.5336360460541747 5.488220541096424 10.202510894317685 0.9073212225718698 -0.07656205282645524 -0.09054011227310214
Ni 5.285142564449877 4.278878826928512 7.306492294933129 0.21606779636498274 -0.44375492213644874 -0.34891284005388296
Ni 5.121995014385333 0.8397847195807994 2.7874353968327785 -0.8987334809028587 -0.19406095307658836 -1.3993375508178674
Ni 7.144630144088739 4.748040104698431 1.9024172710678897 0.23627923831585115 -1.1906668182479043 -0.4237579101892315
Ni 7.206531270997592 3.959293850481724 9.021069515792503 0.3009887626790945 0.112216054584639 -0.7454088292033678
Ni 0.8082292068605004 6.3842815862996485 4.032554055961624 0.6222784416990702 -0.4852787524118481 0.04386147726964059
Ni 2.80175504614804 0.6212272142933167 3.6837795696175344 1.423100200455104 -1.7428163643403725 -0.04087848338191669
Ni 6.373050858898896 0.26630791567138756 4.693347406015373 1.9806207810514986 0.19948212409215965 1.3001955558083673
Ni 0.7412412210701301 8.012538870101674 6.760815788254304 0.28044539131010415 0.4304947146924328 -0.11406210665444226
Ni 7.427927602169231 0.1352481581804223 0.13972440524443647 -0.09053754116994084 -0.6910528801603066 1.132679957320475
Ni 8.780248745010587 6.432800216188109 10.567100887366129 -0.49066752752758713 -0.7666340571307313 -1.133251770663545
Ni 7.93465991000839 0.605412651347568 6.830294353003546 -0.2499449087284018 0.34105349191046425 0.19544214969483115
Ni 3.667559190471591 7.387704610419647 13.031066797333505 2.1145282045666423 -0.4118169357772714 1.473878973669868
Ni 8.321827440166766 1.2324637999929893 12.174586988028395 1.1058918905933535 -0.12641162935873068 -1.0237680274084044
Ni 2.0942097823145875 0.07782988464581926 9.647468527241795 0.37453208328388404 -0.7490119731735939 -0.4720830796571805
Ni 8.23695522880965 3.437499155305085 13.44024560943875 1.2014759930482661 0.9395515433604851 -0.17276861935671536
Ni 5.813505819518047 5.570469103531345 5.410719084445181 1.870502746646469 -0.321768161318291 -0.31334188492780873
Ni 8.914583344861267 8.597102950103862 4.567305613027751 0.5029067499062565 1.670524142533865 1.3910321162759656
P 2.105629261436361 0.7914680540338312 6.5592855757201285 3.79892704820007 -1.009710520874074 -2.5539773002388855
P 0.6186913349213989 8.807032614223473 13.31204827179707 -1.2498158178042347 -1.8678329131237896 0.04810251193418168
P 1.1681183382969136 4.828580464058113 6.240499019053259 -0.9463189439913056 1.2270268449341772 0.9143932989273025
P -0.4689234506014324 1.451802737405499 5.105882223720371 -0.2714154198973519 -0.2803309772194269 -0.5687521876461559
P 7.56225276443386 2.222089073306348 1.3501382291877468 -0.17876751725262763 0.560210468723732 0.047706562047343644
P 5.8374206625714145 6.7114260691733305 0.7988775028425125 0.17367056234569442 -0.0063182289085439575 -2.9514197124620396
P 8.438636442720641 1.7928204717742278 9.177334234350013 -1.3918271013734351 0.8588088767937789 -0.15451327269095325
P 7.537913230008196 4.53567554337765 4.164964332016495 -0.9319480199816144 0.3251687023594077 -0.9025042607992005
