# total energy = -381169.1871557799 ev
CRYSTAL
PRIMVEC
9.22939369651792 0.00000000000000 0.00000000000000

0.00000000000000 9.22939369651792 0.00000000000000

0.00000000000000 0.00000000000000 13.50815059626171

PRIMCOORD
 96 1
Ni 8.317658588199073 5.2868734496779615 7.892704087967604 0.4110006105235631 -0.8488679635309831 -1.4940549343971108
Ni 2.783197429844783 0.9644439272925616 13.146132061663263 -0.1966330846791388 -0.1810185180703334 -0.4026717789428936
Ni 4.574225834474702 5.552883027679495 13.23196265192559 -0.9337241380454306 0.7041012287038325 0.5103164121067663
Ni 7.044740643643822 4.1036006036977195 11.305416294458608 -1.4735208189995008 0.6298048319831024 -2.197076299773203
Ni 4.832030481699627 4.63885927680156 10.995201613591343 -1.453666246167419 1.282725681158378 -1.1409609663823448
Ni 6.160952385706454 5.338991834487297 6.0926354924538995 0.3977175202614118 0.5002333168391514 1.6575830089921644
Ni 0.19293308654706992 0.6548273111208236 1.0952410453802073 -0.39280028546545254 -1.5398082293728255 0.14494516938654392
Ni 5.790013833577539 7.481540147428381 5.353171874583111 -0.7889409481580478 0.7939777392510068 0.6325163173769945
Ni 1.9308721741767658 1.2002733887142245 5.6187559775466225 1.0430042499301972 -2.060153229360188 -0.03656134406380155
Ni 8.864186350704756 3.3348290469280397 11.903503140530587 0.993247233111728 -0.19290318532306133 2.3634883807842715
Ni 1.7019739872356783 5.7798799595699855 1.7711482911396923 0.3730632120478414 1.2797352310714862 0.5453494924514994
Ni 9.180136176661541 0.8824564564626045 12.420852175645669 -0.6916087526637766 -0.30512129679022937 -0.434084231815904
Ni 2.242899507917514 5.439195359168536 12.731215449747472 1.298119904226261 2.863433734069359 0.4027095741593645
Ni 1.3459501349211567 6.493607413806838 6.868557060328907 -0.6294803587641481 1.045768957159528 -0.6504934706807055
Ni 5.980277779539012 4.578379061526976 4.025118456499883 0.30013824175334114 -1.0036617435768327 -0.27018051904898627
Ni 4.207394362430814 5.0404763327566195 8.72136148707372 -0.5396403578818643 1.8773063998318635 1.4323446018715076
Ni 0.08478674586319077 4.3401314990215445 0.7536048945141136 0.021743819434994812 0.09843442741951434 -0.14615024543823862
Ni 8.191474320957488 1.4429972070426653 8.29938069741168 -0.00563971478428061 0.6970093548540577 1.0757143385687087
Ni 8.277104633381963 6.418360169013051 5.596440227125073 0.42414640387690183 0.9101625486754067 1.423640646339606
Ni 1.0654134916301081 3.020632805726659 4.186945718304098 -1.1872739905162715 1.0249677041434606 -0.028855747889427727
Ni 0.5231940099866529 8.797716259081446 7.198736765106134 -1.288564142217026 -0.6417879724869077 -1.388341713927996
Ni 8.689796961476425 3.6623433028770513 9.655531157973225 0.1613099838978125 -0.03313971997676228 -0.93990121339042
Ni 7.156776250727321 6.735094493413045 3.545051556224061 -1.1880604909733086 0.8993400041386059 0.09089183918556605
Ni 6.98421428140199 1.7231646745957339 10.598386611048058 0.04337373899994466 -0.15036351218863783 0.4066492755334029
P 3.667844021372954 6.482301406831199 10.3948055732783 -0.18427816265821165 0.220635104020691 -0.5811634168263152
Ni 1.4508237326878426 7.459703402526859 10.877302572849375 0.4024048984347522 -1.2215246841690255 1.4391425986299473
P 7.9561155586017485 6.125206944876535 11.289625725205855 -0.07762571820427921 -0.9516190160479804 -1.6611694407918423
Ni 2.0256211273293485 5.666589154977354 4.379693294042832 -0.03827781253427601 -0.06063458296292139 0.23656180255327647
P 4.8131379133084975 2.44478326023191 10.7949163922224 0.7943983717281932 0.17366490591873962 -1.1590833870146682
P 4.3574366117393595 2.495351106941729 0.8959156809300127 0.2711786212961975 0.09443970443782446 0.9428353563180795
P 3.4593058763814666 7.297773694455356 1.0834320364615702 -0.7207149260011136 -0.6163998714311062 -0.031198794200307564
Ni 9.044556386888363 5.520626297573488 3.6975728206131433 1.2255572023671861 -1.1132501307306377 -1.249952343382099
Ni 3.7107883890934845 0.7523681557918804 1.8226686112534998 -0.775294818129523 0.4891693457155059 0.43061427098943256
Ni 0.5945759848037876 4.4592368214873614 5.985758193369326 -0.6376731789875857 -0.493606298440937 0.7262584815271621
Ni 1.6095600706258195 1.3470115151678494 8.210820975506333 0.8148139592700676 -0.9477235376483161 1.206909762469328
Ni 1.8800459044503608 5.102839344294901 8.58691506681614 -1.0616203223694878 -0.20415947496317097 0.27172883737271264
Ni 1.2586031553150743 4.664923083902952 11.05493517093586 -0.26872090378432434 0.05846097235037029 -2.401035228689794
Ni 3.6481023487844704 8.183020196557745 11.70077305283687 -1.8199656571288656 -1.314417355834704 0.10363628333542797
Ni 5.285313682184996 7.803498308520791 13.510851848485904 -0.6689681324461253 1.1170947012877084 1.125003414611824
Ni 1.1564799167963398 2.4220789523461366 1.8261259420396831 0.8725334254687231 2.052361501229911 -0.3458226311643334
Ni 8.994311568949277 7.043457757954341 9.083487814337051 -0.12976126255725393 0.7396181906635199 1.13345334515139
Ni 2.9058837569690064 3.157929262681444 9.623543926155943 -0.7507718932874942 2.5587551812435025 -0.1409267922557702
Ni 6.353163733685773 3.5991034989610666 8.906396058706706 0.27237341293524703 -2.006690481555357 1.8629668432807398
Ni 1.6437272851758742 8.160629688049253 0.13932692351367512 0.20768702850045523 -0.9754760251712361 0.0358000404177448
Ni 9.02870951833557 1.8317208003487708 6.286315236931034 0.7922718123034936 0.28599743147658485 -1.982764823977695
Ni 4.088205975423951 4.466795694722504 2.685501531363774 -1.5505487557187811 -1.4166711570003088 -0.2930268275195405
Ni 2.5897308843563316 2.958869704762595 6.837380169256491 0.7316120325295916 2.021918868469337 -0.005882426922705998
Ni 2.8053756623039345 4.002141881507349 0.7321631676522317 0.14113608005309888 -0.8805457542502384 2.05259598583822
Ni 7.35674951859767 3.2627936310546803 6.853508534309495 -0.2725359066550403 0.9414994111154752 -0.7882040699920232
Ni 3.2245008776326984 2.301995314174672 3.6891297714855393 0.4137995134249389 0.6948239171669646 0.33506539264782936
Ni 5.704540420841704 2.1589027981336004 3.2168174075859883 -0.24003484870354144 -0.29912882665222035 0.24989091556201481
Ni 3.17633267321975 1.086410361727724 10.288037181036431 -0.32169745598135563 -3.036515256680803 1.5957852589590773
Ni 5.975423118584573 0.5300782145606361 7.666807299776294 0.3282997917892217 -0.7791445308929162 -0.26836660576869914
Ni 4.35835955108431 0.3681632735186509 4.647695498090114 0.6877495268186866 0.6997506650446207 -0.902737202745613
Ni 3.1072598926436807 7.960222638686777 5.523198529527863 -1.8745200953359782 -1.663099825045336 0.12534847820153897
Ni 6.331114712734914 0.4823299475496399 1.4953389431734785 -1.2968752331858826 0.3583256487273506 -1.48890270077221
P 7.876438204952203 5.951362089861724 1.6100363073278139 0.9754189466810557 -1.297373770088856 0.5707710178483977
Ni 4.9455335623415975 3.7154769209658314 7.244839431265084 -0.06949460445671259 -1.7981907273456195 -3.116532357935394
P 6.902423396652509 0.2713090957202369 12.890516626564558 1.4383571266141744 0.6231675291722428 -0.10000562856137615
Ni 0.15659142690031266 6.280583783598893 12.87895404245102 -0.8973036904348677 0.8288151586451661 0.03086069413459846
P 1.3726692289574638 2.678720695996425 13.075173716005459 -2.299818353429136 -0.7141349587907507 1.5620798962868323
P 7.375679004562597 9.094552011204314 9.399672989826799 -0.4172537905221266 -1.7507775281689781 -0.2804567041640138
P 0.659778880706481 8.505190633699495 4.696810638270981 -0.04878513982350308 -0.8466766123066193 1.0939187773918775
Ni 4.19689131268528 6.269397758738097 4.014136401234321 0.5919656496481418 0.7782153342104275 0.7086700790214376
Ni 5.146300558048604 8.736626903839195 9.721573005740478 0.31626188678808115 -0.3696930100240278 -0.023781161579997753
Ni 2.0202496203417386 7.9573522973239825 8.739205596368985 0.3620956572927441 0.3385430667837847 0.06518646399966192
Ni 3.9940938504193833 7.344760536506768 7.789488089264449 1.0871030400216246 0.9098447603246718 0.11955526855852958
Ni 9.049660241465938 7.871205138866335 2.4908757740580656 1.0401737224599374 0.14379948581787494 0.6340363535659467
Ni 3.1028667013617177 3.1732869733814146 12.146150354893395 1.4948447772882576 0.462760516704674 -1.9089901040883896
Ni 2.364690583877136 8.143758356823565 2.8818153447313963 0.28586939053915283 -1.2118033431162034 0.17081098140971226
Ni 3.467649248059816 5.47985083731359 6.509996047755117 -0.2382214496438865 0.022868419957741262 -1.1177883849206232
Ni 7.591240717969156 2.7205206189292177 0.23722217689319292 -0.0031539722479494068 -1.7903897432439617 -0.04851568821220032
Ni 6.947951994538899 5.423846877862014 13.073431206522194 0.23244649483332228 0.6010886949953326 2.29250407915591
Ni 5.854425770461609 7.0316533637324286 11.457923714757516 0.19643485262540364 -0.7742951732204149 -1.1739711027597781
Ni 7.531461936596735 7.770124821807395 0.6136346822770083 0.9154137697720169 0.4812716881349841 -0.6556595882626772
Ni 7.625380244338862 8.986660401779641 5.59230638179904 1.6831073785155142 -0.18618746386578258 0.3702324274672656
Ni 4.217546695225265 1.8509825444778807 8.42965266301205 0.6612303974822354 -1.0671625923439554 -1.1989717385691738
Ni 6.1713077651567945 1.5995184905527617 5.657766777778975 -0.31977632769924286 0.6069112152143805 -0.790956950146812
Ni 1.2428301219098763 0.8458766784648503 3.41472513720234 -0.4112592635015885 -0.742287767075883 -0.503495532530191
Ni 6.430349151103955 5.756040436289923 9.137642203341347 0.18780237376138625 1.8355974501288517 1.00318043306504
Ni 0.32892358432875024 0.06808246665893794 10.016523192781612 0.6661977687898397 1.1792112681127949 -1.384796676889215
Ni 5.382609947929642 3.434534184363005 12.801579422467126 0.6632109182473739 -1.8183859713465715 0.5853663991640693
Ni 8.185484444608761 8.221839025406348 11.392247350970862 -1.173798581737656 -0.10659305197090675 0.9024394689995362
Ni 1.181380820323095 2.133485048573673 10.919381223464342 0.7841900637366236 -0.4249120783983328 -1.3957254079865768
Ni 7.936263133291872 1.1429127084255726 2.813099741681823 1.5302928336832227 0.733904170997878 1.8133044430586063
Ni 7.91833965121294 3.6993254824292037 2.6528387079459885 1.812435924410724 -0.267634612698681 0.297012808750482
Ni 4.851559878238773 8.237990463942975 2.640438094907238 0.06750534194082568 -1.050833516166629 0.5918761752581291
Ni 6.084588384305278 3.8328471174631424 1.5180598639674612 -1.8515873977992048 0.5013628024579042 -0.651350162254046
P 7.709349265942428 2.776893754118773 4.517841624013006 0.04367121563570543 -0.1587941594544943 1.3412614726107417
Ni 5.044232695890567 0.5956567467767243 11.968018446621292 0.6112360678419796 1.7843293959824946 0.21090347855522387
P 3.9721555821899184 3.844494611996413 5.190777005081752 0.24951810560362833 0.1305163955557236 -1.2929931245226571
Ni 7.127657514394143 7.515762738339132 7.541708409204371 -0.19084758834561324 0.15195245394231252 0.36589831886828594
P 0.6702966974815331 3.1972649375632196 7.984289205045698 -0.33351990253758046 1.4775736489126359 -0.8781289172786296
P 3.8000181649632654 0.2720926712240996 6.841040546698563 0.41248413704762515 0.4739365879261515 0.5551289404357665
P 6.5325000778030375 8.950628849752787 3.7711107817400817 -0.38714077318683005 0.401770864395179 -0.010726642388884752
Ni 5.5621493387027945 6.14585309802307 1.9232366969759933 0.3694508121062347 -0.26739935675942333 -0.8823288142925901
