# total energy = -381164.3305833639 ev
CRYSTAL
PRIMVEC
9.27824995150553 0.00000000000000 0.00000000000000

0.00000000000000 9.27824995150553 0.00000000000000

0.00000000000000 0.00000000000000 13.57965666391671

PRIMCOORD
 96 1
Ni 2.2966915482182704 3.014893025475756 6.198936894050113 1.5940888450932609 -0.903900884036411 -0.8122734522364011
Ni 0.9797367807950724 2.746417591136192 10.113720866574191 0.9518766405847413 0.7043825073896772 -1.18098944305914
Ni 8.5213208436103 4.884033547643382 9.998008102825835 -0.6596746229593413 -0.4718874187066066 1.4326896439157522
Ni 8.449219564917573 2.0248109962258654 8.806638156869312 -2.8525618243518616 1.1718527708651947 1.3803011030117067
Ni 3.404115601870029 1.486941580822947 2.795046753648651 0.19761087521137582 1.4365234158395452 -0.9189508363909981
Ni 6.163652638131883 5.371995257720322 12.16890699678336 0.4776366624855581 -1.038215313181986 0.20853754942620858
Ni 2.5119469420763667 5.535385235558299 3.4485806859013026 -1.164757040360678 4.526178489768121 0.20171229897425902
Ni 2.562587629131431 2.633835308848514 0.4257362004024264 0.017330263748331444 0.8034712805637388 0.9506198853595049
Ni 6.870488259463671 3.1843788133898006 10.72988386454315 -0.24333331694915508 -0.3031682868289166 -0.308533664905888
Ni 4.1365220794722015 6.550639156339958 11.635348256207443 -0.3895522108418001 -0.19289495779294522 0.25346346340462156
Ni 7.417181290364825 5.493456825004647 2.7085029514180143 -1.1065729758207783 0.9801441200708668 -0.007645175250083608
Ni 7.3220606740789105 2.3744061680008315 13.028879202170685 1.708956221257818 -0.9889504055085871 -1.5785714661839523
Ni 1.2760191295912187 6.13355399599069 5.6213528584803765 0.4151053767205561 1.7086916547425217 -0.030217147013328605
Ni 4.146626093433903 4.488019292442896 10.612202256200971 1.189768731913667 2.012734887977224 -1.1022416954352758
Ni 5.589765057256674 1.306860031711232 0.3745536635628229 -0.7895757535285691 0.2956799488716714 0.23347262210499142
Ni 0.6113002672827083 3.2818932181074127 7.6612215262016 -1.1957516889699793 -0.12489493560388813 -0.23329932975192078
Ni 0.20149946080059575 3.6421490988281953 0.699648689086854 -0.04556509022430862 0.5897899821530617 0.09832027043915324
Ni 4.180287583473436 3.784180545775598 12.754461048875688 0.44441286743542174 -0.2574389031126018 -0.316995422519996
Ni 8.03016741562443 4.681322347427361 6.393166846183131 0.5035510683584747 0.39499934999930036 -1.1342524440139174
Ni 4.274712331029206 8.604760143479519 10.668857104734434 0.06747114626878058 1.0199954477398496 -0.11826971697788666
Ni 5.018234151814223 8.273498793181432 8.418599485141259 1.2116112817100553 -0.5787213830437259 -0.5048163082241435
Ni 7.029415399178988 0.42175768691594573 10.439415267031121 -1.2496137290957576 -0.14266640065469624 -0.38511011591004646
Ni 2.7032180603688087 0.759571337177075 12.247315629646117 1.9462603012937578 -2.408352074066181 -0.6026624672403557
Ni 7.542446940040607 7.6511694704384166 9.236461426280123 0.26932614146849093 0.8655245982510578 -0.3313786878248616
P 1.4461729514862025 7.2417574226202115 8.024069749898414 -0.4774780254205067 3.3703159236835956 -0.31190643803286283
Ni 8.90935580403846 7.071835556968608 4.113726347697635 0.3921423401664795 -0.09205166382162211 -0.4774867671712551
P 7.133684369703871 6.296053261854083 5.169001070887376 0.1561595500451246 -1.135428723710206 -0.7278124562778433
Ni 8.333371338723083 0.026776100910994832 4.473505326382025 1.8637695416876934 -0.5152490735216932 0.17968617241215504
P 4.5275817493140575 2.3965255153696976 4.946620909057571 0.9203340898917699 -1.294594921792138 1.0321289977785904
P 2.27832061374245 4.4836770715667935 1.6905045243646653 -0.31092350529430324 -0.5005978992674218 -0.8469612334265737
P 7.546501535174917 3.9896195514137864 8.284337644522166 -1.402657616330036 -0.767635244701736 0.9647193008753644
Ni 3.486571407267309 2.403029568434117 10.728295428188474 -0.08344952397490789 -1.6252794117634524 -0.3659078319499828
Ni 7.155942890818765 2.3840555477255045 6.1703515344407425 0.2917528459031234 0.14997553272159975 1.3424688626552814
Ni 3.4308369611075857 4.964392468600493 5.785151079306705 -0.33808669597265645 0.8759144261258139 -0.2929013576852698
Ni 0.2728157995657195 4.875803740128204 3.349694028047845 1.0465901675092426 -0.5801773987639621 0.14730235676481082
Ni 1.207712655040214 6.611699317847721 1.1724905633952094 -0.35821174885730567 -1.2110500098899466 2.3766809682151453
Ni 1.6939671671658652 5.244595610605429 7.7984978701596805 1.0873195269078049 -1.3115315496464768 -1.0779959355140338
Ni 3.2066373345046966 3.8269718335546297 8.590219270494414 0.30229642574692456 -0.07196414904312767 0.5101546897179213
Ni 0.9611802813245469 9.023543223530337 2.548956024620383 0.17437375906030617 0.3721972645031203 0.36170639227412543
Ni 7.51096583868886 8.773726349408388 13.130630983542392 -0.2952181787439045 0.5078898049431446 0.49370477169201427
Ni 3.4939754505560487 3.769316789699707 3.760125755511956 1.6082720785721787 -2.878674462278513 -0.6407397337280514
Ni 7.005644523357244 0.3312223816491987 7.669206387923767 -0.5566304646819575 -0.21827277443610152 -0.33591745623547953
Ni 3.013566235763613 0.3927111982947321 0.8632706231682129 -0.059258271440685045 2.079591540590457 -0.5660682130560896
Ni 8.982041612464508 6.133498326492279 8.34105929645372 -0.7944824468015671 0.42266082047031084 -1.2752823375064553
Ni 6.540024838642817 6.35599075514388 7.330569756911119 1.9844344983706337 0.45023204522036014 0.14021511090072628
Ni 3.347221374493398 6.664204933099574 8.672620334218257 0.3158911337122237 0.22093540886992918 2.2542391221374407
Ni 6.959559456922194 0.7865088796334635 2.510837263408029 1.67544497687425 -0.09699255276666521 -0.9926245119260647
Ni 4.872398622475362 5.4358760071476055 2.4191477438742153 0.35731109141990725 -0.4257638848756668 1.4451849481692853
Ni 0.5496490812668078 9.273267315154936 10.902576215565702 -0.16602615842655924 -0.32549677512278785 -0.5382162238408279
Ni 9.147843935233654 0.083611875314294 8.342091965649255 2.348927709361277 -2.4707550617834353 -0.7257604588448211
Ni 0.5089212762288983 8.140587865723793 13.089607202337929 -0.6316920217034863 0.5003348754140222 -0.3819052358195036
Ni 5.7666641667091945 6.1870245492150096 9.444230200426835 -0.789617405399782 -1.1175325601560753 1.9073055172971154
Ni 3.0785696534088642 8.046747647901345 2.2588400005982923 -1.0155263562249028 -2.990327959491463 2.7095346979236368
Ni 4.86981926904896 0.7151943965182868 6.780376970209826 -1.0477204244589442 0.8175822660438242 -0.7481673657851114
Ni 6.509805579255066 7.677102178448475 3.669562615496003 0.1183062266427769 0.6420617949735845 -2.7897690573953566
Ni 2.717469451962172 7.77874540429828 13.514351557843655 1.2353837015393045 -1.5642727901730928 -1.5947285355597889
P 2.0137327660419615 8.123450938462762 4.568359656900537 -0.1693516232553664 -0.3836764687873134 -0.5082559300333117
Ni 6.003278091457866 7.051024442812414 1.148780924021719 1.742741031017747 0.4950890536340506 0.7552785229085961
P 9.009022762694652 0.7097517752235817 0.967490418969499 -0.7056726869560105 -0.663552874967825 -0.2334847062898495
Ni 4.495571787727401 6.74541745303233 4.284110270186053 -0.8789442140910733 0.32289893248862456 0.7374119270408204
P 2.0461788053661754 3.8901938272507106 11.998740185338747 1.040696170622311 -0.037886490633128295 -0.3126343173378229
P 0.6164682523852496 4.168995953545622 5.433818091356325 0.5353628135524329 -1.3041794801567796 -0.19244732873256534
P 2.904472575376394 1.8351450151376236 8.247644950294122 0.40946386216406255 -1.131356610523361 0.14908387414526583
Ni 8.749176100608883 2.376966964927764 4.383608364697064 -0.07828520616514904 1.3796475285881078 -1.0380055111640254
Ni 9.01210314160676 4.2197015883488325 12.166557743950392 -0.8422165196527367 0.2782794940070369 -0.5996630182923995
Ni 5.37687561708107 2.958332815089594 7.7627701139041045 0.7566568913133613 1.590933330183415 -0.7437718078205772
Ni 1.7339471452751125 5.28241375652636 10.365582666937792 0.08147363119545968 -0.5527858941248867 -1.4287280881648428
Ni 3.526421489880263 7.86086719270509 6.516714164007943 -0.46290115604759635 -1.0315445860300299 -0.485516322343951
Ni 6.048314715672832 8.003947081872578 5.761087938618302 -1.5656994953172907 1.0583704479736225 2.972821575176583
Ni 2.3625949560878414 9.083202369328077 9.041050352955805 0.36647373175578174 0.46225760892632645 -0.33811549232806287
Ni 1.7510933507858784 1.3463297060850399 4.448179415904652 -1.915194176016573 -0.018757483113161246 0.5589835382951663
Ni 4.770133753893297 3.2902621993686196 1.3833322938542414 -2.399161922926481 -0.2096292398284906 0.1168602382248697
Ni 1.5206030708624805 5.8716568407134275 12.611807031371049 -0.1752898431166723 0.4701030731126743 -0.09866531248339781
Ni 6.325910669502158 0.733281416552208 4.802839584210098 -2.255008396203297 1.219672461451635 -0.6494963968747589
Ni 6.745343227034447 4.029246956033093 0.7892682311047307 0.8321311103922765 1.5229299655602482 0.35955874980350333
Ni 5.95504974933397 2.6843368221575488 3.1610996848040265 0.5159499562434599 0.8478081548079012 1.0763411735194301
Ni 5.077262376629965 8.412217904973346 13.115272696755612 -0.9085093293426999 -0.4064520719209323 -0.3709608209928579
Ni 5.795389627889568 4.236049864382365 5.2601478128116765 -0.2723399885941503 0.613676301852356 0.0818335856380397
Ni 4.9333381667365686 9.096971291935208 2.0547648976711876 1.8413598065339256 -0.16746649041751158 0.5103040708115921
Ni 8.154588744574305 6.101386304158535 0.16714766898075883 0.14442220700353836 0.3788985877826958 -0.5246343713913352
Ni 1.0590008682834222 2.0790145311792703 12.259305911778998 -2.5099841824873868 -0.4272489540616255 1.8787441607196547
Ni 2.0898979181187336 0.4825042435826582 6.706177879251956 -0.7592827589719826 0.42486734120332637 -0.1844774231532113
Ni 4.417300472960724 5.820311006678484 0.3221027899844089 -1.5948159530672728 -0.3479623032151556 -1.353029154669631
Ni 8.416652908346801 7.638384042303224 6.643167429649839 0.6203688833811831 0.8489142433878863 -0.6823260418102701
Ni 6.441192922462798 7.503691690896415 11.267828433768925 0.387058754995985 0.17929613606258796 0.874246808615404
Ni 2.117166694090671 7.567535327324758 10.733319600420119 -0.11791850428605498 -0.5283727553878449 1.2532202155000935
Ni 3.67690542233649 0.2585003880491826 4.630690010797059 2.136127785114289 -1.5286113322157417 0.8425507630637038
Ni 5.0424689401227285 1.228969125183701 9.112261847498921 -0.6044339573184816 -0.19081159290135527 1.357272246216701
P 9.16910040537714 1.2429050562860657 6.214118894091924 0.09733450948711624 -0.9747113790910696 0.8600370927739253
Ni 1.1128889427458284 2.5471393433222183 2.5154958726001047 0.2671265627140109 -0.44783423441214487 0.14655442285519277
P 8.588077850455516 6.804891033835363 11.53886466503542 -0.179854065448587 -0.21631307960656943 0.5129656768041553
Ni 4.727862048099439 5.378350858788977 7.509563895153862 -1.1737199059809205 -1.6062275373383241 -0.2280697059218653
P 8.18074413057801 3.4689612892697808 2.4158753051925883 -1.133927456574331 -0.693306966301806 0.15719493328817444
P 8.54940610555894 1.6327863884115426 11.074453936261497 -0.18833742032924983 2.369301387921623 0.40296462759296403
P 5.3037351744179935 0.924816964962105 11.821932930558605 -0.3325498253148273 0.5766323617251812 -0.6747495150145927
Ni 8.104050118266327 8.07255046041511 2.0102237319920855 0.5988713756290396 -0.48580839966307293 -1.324988703592647
