# total energy = -340890.19301416836 ev
CRYSTAL
PRIMVEC
9.04630471479126 0.00000000000000 0.00000000000000
0.00000000000000 9.04630471479126 0.00000000000000
0.00000000000000 0.00000000000000 13.24018136459328
PRIMCOORD
 96 1
Ni 6.672816531362692 2.218705684427463 11.290378721633962 -0.6210057456342337 -1.0380340504091157 0.054568579274499575
Ni 4.878391573611433 0.6846804105533039 5.789216026846451 -0.8617702734149479 -1.1665917795765717 -0.532415815108967
Ni 2.852326943203495 1.86618929123503 4.677531047336348 0.34959881037731405 -1.7702461784165513 -0.14571675744524581
Ni 3.27208451763693 4.188601810284697 4.568126850149151 0.32538056125989767 1.0858560549884009 -0.02669062191730887
Ni 4.049306813816388 2.828652764364843 2.526967556076646 -0.7355874722375719 -1.3079973112409733 0.22420688053234938
Ni 5.383464845647974 4.58249600019398 2.7541428774697114 0.7101523199939189 0.6329593184516841 -1.0353009677486686
Ni 4.935564217960031 4.621404155786278 11.255424705732292 -0.10500796687197399 -0.6096638382588533 0.31787242580831065
Ni 5.917106347249843 8.196756984996375 12.377132990612372 -1.12513582642463 -3.1263344316274804 0.2692358957475298
Ni 2.214634847408971 6.480121199516253 0.16113187086594905 -1.2219088069813213 0.5686187473920853 -0.42170411298399624
Ni 3.2449636967892883 1.7653229962212844 13.679093415519032 -0.6668264035127741 -0.5161119357426208 0.9819431209528184
Ni 7.942818171782845 0.22163355526522524 6.723205351977586 1.2100537074149482 -0.6816732387176195 0.824588007937696
Ni 8.839216483254775 2.2809171203745056 1.0848436894710642 -0.38674842284441785 0.7250053258463514 0.8787498386920802
Ni 7.020728355571987 0.5497773949127228 4.532471745649853 0.03221412283869936 1.0644865881736894 -1.0317392185393393
Ni 0.7199564748946581 7.340334293046033 1.846078451733231 -0.2374832859262813 -0.35752012210691975 1.2164932923927048
Ni 7.694533298872777 4.078300219692536 3.733836846753128 1.0791894416015027 -0.6221000071396771 0.795557682143617
Ni 7.737747495400191 3.9334417459656206 12.442565815586715 1.5249598515060836 0.3632205149258067 0.2515719028088635
Ni 8.320799912102066 7.457266824826093 8.826633073715392 -1.0152162811836516 0.7212515152308739 0.6506590497242923
Ni 7.188546350083197 0.7393291359504371 0.08218115309886728 -0.781715376943886 0.8147170286808872 0.8979755196909116
Ni 1.8747561415828342 6.725945477606255 8.916004229619366 -0.22347591590359575 -0.45768258796113437 -1.1972663258422929
Ni 0.552388158387249 4.904824875318174 0.9011783787620893 -1.3112775246541415 -0.2713799386737262 0.0891468314700013
Ni 6.518712734451557 2.077320991622994 6.877373377650567 -0.8210434851195473 1.2273438619539636 0.6228685098745853
Ni 3.6266182367296382 4.380302048637727 0.3802795016585485 -0.6072889102687734 -0.054784037719415334 -0.16060061653561375
Ni 6.424576889975052 5.875050077696578 4.79050943942578 -0.5546792544928576 -0.8649743821745427 0.03891827433175233
Ni 5.138934189099404 2.7527542697311818 9.444485719142685 0.9029724586848706 -0.18705701095492944 -0.7861533581105815
P 0.2970706883701241 5.750093473837846 11.989752139932676 0.5851439987406182 0.6328896415560132 1.584009349370072
P 4.037257136241651 6.246744636398351 12.411464620765434 1.159618690692848 0.3368998747534069 -0.26033936458884843
P 2.653145411040926 8.254128648043654 1.5078316992362848 -0.5172632757382446 0.8711396304449901 -0.6088981637374223
P 6.65141297494991 7.85895892920191 5.776267146605853 -0.60536649643508 -0.6664654206289297 -0.30427694651206305
P 5.113550258712985 1.0716704608792242 12.582130391928693 -0.7534754082615862 0.8091950704213936 0.41752041391995187
P 3.990532973573849 6.265660459077611 7.97033703002785 -1.4836306537399933 0.8430552135039481 0.9968691461350316
P 4.9103069358364095 1.076293122471334 3.574795576853787 0.8035340154808743 0.5793711008125829 0.6464982334783833
P 0.48871031648310054 5.6074151594919455 3.3387892530219396 -1.0229637863395544 -0.322332004241561 -0.15924230273550638
Ni 0.6822315759290688 0.14488289874902624 4.602737106480371 -0.8366457104331785 0.4276549312507925 -0.48766113660109567
Ni 1.8350790501092658 6.808049737116995 4.588265733194857 0.6577516949050156 -1.0748298790812263 -0.5207702604502387
Ni 5.751622299295902 5.855618615661644 9.324715361645511 0.32130767674210475 -0.061222337145591346 -0.2945584336727185
Ni 8.721252672763365 2.7114669360591876 10.012066241282945 0.11909761219582068 -0.21362499125144502 0.615284012659108
Ni 2.279216415131225 5.26276905120193 6.6905147214581975 -0.052563118808696574 0.43811263624900676 0.5207895437239483
Ni 0.6758096043747855 0.22525660021168306 9.062863745898483 0.2587725343223608 0.6450841267396761 -0.5894565100730429
Ni 1.4170674124415394 1.2884832404841065 11.121540303976783 0.43390219771208494 -0.35699407440012065 0.3406403156324456
Ni 4.329886993739825 6.6577363417853 1.465647876789774 -0.0072158010221488635 1.4835357800333417 0.9115308897778429
Ni 5.622830062335302 8.198656708938337 7.826919632605481 0.43233511033528116 -0.5591349762713661 -0.048242894166787884
Ni 5.6070804462259805 3.0292183811136995 4.539607470628046 -0.9960489642265813 -0.901421312147667 0.8726486108903486
Ni 0.7315818807890228 7.654032993691025 6.619507563659867 0.26407029238619034 0.08078380421728668 0.410290471830416
Ni 5.027058541526759 4.564729058184384 7.4742141716493 1.6876474324777129 -1.245181661466333 -1.222509673790114
Ni 1.081087663848669 7.737792726922618 10.929318998485387 1.0166895232950683 -0.8356324386773156 0.9908939023882031
Ni 5.06896102390377 0.4123133704722861 10.53868057356045 -1.898255748390021 0.13762652423794364 -0.847001856856522
Ni 8.278028984494444 7.24143104610565 4.269322889839599 0.7975194338556781 1.0884775517716478 0.34117510508999305
Ni 7.066593119313663 6.1217428010171915 7.1644343301074445 -0.5908837294378727 0.6206231654838343 -0.9404339459654385
Ni 2.4801076988415605 5.370121546531806 2.367913621351025 -0.127258036519426 -0.13192510297779214 1.4078034221970335
Ni 2.3382616445083295 5.289211399213157 11.25068534681232 -0.4852530413802353 0.533319814980475 0.366096293811705
Ni 1.0585533193751946 3.282732018016408 3.5986280660209364 -0.048032320817878574 0.9853534321859483 -0.4315874335359793
Ni 1.6582871215484023 1.1747259615784698 2.469452961418494 0.2606000744494028 -0.44356337495093284 -0.34738560477607916
Ni 1.1024550350435092 3.382358969315635 8.093458138706467 0.16919812839663761 0.9073718733041469 -0.1560711040963764
Ni 3.4550550721614157 3.0403724745443674 6.8867344935322015 -0.18304274758921377 -1.406162801269817 0.005027278011262309
Ni 4.495624338219361 6.915917871802547 5.926583255828892 -0.6784979263134314 0.3543198700020672 -0.7544994786507264
Ni 0.9293178134948029 0.2090944726178214 0.17518349562333477 0.310287157261885 -0.11525766962444021 0.12251460829716963
P 0.12903467792081272 5.889451794437554 7.7267444752544305 1.1679380091918208 -1.133395495330261 -0.5689787018346653
P 8.475934987724553 1.9979306234579155 7.906850969778796 -0.05303594468005704 -0.9378751840993268 0.5741851857362692
P 1.8453918372227787 3.407399140131603 10.600698418591502 -0.31285954597475146 -1.0923470620293834 -1.9727912577047508
P 4.368650408460354 6.017167521164375 3.832145751488812 -1.4253990237916097 0.9791161930269847 0.20210259243414225
P 6.923751971487023 4.199032199356522 10.343375382869931 -0.19151581805723147 -0.25831179263585835 -0.1771837177052755
P 6.29751249717119 7.754763594137487 10.020923478004736 0.7588053051149318 0.29448155768819606 0.2938840333135132
P 2.55134734666517 8.593021306680868 5.4874457832960895 0.030429777244766944 1.227230733414867 2.257710111405176
P 7.261441471627659 4.046357718554103 1.3147582318623507 0.26995143375731573 0.24513463182395198 -0.09775565618493487
Ni 5.416637644196441 2.93821255798919 0.310629289533048 1.2028918995591864 -0.05697153228903737 0.04491820066892909
Ni 1.3329005955080966 1.1861152589257618 6.856745089532197 0.5968299197189786 0.05218053865829723 -0.33858831819942337
Ni 6.886906373317428 0.7249835062972715 9.113892140240504 1.074233383147808 0.9071422737918442 -0.6002615711083468
Ni 2.7917347957593637 1.8679623669141954 9.078130289348275 0.31269242426926797 -0.9850302445185746 -0.2668203443275018
Ni 6.6036032557438435 2.384642047605681 2.452505614595288 0.1445942138050284 -1.9932089021291544 -0.29554985105171033
Ni 3.7295832743840287 6.983186191957005 10.321105190487437 1.0886210193280477 1.2425827903909052 0.3024265235668856
Ni 8.289228309447541 7.558413555278891 -0.2017289715056966 0.5878948220128779 -0.9610027712557254 2.458521752942037
Ni 7.639296563684084 4.161381480087714 8.265514326869152 -0.3921001740746344 -1.3345984587682693 -0.8200404977763296
Ni 3.131242603101594 8.654472853051125 12.597542580880704 1.1351266190887548 -0.46968758284181045 -1.125591683015126
Ni 0.08528494016785526 5.226366721952126 9.775954075688619 0.5668266884886689 -0.2958653254096001 1.498604758551322
Ni 8.592116676232314 2.4479933179179016 5.483261867471529 -0.5454183980162219 0.09206966154375111 0.3713706548367669
Ni 3.671162240016426 2.4199950055351627 11.528053184012942 0.3373696153009738 0.4904217300653683 -1.0937706818497872
Ni 1.4213553607676843 3.0152961185104568 12.770630952385188 -0.05697513183346317 0.6599749278085795 -0.5628905866590563
Ni 3.208136191228664 8.351855875400918 7.675002327488501 -0.7109699307992078 0.8706431504245457 -0.0015321203738102643
Ni 5.807754618628663 7.773887481819914 3.377292134173285 -0.21627297039725332 0.33745214771245113 0.160235262776395
Ni 3.39094391227241 8.507298525375912 3.536770340579278 0.5438276564903344 -0.07771673525618875 -0.37917086760747604
Ni 3.376723121621145 4.26705136278328 9.20287882820384 -0.7782397596904598 1.2775891312627612 -0.033996411550102745
Ni 7.324910343898192 6.190250464886169 11.426686628361146 -1.2839132737085759 -0.8395127475683285 -1.4234683824278
Ni 8.064147207542876 -0.03769595079123562 2.040987414287281 0.06482162446107546 -0.21985297443902782 1.3651261950434812
Ni 4.897262164768264 0.3475725877910869 1.5452616886756456 0.22295192507932574 -0.9005383953220814 -0.5394647515359484
Ni 5.869658480223198 5.396808144764142 0.31149683013321117 1.0645184698528893 0.9058857756769236 -0.7948372590378247
Ni 8.038754230851973 -0.4837529416250259 11.095801758454531 -0.5694831522749096 1.9893206228183415 -1.1078055626762984
Ni 0.0439306638426682 5.133026952270348 5.633366293169608 -0.45953275379599573 -0.4759384488475287 -0.23068554627815754
Ni 7.361683571631903 5.952576907137637 2.47121337227138 0.9686834277294348 0.40827626961386465 -1.393969858748051
P 8.559676628347175 1.7571089517484162 3.3170754083653033 0.03682411080688497 -0.8023222545609602 0.2935233075399848
P 2.152097744500449 3.2882954952750136 1.6641717426162446 -1.074595137362601 -0.2219592221487532 -0.7625472886558674
P 4.642590600891407 1.1856358047880284 7.878000495513519 0.14872803346774385 1.0115969392635096 0.8449460027687576
P 8.66490324212295 1.5348141116252982 12.164827079902185 -0.10713426918635742 1.1975985123707311 -0.6618847432367826
P 6.503849656181819 7.500652901138733 1.3005998607120355 0.16670081589608063 0.7950812567278307 -1.2155227009493197
P 1.5326520448532546 3.2382241999475623 5.785177756524107 1.0149044063701875 0.8738922534894626 0.5614880498845749
P 6.7045238285845015 4.079431007753229 6.01351824193491 1.055178423398886 0.7056012102881266 0.41797112830412525
P 2.7948829097203305 9.004727670122174 10.150571495369668 -0.23332761188669493 -1.1195112811490011 -0.5353296463216523
