# total energy = -340874.13337256317 ev
CRYSTAL
PRIMVEC
9.24941674279136 0.00000000000000 0.00000000000000
0.00000000000000 9.24941674279136 0.00000000000000
0.00000000000000 0.00000000000000 13.53745634844739
PRIMCOORD
 96 1
Ni 3.6088170706656437 2.6197029736178603 10.039336970830556 0.45900490631698365 -1.6807532764610407 -0.6836591587993969
Ni 0.8028567479756986 2.9482052484944155 4.620063171411046 -1.3473035650397636 0.4205322041630821 -1.4273733739091612
Ni 6.984067876966416 9.203668842916318 4.82837760390745 -0.2893092694586372 -0.8861209343451707 -0.7616764560151399
Ni 8.05415136567625 8.639334196642999 1.7809742137980984 -0.07250202382446869 -1.2859822404224626 -1.1125312502867422
Ni 5.99650768188336 2.227037496781099 3.287246308481748 0.3691011420762998 0.3370096608583938 -1.4681351292075553
Ni 6.56697469126748 8.863623296301787 12.1595733056693 0.3704316879622653 0.4182529212106022 0.2878419408844914
Ni 2.536458225507459 8.163451719945206 4.859216083315771 -1.0491617848911607 -1.0027646856838601 0.5394063874941871
Ni 2.7391129400740017 3.760498251139251 5.900367397349012 1.1798607287713359 -0.6073621867088701 0.8091428770272194
Ni 7.723336736685516 1.7437462375014814 1.316705304403353 -1.2298149492022756 1.5151444080775585 -2.6782633986141806
Ni 1.2770484313452037 8.305078784730368 12.354715644189703 0.7343803393033482 -0.08325180614180501 -0.6402910762264069
Ni 8.957033153098115 1.1854514601743926 12.227585189817143 0.6572552148845714 -0.7938620396087489 0.48384896194385696
Ni 2.129483901412166 0.9636227052930876 3.6971878453763543 -0.7562339448433298 1.3334034100189036 -0.4901540782262785
Ni 8.335130138798222 8.397452706883543 6.692106346743744 -1.1337186829976345 1.2077142606484943 1.5158100666860155
Ni 5.14567236086341 1.039162689495048 10.912962853999844 0.44939875068578733 -0.08273758550954784 0.6851270015941748
Ni 4.97554784397512 2.9287074786036684 0.9833008388047407 2.113488450448218 1.134021044729402 -0.7973682529897944
Ni 4.066089721452533 6.628187329377995 -0.2052260523415084 1.074618791511685 -0.3681470056931466 3.1679919592672667
Ni 2.121742139837899 0.5352554058750668 8.256129022958161 -0.12412951819277332 1.5554819313543407 0.8424008677494007
Ni 1.3208721665171013 8.014591611490896 6.87779948141197 0.051551903935362825 -1.2213076830622127 0.6804565927016991
Ni 1.5944699053066194 5.659967664105922 5.3267047145790976 -0.266322835865793 0.2178372295605797 -0.767920894262955
Ni 6.82293379287405 8.834136156637793 9.03579193422701 0.32478715065027286 -3.181595408983314 -0.8011197496124268
Ni 8.54080941254611 6.731734546610878 8.783074753088519 0.7493873542351417 2.3806831473960033 -0.2962995847335413
Ni 0.7269514118236982 4.42614175586293 1.8335127491555094 1.2160004119166863 -2.4778075977548424 -1.0638150160279614
Ni 3.914038564320657 1.529132027456411 2.251359762295667 -1.6126915477961128 -0.8484128782714357 0.7733245817770295
Ni 5.675599177917764 9.596824538825286 6.936795034397811 -0.2836890950583824 -0.8257185219977133 0.2763079721029628
P 4.683932241927929 3.022875787549445 12.061873569520351 -0.8600283510231769 -1.7344818763327485 -0.20000071559979105
P 5.672463625738939 0.09214823639163114 2.870401007143852 -0.6032527925261868 -0.5738769104672311 1.2004166985458165
P 1.0749671805989771 8.80090300330883 2.636771846747075 -1.0665905218905698 -0.24580106176335734 0.017229476504409036
P 8.035116066608339 3.6213870276303144 13.09253419540839 0.4320240068527657 -0.34015052048022065 1.138702252255155
P 1.3400184585824937 2.029839937924016 10.949351908223838 1.0382070856518701 -0.787285671942812 1.6647522730470943
P 8.29095492580097 3.191344658891983 3.0053694170218277 -0.23825127444055744 0.3224633876131027 0.5027087749628374
P 5.894061145208827 4.695114786424091 8.342727609475766 0.724668511332223 0.3660826669649502 -0.030926514375527386
P 5.876468755108161 1.372613402175944 8.986881020003922 -0.8617327353087934 1.2234450411201896 -1.3820520242645424
Ni 5.898149387282692 4.767084495873762 3.7396676403370916 0.009774048667628328 -1.1260184861398994 0.36059156194339187
Ni 6.582273226086881 3.2913955967042288 10.029969161843198 -2.3784483445282136 -0.6469816008727052 -1.2584302989461231
Ni 3.7968207095647557 7.071419365983597 11.291890172573451 -0.09052931363982474 1.8874008079533884 -2.924100712932112
Ni 8.011724292389315 5.818807892917024 12.429144773475212 1.158446781871934 0.07776738598846607 -1.0746506731908847
Ni 4.268041480368365 8.640656863196307 8.906332476790652 -0.19513284598452846 -0.6273512282362874 0.0297782597036971
Ni 6.470845506032881 2.181465621898883 5.428966262924496 1.3516060490698594 -0.41881984945766576 1.5776862353655214
Ni 0.9328128990757825 3.4027863190924017 12.628997839797016 1.1383075879198978 -0.1591086053711195 1.3339831937817734
Ni 1.7098193779382647 7.989516443476752 9.665188825740131 -0.9365199556230128 -1.244718348676669 0.6301449889313405
Ni 4.9251015266202165 7.375947153404357 5.396422191121559 0.3999314971935951 0.8539466636054712 -0.41143769806098174
Ni 7.127609570958117 4.350463030414119 1.4865884115221222 0.06408551762599932 0.1159194715781552 -0.3264933347081022
Ni 2.440606522766561 8.188341899630217 0.9515586914085992 -0.11410735807008089 0.10790482880379482 -1.3925521524649178
Ni 1.4297377982125923 5.553913855013271 8.124680016041964 -0.10544196908559907 0.12183480862132565 -0.18799340672626977
Ni 3.202055483148855 1.6810721915908062 13.359452005632873 -0.15774463514405734 0.015800200257050204 -0.6270894899344683
Ni 8.493322908457355 1.0714894000112538 3.2148751743578563 1.7745895429869116 -0.1885230539774947 3.1514659365877855
Ni 8.522514066794736 3.57966290999409 10.957609787236388 1.3641885137205603 0.8103726356692624 0.058108474106957984
Ni 3.3865535932108735 6.513901539638872 6.843658035386958 -0.26682137276876633 -0.21466705936271416 1.172845216685451
Ni 7.538098673306961 4.23304168849617 5.659522767174354 1.6931794180395356 -0.12921875979022263 0.1769320067057856
Ni 5.966955796304168 6.926259024111972 7.5748836025553015 -0.6191800052794046 -0.0999259243633763 1.811974925613905
Ni 7.052152831504267 6.476348908824624 5.71941273873156 1.4542735407341147 0.6520425603353803 -1.8818467109043786
Ni 4.425235313050172 4.711005283896721 10.652786943430659 0.10221986260387557 1.3387572181316492 0.9416163963093138
Ni 4.795618945642716 2.621062637836997 7.410145945811401 -0.1674371798414729 0.10775776170296925 0.21621614901738895
Ni 7.838491971571571 1.1722525428906656 10.230729595919406 -0.17690706700512113 0.8500313877114651 0.38075543848577653
Ni 1.3483706816429037 6.67412918091848 2.5538406538545564 1.2282614886722267 -0.02337724127335974 1.514658469580075
Ni 1.931564888071459 1.4380252753578058 5.990865537844766 0.16318277544049314 -1.2267291111881002 0.6672195251861347
P 4.574030675589285 2.8416242226637323 5.111540164254853 -1.4048104010069806 1.1076610666786342 -0.8481575677275199
P 9.165598244780496 -0.07031776367050133 8.8530761867162 -0.09761038885632221 -0.6671827584109284 -0.26620765044416733
P 3.8104358505890352 8.846197395697343 12.803509354910725 0.050375881349390667 0.06277734033753704 -0.0577498052159586
P 2.4088347772377583 2.7914368889696175 8.028740443844727 -0.24832794195026905 -0.3383160383746432 -0.41077512477631833
P 2.051520570098547 6.021684593478528 0.5416042053309534 -1.1124582309569615 -0.07684975927020313 0.09069694956594057
P 8.496643448965315 8.07080031529833 12.915788946220388 -0.1454578473569043 0.08901339121593056 3.0036231339384725
P 3.697407981488024 6.2270678858998005 4.0371270237016335 -1.5859019384070943 -0.6142823108674712 0.24468160344693343
P 0.2717358312567817 5.591392490495865 10.442739170290267 -1.5254925840811018 0.579895348747169 -0.8346456492840142
Ni 0.37160548050647535 2.2766883643207247 9.156003825089948 -0.5935831306469068 -0.5451661727960999 -1.5653117729605688
Ni 8.242302995238669 4.610501124678098 8.317941023255072 -0.28348237836421497 -1.0819526061689368 0.013690095892582873
Ni 6.759556791312665 5.686365498673377 10.267036330336934 0.4209528366402685 0.32193579724440685 -0.9472499404460073
Ni 4.163217843664457 0.6754858087752655 4.910901822475874 1.3053668155966616 0.44445889018200874 -0.10889804595499955
Ni 8.999247489806544 6.145765515245309 0.9981572515175102 -1.362526552637105 2.0724693277233794 -0.9862795435446433
Ni 2.9617648930199545 0.39710889650256515 10.89522894782739 -1.306211937205776 0.02440156877281604 0.5140985048570178
Ni 1.8901829988441334 5.670142022208305 11.86629743336813 -0.11800823578638386 0.6678993248619788 0.8621849923548636
Ni 0.07566855109070876 7.5101376873583225 4.679059649338533 0.06939561698500306 0.2572465845961376 -0.31241474512784906
Ni 6.497150846435768 7.104319540320118 0.4684949677738167 0.1377864468545756 -0.47298810796995316 0.38276784093011496
Ni 8.45097907991853 8.047898760151513 10.834635095677829 0.4650367143333604 -0.27277759035220117 -1.247035169735304
Ni 6.77034161090119 2.0070123781088527 12.409257603151637 -0.8952696907239743 0.8771668104756764 0.6147944746171993
Ni 5.501340171873325 6.887180239582366 2.987946291242321 0.45801374604830797 1.4281516468360824 -1.086336594169245
Ni 1.812876376098941 4.022524969941423 10.12769572129987 -0.5748477590209325 0.5470693033560836 -0.18075626554788224
Ni 0.5158131324830599 3.13049274802328 6.959754860868306 -0.3958262167759699 0.8210499128774504 -0.22997489336437812
Ni 5.4624093780070275 0.32010287979221597 0.8060718451360515 0.19262473485069406 -0.2303453893299194 -1.3266429513666185
Ni 7.3480139157050886 2.6023695671779836 7.598980182308326 -0.20997093943862546 -1.1337526215593634 0.5133225459229418
Ni 3.5431554632394513 8.19766531141858 2.8741507205754027 1.2346802477143768 0.8548815167149147 0.009836526474447575
Ni 2.5752040310446223 4.24212461545666 3.3305798245814398 0.686396869445534 0.3244217968910542 0.3597554391953417
Ni 8.818893118317133 5.247702673797391 3.5622730821138275 -1.1935253707426217 0.6516923760848131 1.3770931375973705
Ni 0.820025514802646 0.8104569934781783 0.7441285031254565 0.2568403502966545 0.38916680247792335 0.8598350040654482
Ni 3.418047856245975 4.318312058810591 13.460915329338057 -0.9391162555952794 -0.3868263272702048 0.31275901584114524
Ni 3.6864474229868214 4.493884481991883 8.465255554219464 0.019623687768198464 0.8716795621088601 -1.1727400585661545
Ni 6.062502268301994 4.456868317332125 12.613673406611538 -0.10327555756189956 1.4493449930842457 0.5200194983271431
Ni 5.257803036568119 4.783354219421117 6.1656748841683795 -0.3581582699115509 0.18351223102646458 0.3798681507848167
P 3.398531587522314 8.773783714257751 6.780180215186194 1.3746220503490585 0.4856716169748926 -0.04788371105515625
P 9.08937380376074 6.030009068289568 6.528329704369695 -0.49052483130213587 -0.1389385581811478 0.5906533585946214
P 1.9670456495994035 2.693790799436117 1.3835554618442334 0.8440366035806108 -0.3363964527544271 -0.021989359786897613
P 5.98337351051483 6.849350126274417 11.860111423641882 -0.7747448591633239 -0.9188731890755273 0.12634812311064691
P 3.209538261062334 6.430055579458785 9.339910897440383 0.1056653979503148 0.027593079126920224 -1.1085208435757685
P 7.534204668978685 7.281408867800311 3.5375401425085813 0.5524097417323905 -0.5043619942955443 -0.1917112218974892
P 4.98114374093143 5.193094119036967 1.6679500444636701 0.5945025571373826 -0.8390648613976324 -1.3096117069159445
P 8.599321221051264 1.3938408129440962 6.043242208414185 0.10759141132843406 -0.21983291983436978 -0.4383998284721224
