# total energy = -340856.9383887564 ev
CRYSTAL
PRIMVEC
9.30743889055563 0.00000000000000 0.00000000000000
0.00000000000000 9.30743889055563 0.00000000000000
0.00000000000000 0.00000000000000 13.62237762666766
PRIMCOORD
 96 1
Ni 4.277736019919363 2.2156823008979556 11.86045879642828 -1.895521894398626 -1.8633764200143328 0.013120853652674177
Ni 0.9384224989520756 4.68342865452708 1.3264244849730513 1.4519631474333834 -0.8899853023965834 -0.15707074900548432
Ni 0.9103093805976522 8.380287430116178 12.987016275200022 0.7989178568651015 0.7818637295962921 -0.881238666552205
Ni 5.603720263045646 4.423211285564005 1.9512691386045788 0.45655310234238144 0.2611209799498793 -1.191044513302297
Ni 5.51549505235815 3.8216715274953446 12.57521144564996 1.7640097105885362 1.4447308913510022 -1.1263725270452085
Ni 4.131562696378155 7.015463245624886 6.108301640768821 -0.5268120957689444 1.0886963526506734 0.913354316139827
Ni 8.14977009779239 2.2532192008560386 5.307373278843967 0.13090386080212937 0.15847688532439158 -0.6203596274098025
Ni 8.534204542589974 1.9023846094798964 9.832550346731498 -2.296970599567696 0.5026434689425409 -2.190907194848014
Ni 0.6701635030205435 0.3802293440286634 8.982568060299062 1.5347878933400987 -1.5732474828678777 1.0328152252123373
Ni 3.4854589221926333 1.7805967751254417 9.713149870383305 -0.5481437673671851 1.0917821906648488 -0.9398029972496588
Ni 3.050838768351164 7.568278562513143 11.807018276098667 0.6868049035172301 -1.5303892500517708 0.7601901012776004
Ni 2.119815683102703 0.10178149503883387 11.074079822555612 -0.3054863934391319 2.0119172771719347 -0.35081288529007326
Ni 8.817243751051492 6.9057936963548405 5.678270054167455 0.6769056421256472 0.21506917989713928 1.9695056449749437
Ni 4.375706118842939 6.719896224779638 0.8242602490597228 2.67748512568726 -1.7193802448046194 -0.5893050720968431
Ni 1.1508740929127013 8.201873139192177 3.006989563520388 1.0166751251173651 -0.05923410307096896 0.8793694745539501
Ni 3.938610186328311 4.554976694120063 3.449526624652793 1.235980197472723 0.5776356061787148 -0.29111829764291797
Ni 7.669627261656105 4.312815756081529 9.52106109063748 0.6565131945122242 -2.3569878606615924 -1.823257697616576
Ni 3.8671755949129163 0.08381627701277587 6.668358144904138 -0.8691861062630452 0.5622840634233089 -1.7046745631633287
Ni 1.3064386220223962 2.1972256501127143 1.2967607473443863 0.2846170061892904 1.728698693992068 -1.080623602944868
Ni 9.114858408393337 9.218115132453585 5.149830919027331 -1.5102225452959088 -1.4511298528988104 -1.8488535438078093
Ni 9.139299742211817 0.5342413923763926 1.98472565747126 -0.2678017344041646 0.6687935545414739 -0.31950019121972073
Ni 3.1992924143544927 4.68715162997544 5.609681677482332 0.5085873452308015 -0.18363512975757407 0.7855411784478793
Ni 6.022080321616405 2.3458002928181148 10.214562065256064 -0.1639829027442853 -0.14218174770879385 0.20310712243925663
Ni 8.021150603490193 8.38133917068034 7.890911614867964 1.9261745862874762 1.083900473923927 0.5560514522500359
P 1.7447445215577413 5.564368412556488 11.644272127349087 0.704470182007477 -0.22619562882760402 0.6022701168979434
P 2.30089190147228 1.6261491386502545 7.459885993821886 0.045666648799179414 -0.0979214923388378 2.27544866633552
P 4.155948185564909 7.233880907741508 9.282546807050615 0.7786213113995945 0.36232808501852437 0.42178201740978327
P 8.36663341765932 2.7174556243892063 0.2956340344033183 0.8433660598761475 -0.30075016430572726 1.940484575152245
P 7.56834371458349 2.8936919746759164 7.49223958121199 1.6944451721258367 -0.3663685736364852 -0.7047969692192765
P 1.3515238547020278 8.185855037325611 6.420770970149621 -0.09169942268852593 -0.5148857766450037 0.22344069179028617
P 2.134856503914074 5.012130156862726 7.523802036319318 -2.7529588305455426 -1.4861685896704986 0.36292303829004596
P 6.744188639580183 0.5130548698436416 9.346803501801574 -0.1899487306804277 -0.4935515339436017 -0.34758512238139494
Ni 4.657833198319611 9.078252252297345 11.086476400054787 0.663471113887296 0.7372561181892465 -1.4186020554744343
Ni 5.790185488376723 1.525666031299036 7.357350596254759 1.3627592374732014 -0.7026917499508157 1.3330334282739944
Ni 0.2450239061583215 4.195225576545099 11.080455418010928 0.39630392774333684 1.9315898437657766 -0.6003086222961984
Ni 8.481794355715696 7.076138437994523 3.377422828400556 -0.8810918565616954 0.7396148482294101 -1.6627326715139041
Ni 4.055102088107475 2.883025650016367 6.839087283758862 -1.3644790483777856 -0.655443101376497 0.09468678745162402
Ni 4.496432905194611 9.238461193278868 2.1778363939776586 2.8051324272253044 0.14501304651000185 0.5148873193069003
Ni 2.527192964100802 0.8237408939846768 2.5166792814346355 -1.0411934219737036 -0.010952128136129525 1.7540253456823145
Ni 6.930905165754024 0.4977646096772298 3.532418673010514 1.504844311703131 -1.7765045006214373 -0.8676100200251768
Ni 2.2116707948523486 6.499738071640909 4.680648522611018 -1.3699279873074985 1.2871996577693317 -0.8198548641280847
Ni 6.408534480594726 7.643343054990689 4.812936078473708 -0.3672363209534191 0.07567733622865677 -0.431648882901534
Ni 2.2375827039729295 7.030262073032114 8.152570706073416 -0.7749145519719687 0.753917123784695 -1.6878981150359382
Ni 6.672856429989618 2.7262418464473344 3.223953403724425 -0.21875511338915876 0.6764950369507898 -0.455768401657557
Ni 2.046621985787958 3.510263246117327 12.494621126863189 0.5875749767796138 -0.051068536541041085 0.5807934350814062
Ni 7.921579625123824 8.227580284663098 0.9960439207101952 -2.278814497483959 0.1789050712717564 -0.5753612083222415
Ni 5.16789014218346 8.548686917084092 13.29827377607238 -0.24157802482094523 0.9560621394209986 1.3056655777840027
Ni 5.685895638629558 8.378379405198894 7.738259383302748 -2.439723389288611 2.41000452206794 -3.270616256398412
Ni 8.163079735020272 4.967333454780343 1.9265988417960256 -1.3269064894406501 0.901651168770286 0.4144098933154282
Ni 1.2796425062328298 3.6307201167489938 9.155095396295344 0.48224407935058244 -0.8388692004470585 -1.1866687528321047
Ni 9.162354267675783 4.606986661133642 7.214342732588518 -1.2777500823206576 1.170617612906513 0.7369370442869309
Ni 7.523453938114897 5.389174495395318 4.546959266492021 -1.2822029758856885 -2.2118526867514294 -0.06336715140273604
Ni 1.2514409672115079 3.2966389148904685 6.033855162215704 1.02715802692656 -1.5018219799370391 -0.036407849205072784
Ni 3.1714259431235234 9.010084571837885 8.777850947832402 -0.03968549151508004 1.2179109986758379 1.1634730314419317
Ni 6.278267569656633 7.516445436833361 9.477673534762301 1.142668950212387 -1.5366807394874373 3.5133471638768783
Ni 0.41065163790493175 6.992148111879536 0.9830684205288008 1.3953001475237001 -1.3665621561590595 2.667549611741103
P 3.6153349207086487 2.5922519600608815 4.60731986743627 0.40512743957223774 0.346469520719713 -0.7810918844272742
P 7.079451886143563 9.178977353052707 6.204093799055108 -0.4224335349508532 1.3136642797187632 -1.8497017507407179
P 0.38750124582317125 5.003129863716318 5.026452443412565 -0.5722715136533242 0.1614933035532122 -0.8975618291922606
P 2.0108069619747413 6.24653851139799 2.4622037739303795 0.298470367132615 -0.33454500136798515 -0.6223334633067218
P 0.6347803443593364 1.4253783801588562 3.770551351613922 -0.5912470263145625 0.6997771474071819 -0.4911652930996121
P 5.060361303796221 4.408012238296077 10.185479111797342 -0.3286330067589243 -0.16857489299034192 0.915897394276655
P 4.058033931273058 4.573796335011519 0.2321284499490668 -0.2544952471032456 -0.7807023622983393 0.9966650005440256
P 8.625156832793392 8.25245906809676 11.042176715194758 0.2652663695768206 0.5681947724807892 0.6498640646268228
Ni 6.3955040665254685 6.301275557927494 7.0843857593565005 -0.770878177119066 -1.2579759850175238 -1.1673206873227961
Ni 4.431318064602807 6.911517771106694 3.016647892577294 -2.624720946611351 0.4411771341069434 1.8007844562147246
Ni 5.428535653323097 1.0918370097403431 5.04304481424204 -1.1510674586887273 -0.08549869319445275 -0.016159126258365717
Ni 1.1032479294895645 7.141969951360137 10.428596854526104 -0.9866299849055266 1.0016727381712618 -0.484912627321681
Ni 2.805541223497388 8.18740007213668 1.0336059507525548 -2.2483623516416893 1.556358420422023 -0.4924071359265133
Ni 0.13281063391318476 1.1518979111610002 6.928708610239492 -0.8500167324234458 1.4216171881516741 2.2596721202275534
Ni 0.4668760131260545 1.2943296443766075 12.817145282186143 0.13631294763284266 0.5078052156491383 0.5267539888374994
Ni 4.959226675741539 5.976985781498153 11.944808389674032 -0.08167289169045934 0.5810821699664186 -0.7555418038723116
Ni 6.667625649484673 7.703236422516169 11.867596671106645 0.12211660152780257 0.2342246697796676 0.18445325478349525
Ni 5.48907123411342 2.0924331986800198 0.2327166800699076 0.19879769643062536 -2.1545867631504247 2.011917534282251
Ni 8.111097690322556 2.8714006591788652 11.873495725704572 -2.9743799208026385 -0.06600690301842825 1.0507363284671325
Ni 2.960100549236026 5.566825576352405 9.785062864143812 0.22598197015490112 -1.5654686102534072 1.4984736322900967
Ni 1.8126329788585738 3.9582954190115114 3.631589431516186 -1.2744336163529149 -0.2524332223678943 -0.12599536775691847
Ni 6.103781017830652 3.339090142440386 5.408001582237672 -0.9508533415265495 1.573529789994987 0.8429621395695095
Ni 3.883603224078802 2.775236203347743 2.023862506128275 -0.4627903415013449 -0.7045113196580576 -0.7583252801547198
Ni 8.704204909000682 6.711956979636012 12.676697894884512 -0.071324972797232 -1.0246301182983837 0.015611481285011823
Ni 7.350903333522063 0.6267228947452247 12.713928580111967 -0.1905110309418009 -0.12461160003551443 0.3280138851176867
Ni 1.875234811022736 0.9744888236080568 5.45017730960441 2.5163476628115697 -0.408445191091561 -1.3808317787041962
Ni 6.696851006754295 6.186300768643536 0.7367377499881053 0.10491540715816769 0.2648876460811631 -2.1591466146069656
Ni 7.794309709421659 6.048662366317691 10.640588661018857 1.0388796862388625 1.9851173833702718 -0.4127721006016892
Ni 5.85822286469549 3.8472111390710895 8.256249987847053 -0.8169790852421865 -0.21375097530634798 -0.9533946198911645
Ni 4.1195281782413335 5.14333711910153 7.733954692940582 1.8386328945210657 1.3963841246164983 0.615295582623334
Ni 2.467997654471889 6.065155147553923 13.605322453200367 -1.8075143187393903 -1.1444982901116418 -0.6369136751137418
Ni 8.99790113468313 3.1562920479259424 2.7948218464376997 -0.16063069844260078 -1.4084264004930132 0.6922250460915368
P 6.2980365692874205 7.356794942169092 2.446265716035953 2.5901442370777454 1.1733967183135467 0.06427937880436027
P 7.316046975886799 5.042770244802723 12.455484278206171 0.08324614971485018 -0.3301227039305734 0.01717059824201559
P 5.101919017238532 5.826596188261678 4.744810281488043 1.923111116870804 -2.2700375226222773 0.6381848285166816
P 8.103819273321013 6.3257634289390765 8.219660585140575 0.9564094954580883 -1.8224071766908227 1.5077290894500937
P 6.875916818381758 0.7987197067401156 1.3842925538546247 -0.5267501321827573 0.454084843307547 -0.06620282107931823
P 3.2983980207898185 8.603414656174975 4.393502872229959 0.3114207566456959 0.3872585297116169 -0.16494141000281273
P 0.9619796261015694 2.0278861118440896 10.883516531999753 2.192247768036309 0.41331434625840424 0.17201374346856182
P 3.4135682662848144 0.5970572956288354 13.200328807233081 -0.006744003592052902 -0.1782962340431639 -0.34602831941723633
