# total energy = -340861.4890867141 ev
CRYSTAL
PRIMVEC
9.30950181523744 0.00000000000000 0.00000000000000
0.00000000000000 9.30950181523744 0.00000000000000
0.00000000000000 0.00000000000000 13.62539692546600
PRIMCOORD
 96 1
Ni 6.607009343258384 8.62122248013017 2.0409751619343677 -1.4830799234428458 1.8755197402450858 0.2033691178513917
Ni 8.193534654130906 7.261001850527452 1.6018012725120634 2.1382489452223497 -1.5927001922758506 0.19336366989924764
Ni 9.074641769333585 5.321329895231518 11.12611804939179 0.05362344175241087 1.4546021277181271 -0.05766495881163617
Ni 6.701016693271239 8.1743943182598 4.713256505999526 -0.24057889413246955 -1.1770374003899278 -0.1284183753761143
Ni 6.283178320264013 8.300165688696884 11.369017848717935 -0.030867893223450064 0.01653810686433926 -0.5065739143451985
Ni 7.763994237256958 5.33835697417522 13.338541652751363 0.6462128410274806 0.004357248527431205 -0.5706599461918301
Ni 8.668226155136598 3.2487368720524814 1.2217510985974482 0.9974882677762693 -0.024522410621396477 -0.20037326844786135
Ni 4.62637557967798 6.797304871245388 12.605535679201934 -0.7834863528013797 0.7078786934683938 -2.362844576552685
Ni 3.858965410970349 3.4459493599384308 8.371267009327026 -0.5224201373488357 0.6131389412916473 1.3043203766100182
Ni 8.397161388814128 1.5419048683480996 7.188132655489761 -1.2850723270136837 -0.37153777654225045 0.043008899461358184
Ni 1.3715596028960082 0.21865878737343344 9.529126065552397 0.6287877035724977 2.270367909378503 0.33601850058971805
Ni 1.3736170028121144 5.916979754200866 3.9156528298352993 -0.09336472620609082 -0.47620070136997994 -1.4107200816231962
Ni 4.380511634952342 6.952242911081389 5.999302748400577 0.6971433093287607 1.97591669070761 -1.468474000604213
Ni 0.8416767199779376 5.294444053793893 1.8739282529993642 -1.7738323531059128 0.6772445135223046 -2.1532791000825946
Ni 1.9645376348249846 2.828040481967226 4.51532066981728 0.8439275888065724 0.6626128796520588 -3.0355395230310944
Ni 1.5884151397547368 3.7778051735558043 0.0711013206301425 0.7511197635452161 -0.044787331518019634 -0.6758499471676231
Ni 3.9096091012129643 2.183404024090405 6.008009925511591 -0.2417991396928158 0.7813762484369124 0.36264690181052384
Ni 7.750178936462833 4.0066885868471545 8.083035521532612 2.427894000753851 -2.711378693110911 0.5186946088681325
Ni 8.856613235237619 1.5670125949261022 11.700973274005454 1.039520919367287 -1.7922213971360619 0.289834545834488
Ni 5.66803436435201 4.716184344341677 8.27234610422041 -0.3885859902737888 1.93030120686134 0.04919343100551528
Ni 0.6973086885797054 4.252440817550198 5.774551822995017 -0.012688136990629761 0.4688812848904312 0.8724411228652329
Ni 1.261567838150328 1.6476049527257937 6.230539603767907 1.1112310434180799 -0.8640919795695893 1.6576372592688677
Ni 3.601027042302675 2.8114137116044846 1.2713949483378475 -0.49616094654199067 0.2250777131730769 0.2243583185085491
Ni 7.41986850015801 5.059341893244811 1.986296733575732 -0.7953432521399657 1.9868875878968169 0.14049304715246125
P 8.681669075855408 1.7983909547220511 9.376017342836372 0.357410593112249 -0.37995659673356497 -0.1346748978087874
P 0.9238181788909325 6.691344120814975 -0.10011810704874691 -0.9117640888345716 -0.32755442898276493 1.1534485573263942
P 0.2293190979794663 7.798876940811936 3.4728547513300083 -0.6602850028498306 -0.3277819716125387 1.2882653800296844
P 3.193429121366566 7.974724121876783 10.921968120702752 1.1873914899307423 0.47124669979881423 0.2157356098365446
P 9.011942274152702 2.0865200379957547 4.848719998846827 -0.8488116563717509 1.6166885847706483 -0.8689909595331035
P 9.146846265936844 3.664061679551342 12.540229523493855 0.09039818737859914 0.16659154401172602 -0.5944688756859698
P 2.8069544602026073 1.791464685321223 7.88756484144894 -1.3426228717346425 -1.9352207556501446 0.42811284472381755
P 1.49518978790004 3.150698507724359 2.1240633971888467 -0.18436789415854055 -0.3418934713132563 1.6496771238815267
Ni 6.191526274227516 2.137340608774144 9.107760322281766 0.045296924164586506 0.27515586077639065 0.19011713793749194
Ni 3.3579094006324723 1.9578999599825242 10.393643648399868 -0.6805285835902152 -0.3004292906311987 -1.2164305574755694
Ni 3.0680208215029134 4.740538001267169 2.221798271755588 -0.5637171963254098 0.15985731061168598 0.7995434062642424
Ni 4.836816869739437 6.650335765021092 9.930734252977093 -0.0404449953889239 0.43964629928471377 -0.4686833099470122
Ni 2.505224194678084 7.524255944770225 8.962990120402196 0.5820836146477394 -0.17856002922751182 -0.3070308551081164
Ni 9.023821198555197 6.508421718319175 5.503829646341836 -1.1948795707776712 0.8967179931347267 0.626362896181089
Ni 4.104494213628205 0.5279055447181569 12.046186360924317 0.6191021008536176 -1.0276545069470044 0.6693597114575891
Ni 1.6695939961730468 6.57056264338709 11.555112929455404 0.4342287278135683 -0.36506373878213255 -0.7963418686078092
Ni 8.769439059606766 9.273213444494429 5.197066664099453 0.7572847547053474 -0.9166029049841117 0.08049326956006138
Ni 0.8541011811907674 8.438123197098596 1.6082332073629133 0.31182930493802424 0.8674593533799254 -1.692476735545556
Ni 5.594219323923022 4.745583751287666 11.48599173987574 0.01603854152010141 -0.514106732387134 -0.14160659193161418
Ni 8.791065032480589 8.7507641988298 13.077914699939928 0.8510446594673278 -0.01405930630654353 0.9577241005044538
Ni 6.442007731887039 3.852551164173076 3.7530474842485964 -1.4404641456548484 1.070239945717699 -1.3916198704586356
Ni 8.691574385858743 4.231243081762986 3.600334415362592 2.406956479270235 -1.1911980081610258 0.5210384265099607
Ni 7.910060321798619 3.3644912184636357 10.666028502089324 -1.655704046801897 0.457515980476283 -1.4232033016918715
Ni 4.134359095668335 3.242285387247678 3.5136769170862343 1.0021504491386288 -0.4051914600409538 1.4645232434865811
Ni 1.8429369212314106 1.3319197438789023 0.9034033722120666 -0.3410792029420771 -0.7572742131823861 -0.916593391902415
Ni 6.4563071267790715 6.591453165612169 6.486138494612424 1.9900718991620694 -0.22536541961682477 -0.03181534473838391
Ni 3.2768515677386394 0.9744534905818534 3.0840406123428936 -0.48641183757502676 0.940802642158767 -0.2488151659993328
Ni 6.63045066899936 7.449351692620945 13.570146233443067 -0.0500920315603847 0.3940081897306246 -0.11955398300694894
Ni 0.672628268138125 3.274393859241571 8.124552176129296 1.0603165159563996 -0.39945532888812496 -0.347357322641305
Ni 6.973738550928853 9.057270238820218 9.164932766194813 1.0596272031988592 -0.13575321847463073 -0.48251995871978826
Ni 3.3741637909199 5.73249335538875 7.402896347275416 -0.771112147506743 -2.030140742158497 2.242955835914137
Ni 2.616361028155353 7.207937689795301 2.011925792259173 1.3278107464224744 0.06802547611035381 0.7468170224048041
P 0.9378485291785512 6.572089401695875 7.568390431296362 0.7677763982652905 -0.9379829133217845 0.3082618993017401
P 2.866823866811111 4.988347631886321 5.287444239328191 1.0458322062972956 -3.113761994279108 0.026095925756103446
P 4.5543107256029645 8.28359477534544 0.5488053764451186 0.035407432965016444 0.5453888303298671 0.8062313598073793
P 5.307980069531533 7.790786983675754 7.919584873174947 -1.4156856531585877 -0.2510278573799354 1.0034532271104524
P 7.313311941607096 5.280507729475291 9.831786350315017 -1.923805057614035 0.2275997082639822 0.923773454590622
P 6.428778929711533 2.850485691006738 6.935845154464967 -1.8012909635374978 -0.24825800794428213 0.2504429314107429
P 5.59313011220273 2.2583082762396853 11.731930160616441 -0.9958679585640268 -1.2581690748649363 -1.8690405602786457
P 7.917861684376434 8.280131640645026 7.158292909104713 0.11322546968575985 0.940437031289232 -0.6662291362484075
Ni 5.235058741283297 6.40343846558646 2.01382027589233 1.030750886484141 1.593948205750339 -2.231406697623957
Ni 2.485953525780618 8.211865063338205 13.127592994837293 0.12663660088534318 1.1864378677682212 0.38213329266990964
Ni 5.154075384404527 4.688218600685644 5.7924558570160825 -1.1677536610951567 -1.654704659003105 0.31989151312086844
Ni 3.7347673463514637 3.0080955578831126 12.68453611217966 0.31081577607184535 -0.05026146725871344 -0.5436574494610572
Ni 5.9797164873892825 3.3198335379316823 1.4955100347648094 -1.446024413351445 0.831912052402935 -1.6627457841400266
Ni 6.697041535967269 0.6871296792210151 13.093529527448005 -1.976214681564003 -1.2324665278925095 -1.1191238159025951
Ni 6.99820392187694 1.8590982165000098 2.8254710594475636 1.1361242071153337 -1.1320587787967082 -0.5894228286216301
Ni 7.10665030931007 2.9834719254030175 12.886423831911168 0.2924151620774706 1.0088353173579723 1.916360942631164
Ni 2.1663024691316397 6.8436289526143685 5.712079479660073 -0.9386390588485447 1.7227579030276008 0.14381516954715878
Ni 4.846098443116621 1.0410257385459973 1.2596826640190542 1.3725250586107138 -1.5634312681084044 -0.06858906192330767
Ni 5.921792766674291 0.2326686567569099 6.789126473841319 1.5521708647032366 1.0408278111041689 0.7046972104166186
Ni 3.8963616800336918 9.1821199685709 5.821164498922365 -0.6013226653830095 -0.12244364584991815 -0.09243990039897627
Ni 8.024381004919817 6.175225336430675 8.062787354937447 1.211434646922875 0.7579154463108108 -0.683603622971113
Ni 7.584395326933331 4.350274372836898 5.629060134719526 0.22359984307596975 -0.04470145667243269 1.6268058757103079
Ni 4.166067259081267 8.187055240820454 3.550138512160541 0.7204367326390624 -0.2817569110326761 0.26716410082016573
Ni 9.284440703765126 1.0400575503501825 2.651774373317652 0.49848599513074143 0.5701290133890246 0.86735676636379
Ni 1.0897237428951005 3.1631453117417085 10.423796194048178 0.41289422800185016 -0.47240421044202513 1.3671069729189358
Ni 1.798521287748411 5.1369831389476435 9.345605062085532 0.21686123880055555 0.2858835316065399 -0.20379772074837801
Ni 1.594903862567072 8.61606501608708 6.82786331117579 -0.6017109019603637 1.766012599951178 1.3746960981201035
Ni 4.686291533795897 0.21192708656195638 9.329731430425111 -1.0938647842254903 -0.9756572879441067 0.029926612356103298
Ni -0.10481475074863651 7.8748704046815075 9.079774097721591 0.18733494720666446 0.21287937133467208 0.4791124757001361
Ni 3.0886599871771554 5.803804139811257 0.3226626805080752 -0.8015653217902776 -0.4828007231850008 -1.6632270946518193
Ni 6.083079886794385 2.0579864147248697 4.963568530724783 -0.009769677792254142 -0.16447064101398126 1.856108682708326
Ni 4.23700566342846 5.837960702219374 3.7640838987306955 -0.8601126832068671 -0.653057888973772 3.1212374767205473
P 7.953740504632875 1.2875972054147309 0.917975535509266 0.4761976160461863 -0.930005808653579 0.6840463669354865
P 5.582480042048768 5.306481239728398 0.1970449168520584 0.7545437016251005 -1.545503737095706 -0.329252128400162
P 5.716490321652159 0.4323947101512244 3.7189700526064833 -1.8149828592022936 -0.4606141597856325 -0.5348197965647693
P 2.1323320967611794 0.0994468919629946 4.649203409244877 -0.715743183818135 -0.20712421401844974 0.642488855208674
P 6.450172165038285 5.916719088148148 4.282557987091353 0.04089699532467796 0.7142951385176988 -0.2862514564689199
P 8.430656976588564 7.891506484546132 11.171871458295353 -0.4402541080720418 -0.4878639966405211 -0.8537247774026524
P 1.7274897883823899 1.0285975535324143 12.18539692827946 0.5539912272868974 -0.052348174584413064 0.28470596635867096
P 3.2762836881237862 3.997723536533985 10.85866443884967 -0.5904242733029509 2.2706988103553605 -1.4655552842955213
