# total energy = -340856.6961350577 ev
CRYSTAL
PRIMVEC
9.33606238293391 0.00000000000000 0.00000000000000

0.00000000000000 9.33606238293391 0.00000000000000

0.00000000000000 0.00000000000000 13.66427100106621

PRIMCOORD
 96 1
Ni 4.778028659189732 8.448165471990325 7.707222888051061 1.176544519913909 -0.6633646702164189 1.7010212826814577
Ni 6.898033688367835 7.366890739347564 7.068977923516061 1.117179804802347 1.4782236237918092 -0.07233413078803672
Ni 4.68843980492447 4.3295802404967745 13.708132872717988 -2.0450089175195814 -2.6031612181627035 -0.799110946712514
Ni 3.479242346026746 8.459751525360812 6.018250786867042 -2.5847176667455356 0.7208524800202425 1.901619008435299
Ni 7.941189278454835 8.128405336664642 9.188880256008364 -1.7876854569389213 -1.8379687785745056 1.703791903448059
Ni 5.14407699162329 3.794381130491517 5.709957203313826 -0.4255232296197704 -0.680898308224808 -0.04283175045354559
Ni 2.645522642531308 1.9802908561810548 12.676275785281238 -0.1605157701312913 0.6258767005732898 0.5714744716733255
Ni 2.5914948497391994 2.553525084180964 7.781146763307186 -0.5676342719916289 0.6845161074830534 0.6161000808025003
Ni 2.2104528011791293 4.539174840148207 2.507749436895844 -0.060233747980076906 0.9898924577068822 -0.0019974900460030115
Ni 2.8503091700749237 0.4810331434904385 9.120873577066675 0.46752682774506577 -0.5071261873042427 0.5328508457638564
Ni 0.14085784063434253 3.580846712530378 4.659557762453126 2.0246663493074877 1.8328219442662435 -0.8276278232052843
Ni 9.464900005640196 5.56916658232837 9.864687933783344 -2.2340873297799138 -0.9432346486390272 -0.09478397515112064
Ni 3.4708305538536526 8.921298439524191 1.1261597195801412 -0.07376649235918908 -0.4646345937989353 -0.2173996278025288
Ni 9.338769803355525 -0.13779094415391957 5.884013148041734 -0.2103728028627345 0.7327492314578283 -0.601989352432731
Ni 1.569961580043856 2.2784846874891507 2.617664766099241 -0.5106370286709786 -0.20189150486460067 0.18023921670214765
Ni 6.406293948579833 2.6431699548202983 3.2990610107941034 0.8507425548458767 1.398444606689953 -0.04966522843561124
Ni 6.532638880298446 6.662288778087285 3.220354270798494 -0.747918482999099 -0.3373063661632062 -0.6730911534755634
Ni 5.5651053952081755 1.1622370653009888 4.837493774691731 0.8760725489702332 -0.5590691560304372 -0.1678308157354658
Ni 6.958708757549778 3.707154299999609 9.398313341781224 1.1887490323999013 0.8792301207626084 0.08149779956517578
Ni 6.809789227080291 2.566567563277314 6.937295564954654 -2.4702318422901133 1.0676942964777096 3.097162695159531
Ni 3.3963101042136645 2.1460152988720385 10.553941408547992 2.891282380850511 1.1242945614702573 -0.9106587715855348
Ni 5.166856983745762 6.7740974607343025 5.456498981945587 1.1002375205210535 -1.5356281298532068 1.8631573620249913
Ni 0.2643758126748051 2.0976451598611665 12.856289071391666 -0.9509376737102397 1.9409396604117926 0.4498229827073995
Ni 6.259073581457185 6.038387739739567 8.980267810115654 -0.017153628961151104 -0.5019814098785097 -0.9508412573416916
P 1.6930295538792761 3.3657438360952328 0.6585714394731336 -0.7009017479299283 -0.5923891103388056 -0.591962050103716
P 7.685185112885038 6.885962159755393 5.066001369442221 0.6346698733848876 -0.24919980303226116 0.19709794013069926
P 7.284705382522104 0.6016205255607191 6.208621500543318 0.11106060082395712 -1.736582981836151 0.22140129276275416
P 2.7467722386658195 7.835981191885926 10.403155599215683 1.814558370070365 3.714222311661823 -1.7670790935424794
P 2.7444662312665367 7.0278142910295065 4.399266477054379 -0.8956499568815285 -2.6398323483314923 0.24177497132309975
P 5.409912030842662 2.2805106130180754 9.034487925792076 -2.126532171006054 0.11634550337198026 -0.5430085030231487
P 8.62898632749362 2.049583110907689 10.792178113868495 -0.21512831526984888 0.321480197764227 1.1308303057062459
P 3.9184573990602267 0.20960767013871603 12.584616192387793 -1.372827677452797 -0.2610410186415633 0.12095497711953364
Ni 0.4022405117212523 2.5964149545951596 9.029992611772824 -0.6387592129629128 1.2342961249020807 -0.23689501752297912
Ni 6.593818096847035 1.6781852147502883 10.650096315460686 -0.011588219058231656 -1.287542642931047 0.9882436092495498
Ni 6.956701504145545 8.764919395240828 3.970905530103515 -0.21585439480259602 0.6682857616671201 1.0137222131366284
Ni 7.812211577154855 2.365683509794023 5.118526989802976 -1.2018650009565688 0.24372566729156736 -1.8739395402421595
Ni 0.296984811234383 8.815371476154697 10.74379303715787 0.019720875467695066 -0.4788404529856722 0.3138491635815305
Ni 2.703798343690517 6.32008474888356 8.73166060674202 1.3847311137586023 -1.9899587706229729 -0.36673881249171036
Ni 2.3148486503239987 4.83777012213715 6.594390397468801 0.1732689560319016 0.35267359264789583 0.46255585689303563
Ni 8.891152294211297 6.876616761347773 12.192847941799238 -3.5049324574506224 -0.8897819281365257 -1.8416400567785056
Ni 8.438596008086417 3.0854472363030294 2.4640781380633494 1.6686459516745455 -1.6346549394410816 -1.3733498685048542
Ni 2.087627564964686 9.039941119807951 4.183357898438836 -0.49663711484746087 1.1469994592669408 0.8775627603625143
Ni 6.38752846326583 5.7429013665115995 13.181457587633968 1.178653595837112 1.0298859673806844 -0.8369560425847455
Ni 5.820213298792825 8.742886288105979 13.235964320424388 -1.3717812384661536 -1.0076847486932967 0.5583502755865416
Ni 3.8986742829505885 1.7416237583864345 6.0518232670606515 -2.0112917277727944 -0.3596862765203031 0.4217146545069576
Ni 0.9965593029217317 4.187970846843637 11.338967011669176 -0.4181158814121057 -3.2051107184964347 1.2984325503706735
Ni 8.979770197992652 0.39804115087834746 8.184980007264542 1.235201924545802 1.2391696509442982 -0.5436016565224574
Ni 0.11113461894568927 2.3756824325658132 6.706765779100177 1.5863652511967583 -0.40955307944375924 0.042451998516623665
Ni 9.116982306281164 5.565040042771758 6.4232454369801495 -1.5981622438316863 -1.3795871076638175 -0.19197321730962422
Ni 1.4167567969578865 8.135911530790244 8.582405911634336 -0.8509425866718248 0.24116484854292664 -0.5560776775022811
Ni 4.320272186338535 6.455364292266601 1.2647675691892724 0.7134237916563392 0.6820277938435609 0.2859346965594495
Ni 0.942839600187017 9.273352014502182 13.158351766935644 0.6835164625739455 -0.04347889711924125 -0.013042949226887214
Ni 5.617620745900349 3.9846407450258843 11.222888947711665 0.2416970668973128 0.498184918950555 1.2068028045778183
Ni 9.103286302820644 8.113589005722691 3.2554438611232115 -0.18646077213182724 0.2711626804565975 -0.5255823371269013
Ni 8.698726713212825 4.428299763735716 13.81785774624954 -0.10985398211036565 -0.734929784048915 -0.19376039111703403
Ni 4.898417183132058 -0.06874422786696632 10.098182853038683 0.2476676826584509 -0.5100294769939667 0.9185944814928437
P 1.7796495403187413 0.5665888188225423 7.306121375935932 -0.14748336242736537 0.051423862997930794 -1.3868450747778116
P 6.834240374362566 3.213351290433303 -0.039681065786124015 0.07958746991634036 1.3343642312702761 -0.6760062702398294
P -0.09372099545928159 6.7213860527328775 8.255036885497255 -0.6867917908911075 0.9723454499620545 -2.8727789227296845
P 5.45087867241373 8.445364653286742 2.198881685508395 0.6255583980019227 -0.8212995669944113 -1.572178675283731
P 1.0293008735666125 7.221248166761268 13.391518056796428 1.9550408756998654 1.017694310410499 2.361991998744403
P 8.262219118259475 3.896284250990198 7.789140299887211 1.674233987285284 0.7314245991091338 -1.1638885217127954
P 4.476091066881181 5.734200156405803 7.281867219569141 -0.172455973212303 0.2620272938142326 0.7970718047952983
P 1.7799856385631712 2.0304535191622195 4.813608392787577 -0.2678708970792032 -0.024735812183783207 0.46891779455532145
Ni 3.4437653091146996 1.9742877680930426 1.1607843740000638 0.5978768729262541 -0.4554089614356092 -0.6358168425051371
Ni 4.408843409808163 8.273851851941687 4.116416464210743 1.5574349413156534 2.1082863374219882 -3.9690194062762028
Ni 1.172207979885743 7.255894294124586 6.086312548576568 1.9558590007257868 0.10517508857745758 0.2907475445670606
Ni 1.2964709697013583 1.5153362792616496 10.812783737070752 0.4108188335300602 -1.1445137167306094 0.5101235793696699
Ni 4.287325222322058 3.3766576929768597 2.667456787405298 -0.6036806240922248 0.394490785793998 0.5140560816548566
Ni 9.173008016415162 6.353181089897562 1.4408158296216613 0.6291409731468584 -0.28238734552782335 0.5427817317243233
Ni 6.58651729609303 5.080040939997047 6.892613170570167 0.6400931012829879 -0.16222066863753995 0.1835381991683936
Ni 5.186826821102306 1.8943150580434136 12.525162280160611 0.1369348974875577 1.0756523749825218 0.53542940512431
Ni 5.5773076286934495 6.835472734592143 10.837625131759062 -2.1835029319641426 0.9356406383418532 2.5079854068898033
Ni 6.304437508392879 1.521189990352137 1.0873823846290396 1.3501217512148491 -0.9440823413513032 -1.0774056102282026
Ni 1.8202240672713081 6.265132685919269 11.101946795272262 0.09595819796487991 -0.058546075865008845 2.3323379233233963
Ni 1.977312652292912 5.407269925198949 -0.08797744990446817 0.9572235067189513 -0.7277882879081271 0.17859371067892468
Ni 2.2167733153868805 7.016620352277522 2.1980759833279975 -0.6508796503755306 0.5007732485030214 0.2136023655436257
Ni 6.051458227022952 4.8027972325917485 1.7312224513275634 -0.3971428787048644 -0.7133484583337133 0.32879035827239506
Ni 7.6254996663116925 0.6469237680911679 12.66855579532793 1.2962643390747612 0.7902229001942649 0.01719245261888652
Ni 8.990805423684765 0.967216058970531 1.3230610088669374 -1.065673666503255 0.16037255968520767 -1.183310120772517
Ni 6.908583438817995 4.746827538831822 4.591086147606641 0.8827633307268474 0.14270059632674134 0.1425188193332384
Ni 4.151224105452633 4.114113257630163 9.176965573243324 0.5929110442805465 0.7584803176753454 -0.892271784437915
Ni 0.6523433522826004 6.207118394505728 3.935501314477762 -0.046846013819261255 -1.859812099701842 0.6659344878261241
Ni 8.726762908435688 1.0224108595557992 3.6901729361997875 0.8434645331272249 -0.12282005535273043 -0.47532832606735553
Ni 6.710285474604345 0.7199196387501728 8.419732494117788 -1.0159405609441858 -1.5875700701381368 -0.6374608058664635
Ni 4.373553094143022 5.340610440053683 3.7046298287414468 -0.7002756843101552 1.3843639602271707 0.3171715430865441
Ni 7.3192768213866595 7.720531444924251 1.1868590625241835 -0.2013798553355048 0.7111175121206657 -0.0922108151073057
Ni 3.3145728783807784 4.353284502791428 11.466332375002127 0.033897938299025494 0.5685009908672983 0.7458364036590897
P 4.0560336137802055 6.194757447960583 12.819449902983443 0.24669734832538154 -0.28260640351716493 -0.9898785737498113
P 7.813938748688732 4.945265543980651 2.6576184449058466 2.6439512555958724 2.4865778877483047 0.23488107241674386
P 1.9690595731796885 4.132439948013939 9.27458250751929 0.2533716750217636 0.6134338468242467 0.5758414903927696
P 6.948691162653298 8.388918820347207 11.372307957516623 0.8952460365748904 0.5459670714308403 -0.7118747020016644
P 7.293770699059367 5.584076273893774 11.06472578191412 0.5025133711225797 -1.083850851632914 -0.3486076501086383
P 1.1925699318607885 9.50943302302716 2.418534958730627 0.34524618983557315 -0.9851623992210646 -2.0270407630769345
P 3.2558583822913416 3.795912244716142 4.946274772320175 -1.2350823682488021 -0.15710520178784557 -1.3321849642307702
P 4.988342135641751 1.338595283003241 2.6373956002597456 -2.439677366542024 -1.2267892750020744 1.4455209913524654
