# total energy = -340893.4137792774 ev
CRYSTAL
PRIMVEC
9.06685351099313 0.00000000000000 0.00000000000000
0.00000000000000 9.06685351099313 0.00000000000000
0.00000000000000 0.00000000000000 13.27025660494231
PRIMCOORD
 96 1
Ni 6.580187322236771 1.8970033556153867 11.39025918346313 -0.36105770294653305 1.1342940958851304 0.25438443255699417
Ni 4.364284595499027 0.46401889473486047 6.036254994168628 0.3155520052052501 -0.7349444393369342 -0.003803947127122481
Ni 2.5294979885655917 1.6761529381867954 4.75258347664199 0.857121461789027 0.34782809163013645 0.9702322602737934
Ni 3.286453319440186 4.420662290530268 4.976638120095678 0.6669130496893095 -0.6926508207750459 -0.684709454440782
Ni 5.002881220851294 4.578697546946244 2.7347207773103865 0.6058552631460404 0.411182387517066 -0.0442671973484915
Ni 7.166141796197694 6.075054780329321 2.760067166255358 0.3238738948073842 -0.772078110964438 -1.4849439732347782
Ni 5.175550378808027 4.602425502542378 11.565493354273565 0.09230980257901522 0.1647794305036517 -0.036659303094246545
Ni 5.733705879953608 7.795045955163921 12.467153853555946 -0.8785089263258676 0.23153452454201415 -0.10730833287037649
Ni 2.034538456279411 6.49604692180417 0.5296946480251142 -0.04150917498738012 0.6735912330404336 -1.9574700539666479
Ni 2.9398456440374363 1.903803495736556 0.43079069004677845 0.8801408055023358 -1.406199310934707 0.2510491975361741
Ni 0.68139308053351 0.11721718866731962 4.554020291789195 -0.2756371712881834 -0.7015450379408821 0.5543131294026905
Ni 8.570697137944984 2.3142599534503394 1.3685880406184017 0.5523583196691648 0.5259777727931071 0.12684228913824608
Ni 6.723398273188598 0.9304223719388777 4.720243823596408 -0.06476557441215944 -1.2256145379676828 -0.855053780626721
Ni 0.8417104639741505 7.564811344368117 2.366935652199616 -0.3295814867151227 0.2246473105038776 0.6618515760060021
Ni 7.312399209923805 3.8607478198066767 3.8796921034989054 -0.08066964723692557 -0.8901377688140476 -0.09362903561107101
Ni 7.6263934133054265 3.869189060410422 12.740203053239982 0.7500504417404372 -0.1130822592396762 -0.6339149974967341
Ni 8.038309634431887 9.221624684050306 6.567052171578721 0.7871735718449798 -1.965441759318215 -0.04250419191079777
Ni 7.112828697647727 0.6342245885970309 0.32157590627405097 -0.846292232384007 0.03765123469387064 -0.6185174319947412
Ni 1.7055023429497622 6.324338850317895 9.432021019399286 0.48876593962950016 0.681194242198672 -1.1914389205272384
Ni 0.14801547661877043 4.8641492955259436 1.1813312220737366 -0.12413517461972816 -0.5947506685924466 1.3122110922120045
Ni 6.474785150358646 1.7846741076671637 6.895198826580521 -2.027277047457457 1.2450726466922946 1.1954817231380441
Ni 3.595152480380791 4.403589405399385 0.5099162138113558 -0.6334298303301994 0.3503837681724546 0.17368161808928795
Ni 5.914489871788271 5.599679651592108 4.841586430603904 -0.14577152194258122 0.7802840438139981 1.1156052612263754
Ni 5.549576219179332 2.984590566034731 9.06703573864774 -0.49607352903450697 -0.738920650375863 0.31407002134308487
P 0.16774948325040395 5.67292169412385 12.511728318707537 0.23941315595914248 -0.5309333170261695 -1.177747796193391
P 4.027532589845224 6.2327092288985115 12.679252037305918 -0.1396353271378563 -0.09887511450135875 0.057549002059062174
P 2.5549849137397347 8.592647990256118 1.4227307562631522 -0.21321721429006502 -0.09825547863948886 0.4566785721766522
P 6.359908116578358 7.724596503508607 5.897355332053622 0.3281650659835703 0.23559146822020718 -0.4574247063140574
P 5.052776115633687 0.9894747887511125 12.833399426943283 -0.4973439111064983 0.3673165393720513 0.057344599357739945
P 3.929392967616508 6.225165606790761 8.278025453927302 -0.23275682698488945 -0.19519018158502513 0.11169797729763989
P 4.579640499709713 1.1119861131740998 3.8115229654975558 0.6844595432135051 -1.280604006829685 0.9409198844629213
P 0.1834142860335297 5.6420762585342255 3.3026612267476563 -0.12320957748166522 0.47646732476780523 1.1840968783398702
Ni 1.6050416062263537 1.3260817247489962 2.6666178273395498 -0.5264110036757838 -0.21438938022129528 -1.5823430174112425
Ni 1.6659617948585361 6.424255575831611 4.82689631457148 0.5523706609643391 0.4522318492592083 -0.551053227704496
Ni 6.175841923778546 5.548188990594613 9.195491292221977 -1.472005410796239 0.22958228591164975 -0.33168259221852553
Ni 8.660594990346842 2.249078343675557 10.165215754005166 0.5836432458253754 -0.2711164005996944 0.5169172052527355
Ni 2.210371946105861 5.125474146955735 6.979623926212863 0.15860544048245587 0.974521888788083 1.001548553888572
Ni 0.6894417263809262 8.72420803446701 8.842210412646986 -0.35106716739272437 0.33620104891416935 0.4374163815129305
Ni 1.6679474357739177 1.1654261476729963 11.453730784668775 -0.3608101057121012 0.19590829069797228 0.03063160884292789
Ni 4.10971454992293 6.820205067953566 1.768407265811977 1.1205296951111863 0.8492065778173246 -0.5945964024027695
Ni 5.581156069902042 7.760492176494886 8.097563335391708 -0.19080310826092303 0.4558954141537245 -0.21179513713155781
Ni 5.282294445003395 2.8291937639857685 4.984441054213382 -0.7913698693145146 1.0336595754905038 0.0752505331038833
Ni 0.44843206689179077 7.189035601272297 6.770059928014713 0.4110947128992662 0.425666440065854 0.37619892946334565
Ni 4.905757086214006 4.547779576528661 7.244392368600014 -0.33602107169287937 0.07444680625566534 -0.9640996650134943
Ni 8.127391470019205 7.084095838922411 9.274860714345568 0.7215250806072347 -0.13538400806067005 -0.2740880816335086
Ni 4.688914218030157 0.3328886193796283 10.762072212608347 -0.14374857797528146 -0.7200994039043018 -1.7122840000794703
Ni 8.262315316876702 7.310649307199291 4.4479109053384684 -0.5896323735292749 0.23567400063168445 1.1450256233700216
Ni 7.305843874846998 6.0722621894528945 7.127813486418734 0.017156714284944644 -0.5367280693310756 -0.6603127707639724
Ni 2.3483603894446294 5.512955197913461 2.5489908168942614 -0.8612015453956717 -2.0681493601917866 1.2778999776349604
Ni 2.1739594624703726 5.250406321261859 11.515092529066157 1.206014761458884 0.2832818323176347 0.2165146540944142
Ni 0.6904390802653643 3.520704546334229 3.72744240629802 1.5263716442519455 -0.6999658663792203 -1.0846190972575063
Ni 3.704788872841031 2.7076525928867348 2.8015770349256757 -0.22195459416306293 0.5388039780234979 -0.5903003461305769
Ni 1.3223371142556057 3.2146257060536483 8.401360048647625 -1.1031251264814936 0.48838207392752025 0.13707553683048004
Ni 3.3687803491738104 2.5702081607576592 7.180482838370565 1.522941535524474 0.6755671258198817 -0.11489437274775051
Ni 3.947680811115706 6.899385899524462 6.076967886416743 0.5384491657872404 0.053123619297856896 0.06157046451362945
Ni 0.935119002049232 7.50588586350481 11.65687182385114 0.02032354204870048 0.5973911915390873 -0.5306314695150345
P 0.2725976703799912 5.333866707682344 7.969518510280788 -0.5909094404694856 0.4611744031644767 0.8672120132558097
P 8.633294694473722 1.480599042008954 8.137493758183215 0.23600670138075483 0.1280440227558311 -0.34841713136438707
P 2.2627964930133295 3.2314447192866735 10.454971537938892 -1.416208101320961 -0.5074138937479906 0.6001582127612631
P 3.941814556904511 6.199198138381389 3.9254742735360155 0.3394460382140283 -0.16063506931797497 -0.1308552669523811
P 7.084068638361927 3.9684167050585253 10.340516112846116 -0.7226573944394652 -0.649294822386914 1.3501945134343134
P 6.406230671083764 7.948366447762553 10.2225826427527 -0.5145602749847848 -0.41543987724183934 0.5088719663507558
P 2.3055739078022324 8.395335124500269 5.947728956700545 -0.88460809724507 -0.10489612388445804 -0.6785272368894701
P 6.975021591378855 3.9324303635372972 1.7076167331847714 -0.3667606668685813 0.4830346935726778 -0.5789784933598545
Ni 5.445951150586205 3.061840157811215 0.37447374293395275 0.339129535414874 -1.0679148971289478 -0.17225234184192917
Ni 1.483047092452575 1.081276680386899 6.958298686792875 -0.8696242222417281 0.17517337214346607 -0.3353351013694483
Ni 6.694248339202519 0.8093671841871701 9.070539170838165 0.4455822051531746 -0.8704035236099139 0.9531133412053198
Ni 2.6181264814781664 1.292706637034297 9.204966154124142 0.6822725628645153 0.8560184585328355 0.6627488910092909
Ni 6.301027969982527 1.8151568691169921 2.4231220366221153 0.23179986238825886 1.0303163700498836 0.5683765494742921
Ni 3.9906758303884864 6.7939927944998315 10.539344049820963 0.6898310919380635 0.6405237610625033 -0.5020343746036321
Ni 8.002921705241322 7.3615778232801015 -0.18897498728194728 0.3609407177526945 0.031620712229074574 1.7506312323991013
Ni 7.764309321816236 3.5665284238974158 8.290419842654819 0.8997968891703664 0.5930539976163142 -1.2870672459565253
Ni 3.170533597507986 8.594434160394613 12.503036832947334 0.4353186184436374 -0.5769699475702579 0.7461058552703925
Ni 0.10439303108414368 4.6690034077553735 10.35730248540656 0.08212026364052308 0.19404449801635612 -0.024539379902260967
Ni 8.387066154112928 2.494917009336072 5.770238952740579 1.3383872363867402 -0.5165618787958459 -0.0559726587108778
Ni 4.063482663952473 2.5541235626577197 11.501689906230007 -0.532750058519934 0.025136904276943806 -0.09878898254545568
Ni 1.3759947532383794 3.322149521649578 12.628135837357762 -1.2463273450350019 0.1337313029485955 0.32790872699839013
Ni 3.018935807073383 8.333345047155689 8.093171351558784 0.8591775729871074 -0.9753574973155009 -0.5499275987404851
Ni 5.767652179438486 7.888470813575294 3.542773267740797 -0.7682294266423092 0.4205774555787208 1.524041967677504
Ni 3.123095820022708 8.248234493399133 3.7188968968790834 -0.11931589885421386 0.8831644228200081 0.27400889165614095
Ni 3.7579750354420707 4.366125166758489 9.439266342027054 -0.8186040224401192 0.6975122626324052 0.029936639658432313
Ni 7.13983885420901 6.0012415260274015 11.294687294144167 0.768038907898058 0.3941298029101535 0.8489535812662541
Ni 0.7930341543014708 9.252179980328094 0.4011810665885081 -0.8706536919475069 -0.12587529723928645 -0.3714791553901731
Ni 4.592832771544781 0.2638826108007006 1.7681824078453037 -0.30893372855778406 -0.07652914270599079 -1.1199159727865875
Ni 6.039050305101103 5.648413989127155 0.5124068784664028 -0.07643452610965547 0.133230452052777 -0.2665066697418249
Ni 8.047068214907954 9.012116900343825 11.337483749325408 0.5081474294799054 -0.49311007553080877 -1.014225378025292
Ni -0.11100186059657081 4.752463794175859 5.528202925435822 0.07800032793487857 1.8232522982999373 1.3771841546492798
Ni 7.916251652683645 8.973927313423339 2.3677852163720874 0.6393654790883442 -0.4800990079831215 0.9856768769636378
P 8.500401822799084 1.6701597480266714 3.5704552781460532 -0.2236072992751375 0.11061117199136433 0.29994026680992214
P 1.941177065842503 3.390431995319614 1.6723040588782137 -0.8153497771688797 0.17429765440673206 -0.24788751197874082
P 4.616723930503823 1.0604773184696155 8.249388703849034 0.7356345234254235 -0.22416471444050426 -0.18188420850473838
P 8.743366295901717 1.7404006620516037 12.387612161215953 -0.11280637987047024 0.1463271373357351 0.5547157641577478
P 6.283973218558634 7.705293172417981 1.475758248928031 0.8430930087204188 -0.2742875992388244 -1.2255512888299152
P 1.6801695542850328 3.2795262433700887 6.030283564456892 -1.2500575015013955 -0.6832542100514942 -0.8666702818197267
P 6.749728415737766 4.040443789221952 6.296670440192881 0.7550563795954609 -0.4714518738310848 -1.0172366540477902
P 2.4200610668822398 8.427540588114127 10.29763986935412 -0.25090367309724526 0.03639962167495667 0.42230600823405334
