# total energy = -340864.59801983833 ev
CRYSTAL
PRIMVEC
9.30740202136778 0.00000000000000 0.00000000000000
0.00000000000000 9.30740202136778 0.00000000000000
0.00000000000000 0.00000000000000 13.62232366488935
PRIMCOORD
 96 1
Ni 5.066344726279077 4.5865016106181 7.53078844003494 -0.37564305695987565 -0.6199053134812034 -0.7458613433597541
Ni 5.46327750396492 1.9442604558798193 2.513877187830126 -0.23397270166986156 0.2569941022656993 -0.9501288046556992
Ni 5.723354241059571 7.186449930179124 3.304366948457361 -1.0359154614042159 0.5177900947759921 -1.2809310511518004
Ni 3.2990552140745133 2.1636080013513013 6.116136848145604 0.20834291691689924 0.3057417039830476 0.7231675013066642
Ni 4.776456380233557 8.66843033817514 13.45340671429806 -0.4145703301526925 0.4757759551277354 -0.2866952288745579
Ni -0.029521218005110778 4.032673955603246 1.944341430278156 1.0583897312473323 0.9095930493251818 -1.8854609106181979
Ni 8.34666413991085 0.7392273820388159 13.206611640011056 0.9606083640307843 -0.6535458843537841 -0.0011639384011141243
Ni 2.775271853063222 7.331598866048252 0.9376965631023702 2.166235403132947 2.735339831912199 -0.7044881797296061
Ni 0.6507744861085649 6.846739060651242 8.150481787545148 0.2563112172660618 1.550484221029433 -0.17916732379420755
Ni 3.9344715559652106 1.1995752132450652 8.483370331328109 0.6184138165373414 0.951084226590433 -0.305458368414674
Ni 6.332179335128652 5.297577824242055 1.4461999620734982 0.45945227826704743 0.02382332767184284 0.23118922538745343
Ni 6.363675583861011 4.594915502123435 12.772972329892982 2.3813701461606986 -1.1737006227072109 -0.5363334049958183
Ni 4.633913516954576 7.108770352188502 7.055641839477494 -3.406124705852089 -2.278030568130083 1.1214154401502494
Ni 8.43605242975292 5.572081034603594 9.279008946801307 -0.6967427314562323 1.4169974299914756 1.6500075106377516
Ni 4.940936790280318 1.0451467974745885 4.744655779452277 0.7798035046331538 -0.3470984125529635 -0.14140861698819518
Ni 6.412362604286237 7.746308781759748 6.207719823404664 1.738076535662542 3.383888777272024 0.6579211306033443
Ni 3.1786918900181123 6.708012232236405 3.071752632021605 0.009983336464957 -0.6536533564659259 2.720398123000702
Ni 4.312780222033604 3.7759851128757886 11.886648903464112 -0.7634949972811174 -1.3178189253170853 1.2664688529798833
Ni 6.696629279458723 2.1929077031862496 7.711093295145163 -1.729040907822835 -1.737964692675026 0.0904156708800959
Ni 4.803345464922619 4.951007399360819 9.935769023205316 0.289884682346133 0.9857776642075603 -0.08145074837732423
Ni 6.4004118999799875 7.042697104626146 12.90806461778477 3.84968422414828 0.7385622385951797 0.6559755768411992
Ni 0.8102316912378162 6.855227411373438 10.57872901450428 -0.8587937072851275 3.2084670365631776 1.9805595887962602
Ni 8.80410433869866 3.0423663713470557 7.278394032639962 1.683624684471565 1.0631974370486206 0.7667356157056021
Ni 1.8398127894275356 3.8297632822539116 3.6210047681603275 -1.0846334954352093 1.194661027008962 -2.031946427908668
P 1.919149084993323 0.1639070740769288 1.752784856759969 0.9077467401450625 -1.0850366444108992 -1.1841922662671542
P 8.536935361197965 7.729592687574371 5.857667499394949 0.4028278449047836 -0.47846147237969855 -0.31612818942369425
P 5.206653813052216 3.252052833430775 0.49398478242337207 -0.2323927587772514 -0.1000634783825051 0.6460814576559388
P 1.7444584548344468 5.6456188186563026 1.6419802346681462 -1.4136395692628363 -1.576345919287543 0.1583763551907853
P 2.3444322094991326 0.3527291328558821 5.719741107561372 0.04024264957013069 0.021350697761634195 -0.5199282241649174
P 3.786446632844811 3.101189152667536 3.3903924739179314 1.5724216445324726 0.2843239004289038 0.5672015553295845
P 4.155894652106703 5.92041055848318 5.1132074958912 1.07213330608567 0.05394894341262967 -0.10584074718591449
P 3.1953335249866277 1.5567746913332616 11.899018440865206 -0.15153156435481 -0.24109902830199764 0.12417322694651518
Ni 1.2584538389781916 8.310663108558376 3.6349947242683673 3.0195012386213094 -0.2125764953822726 -0.18680324307291055
Ni 4.668630126816189 5.971657114488017 12.92093768563989 -4.1891102077576505 -1.550992013903787 0.7211514993179
Ni 4.8382016858158465 0.42186079275081895 10.906141082887086 -1.2483639158490565 -1.0037537890700068 1.1372138406350865
Ni 1.4447042625547954 1.4471707241133285 7.835560252790837 1.360986718953811 0.7631365855004341 -0.16810412400151048
Ni 7.06769678668735 3.6352106559972652 3.1734564763325475 -1.3581482210637512 0.515398454615364 0.33121130900906187
Ni 4.08960733429587 9.001737715052947 2.7125725387648965 -0.2606206432746931 0.16091274845939385 -0.8318894266951156
Ni 1.9335662508581055 9.34100182927966 12.998393885979928 0.2763033441172725 -0.9073813863858438 0.7747294325443561
Ni 8.630018689676783 1.4718818767091948 9.193325002998089 -0.05415771698932609 0.68795650062317 1.2100123126540516
Ni 7.120274301193583 8.4924459791233 1.3890822968191432 0.08467773995505416 -0.13811014874258148 -1.3333352757851296
Ni 9.219949757467292 9.239793138760847 7.510123215135278 -1.913457138720808 -1.4535091517642644 -0.32825788280769275
Ni 3.788512876112714 4.914736453347224 1.6223230014167451 1.4765498356338118 -1.2337075993884623 0.340735189339097
Ni 6.319409579436926 6.7435292786792775 8.366749513659203 1.6688079311737067 -2.268518771984906 1.217375437887342
Ni 7.609610967004384 2.966436584952676 11.5124708624511 0.5897488445024811 -0.47726976606444255 -1.7337863929276207
Ni 5.240765441776831 2.5776943211215824 10.116400568129519 0.4391403061825727 0.03352898499538096 -0.7270989751505864
Ni 1.3718552262580548 5.132948495761569 9.496067802094514 3.8996983512828773 -1.8584828393674573 -1.2244881376727235
Ni 0.5863179342923112 4.432631638974083 11.869661963877402 -1.34357340857337 -1.1898240106316347 -0.6205360050866667
Ni 2.338140405674347 3.00993938240393 10.411691861098541 0.46348402513425985 0.08705575326892749 -0.2447219697665656
Ni 0.888399907839091 2.4135675923549127 5.302421396298886 0.4269987857240323 0.36816731740812075 0.2452143360219519
Ni 2.3863062115815445 4.085456232955848 13.539922739849706 -0.6288398969666719 -0.36013210580847005 1.0365232701915439
Ni 8.60989608632 5.6596171514262394 13.590434011088036 -0.8699978035310629 -0.2063351424582511 0.7028593858769314
Ni 2.6136115858550846 -0.08671892691759195 10.150674145650806 -0.510109695412599 0.47322387812984307 1.2814835812211607
Ni 1.0882307618309972 2.171919511433451 0.9917688463870954 -0.3517212560369556 -0.6289334851217426 -0.5590061640029858
Ni 5.267356689598446 3.57053351875106 5.104366394629123 -0.283120367039106 0.5806293986997162 -0.33823273463221754
Ni 5.503196951604721 7.392199361171299 10.625793754742139 -0.25852930796330315 -1.4130718696848243 0.4034256263897827
P 9.35431141429363 3.606944075796269 9.594870529168494 -1.6108007585313033 -2.6116484296981084 0.6109956696963993
P 6.332644705234035 -0.04356422630516474 3.1507482766702517 -0.1849636187610105 0.9374784628815402 1.0867294587322898
P 8.862759586781204 2.483307956347691 3.2779264805498896 1.0762146752438948 -2.191719149226348 1.9574345727430225
P 1.4806773717009438 5.283188580583595 6.9329451497127 -2.4402545792017327 1.428190727604134 1.3119814926997018
P 2.872832041955829 3.0617257677310112 8.210583405915223 0.8270426401257757 0.9355329091193952 -0.24280392680824633
P 6.885048327726415 5.544512509560673 10.809545140852833 -0.8543487841398963 0.1048974094360387 -0.02907300610655638
P 9.203503577943037 8.080937809736842 12.465788038510777 -0.10997225285578478 -0.32732225836730083 0.35812150313634455
P 6.789368234059557 0.9580295137467881 10.32331063216452 0.31731012554693744 1.6926986217483753 -1.1882808345142308
Ni 8.807166473992085 4.271473971479761 4.677020749816254 -0.6546915679224531 -0.23923137896563962 0.7674784074088976
Ni 5.563890520748844 8.832845596407148 8.826611498475431 0.10836197094587144 1.268821669482776 -1.236068386311155
Ni 6.958288274911678 3.9695232323026994 8.9803130061413 -0.4907330906582 0.4308842368213676 1.0566928031608833
Ni 7.239744114647648 8.791278738594292 11.686550927031714 -0.6750094535441988 -0.621008059627079 1.8806375210876256
Ni 2.379791030106175 1.4960625073849239 3.3948330354635012 -0.05157658652571118 -0.8589772840508432 0.7323579095566807
Ni 7.625098484111549 1.9061745664552299 5.499182669075682 -0.5658303860136707 0.06077033720983728 -1.1585835645601144
Ni 5.937703711599234 1.466353279857238 12.75486757131314 -0.012458023257694673 1.044093369229318 0.9097365168815815
Ni 1.445541928744486 6.605658731258348 12.96121919122168 -1.6794399569662561 -0.8266384627088215 -0.3579883199925899
Ni 3.264636441080346 7.321956397464705 11.81737949401798 -0.11315193613534706 0.9206297667553177 -1.7848533868067649
Ni 6.774634616523114 6.153076996370739 4.880810041924552 1.4032723670958993 -4.014482423705009 -0.5215971272269081
Ni 7.820014099050394 2.0207673012048746 1.3467959768233615 -2.4323502367529914 0.4371934668688471 1.6641048692710823
Ni 0.4499375019488192 7.491109123369517 1.498823082850059 -0.6599291621723087 -0.15275412390800144 -0.6731436039800536
Ni 0.7385293268807407 1.4907759029877667 11.583702272261528 -0.20168144573632363 0.3229452123455277 -0.5922636405045348
Ni 2.6712057900973525 4.418074862077686 5.628362895148681 1.818578804083668 -0.4937248262966723 -0.5979838308177637
Ni 8.377974240601054 7.770573179054446 3.4958015950079373 -1.8928525750965788 -1.0527261052036514 0.7562899948922459
Ni 1.4296448859445836 7.8343381908941 6.246379979539298 0.8842291166390965 -0.7390021543460756 -1.1250525226822043
Ni 2.9864102698757375 8.477125995254072 7.966539599691247 -0.7402483680483509 -0.4798755791184058 -0.16628789672837813
Ni 4.106267584068601 8.075604668329147 5.1233153345801306 -1.2815866824579283 1.3336440652747998 -1.1046184231975686
Ni 8.188717526143671 5.653837254717376 6.975815043820632 0.7610113116273152 0.5604794061144025 -1.0066308535074857
Ni 9.179406713886278 0.4190937021042084 2.3215983599083834 -0.553981971315517 0.4061707932350876 0.5794374352741439
Ni 7.862614078497204 8.215839295885425 9.617482862589082 0.34014846359769163 -0.546914265835458 -1.1917245700884573
Ni 0.17069030873299942 0.30423663713470556 5.118070613492458 -0.9926895608360453 -0.03982201709294432 -0.22674070269779661
Ni 3.433249337662913 1.6992151731890581 0.6500419935626912 0.8609284942399431 0.16602333021308183 -0.5911740069847818
Ni 0.8275974420903087 6.147650780941967 4.64522573347624 0.34567042185718533 0.03873058380097846 0.1694801784134307
P 7.0623822600838695 3.969011325186777 6.348766056424732 -0.9707487948988959 0.09619345390413755 -0.30456799538992063
P 8.611785488947856 2.9942191802440736 13.384668757512278 1.7323424613922425 1.784695263962346 -1.5558570553055722
P 5.694110383637268 0.524328774774801 6.811924723067498 -0.5588966350083149 -0.002825642374253198 -0.7192056884454389
P 4.972386502002139 7.0336223875711665 1.2529624717346657 0.05190800172320093 0.24332997451504543 0.28471599366100003
P 3.7851994409623835 6.8014120123868835 9.175098317450637 0.6060411539046013 0.573764810369399 0.07436067429976224
P 2.5692897370183556 5.126842839978938 11.69784359800895 0.9272619273598547 0.9824393438629467 -1.476230247510864
P 0.5725625247173842 8.91076716685257 9.629811447420902 0.7393294557785074 0.3257793393602131 -0.5970209526838621
P 8.22309906952941 5.566152219461007 2.8100806062057004 -1.5666590310170825 2.520797213942491 1.0380173382385671
