# total energy = -340887.5610439492 ev
CRYSTAL
PRIMVEC
9.15580250455946 0.00000000000000 0.00000000000000

0.00000000000000 9.15580250455946 0.00000000000000

0.00000000000000 0.00000000000000 13.40044244812617

PRIMCOORD
 96 1
Ni 6.652532750295253 2.14376703260204 11.329041923074897 0.6795844745093909 -0.0187417993838774 -0.405969732967875
Ni 4.709726423751401 0.34771265306772975 5.659060441008354 0.8647177860790463 -0.5258687580190685 1.1301875299159245
Ni 2.5763054478191747 1.4535110924805426 4.748259533574923 0.21073378574657903 0.7614262876775467 0.011086339721148648
Ni 3.6837088993861635 4.273159455494692 4.741598687356083 -0.5539416049958846 0.668977645527822 -0.3029415155300912
Ni 4.099391482453627 2.752051074170576 2.3291170956318794 -1.2934782916891916 -0.5619868438978644 0.03490683917951407
Ni 4.858361719306943 4.856228417356442 2.466311300555033 1.5775329976171089 1.0638947202259614 0.5153521747584608
Ni 5.286999762717581 4.561329179057287 11.727758804364338 -0.7848801478251128 0.2098585822304773 -0.13545291362539252
Ni 5.800365601192345 8.2102002504535 12.25620516491065 0.03817728240066973 0.12158412606310028 1.8900565004086802
Ni 2.0129947074560612 6.754821374290973 13.375664977028798 -0.6298428843098894 -0.21261634748127253 1.467688014367808
Ni 3.017844016758812 1.6574016552947834 0.4388522565264302 -0.31997738796645536 0.5532479213629697 -1.1796977208309103
Ni 8.567770955925115 0.15206231237988946 6.40839968935638 0.6069698363664578 0.10125364203586433 0.40477005623281903
Ni 8.667102255757694 2.3233947191552122 1.2615551180460385 0.9920336724196012 0.8034450553114937 0.20950017044979402
Ni 7.132653870391171 0.7601275302719577 4.537255827905126 -0.8669240497017457 -0.2840757889738398 0.34491785996187696
Ni 0.7089383548425204 7.444015241338402 2.2408753036209634 0.899274183897677 -0.4810181773632813 -0.38300206842810813
Ni 7.860503535013781 3.9337721735153357 3.701416221155562 0.23086732327166049 0.8344361043763694 -0.05229803807276799
Ni 8.047391772840548 3.857119796135084 12.239320949773655 0.46244144280235844 0.3295339213066389 1.8943168183469312
Ni 8.414557759188238 7.583274995274573 9.153078511464537 -1.8145689115933263 -0.4496324639631482 1.0680920461367607
Ni 6.75357618516965 1.1723089345159377 0.18144053542098046 -0.06767734874231571 -1.2101856050071222 0.4054935646624049
Ni 2.028587038879684 6.277703357370011 9.356979145661377 0.6787722630207407 0.5257990811233977 -1.192351662149495
Ni 9.118226949771042 5.017919887081149 1.3350569838332964 0.39837906510481064 -0.15940711044814482 0.05172828161222704
Ni 6.454959691111252 2.2586357290440655 7.079346042295012 0.8585047152897989 -0.4512496878515971 -0.49660343339604796
Ni 3.5047221189983775 4.508024097701837 0.42001419316524197 -0.29885397572427885 -0.2783751390446367 -0.2644042786868414
Ni 6.208760165579126 5.922320888663076 4.571949909797981 -1.285605059588702 -0.8546339194804831 0.06468509888321118
Ni 5.507370769784624 2.956765659197457 9.257307249980906 0.33896884146729367 0.4890045380028676 0.23774528133841633
P 0.23767822027319263 5.71357775059662 12.474230455412377 -0.8957155200121413 -1.2254085926044638 1.0534300732492117
P 4.011962725692516 6.326000214833082 12.718212445612265 1.8499691454694913 0.20215452871800021 -0.02320394892028907
P 2.5632218062429226 8.528602433417623 1.2380979523928846 0.653313456628004 0.23951034365863913 0.5737750947820441
P 6.74887010275524 8.233254560802697 6.012148465643206 -1.1842334039177347 0.5570683235503245 -1.0275966571258754
P 4.919604881310827 1.478085266021942 12.375106992293432 -1.414260747786603 -0.3948288858597071 1.746963810849843
P 4.082132794999999 6.238205225977464 8.301734468994033 0.2545510400418455 -0.10909344979525729 0.8035666684910225
P 4.711108949908164 1.2822426534844855 3.7174031676610153 0.3708703181615806 -1.046301175513914 0.10728879248635072
P 0.2721525629093443 5.744634232210788 3.6244845918032484 0.236045010817858 0.04902888040319298 -0.033106295635665556
Ni 0.7205378408557838 8.754457766099904 4.213514896583331 2.5496827866285896 1.9738441244492975 1.21276853524295
Ni 2.1538292593986115 6.60093064817926 4.834142790897215 -1.981357659217523 -0.9325458014666133 -0.07577118149404369
Ni 6.221358549630156 5.949101610573877 9.16976221452979 -0.26095025869996996 -1.6515465729900978 0.2020516845915488
Ni 8.731961959694829 2.6791983547708313 9.843790410543695 0.5844965949646064 -0.15625262397956316 1.7516532459057121
Ni 2.7207656974973418 5.284005815344989 6.914226640165722 -1.3205440375577322 -0.41917131925981355 -0.03941809678630631
Ni 0.6513849811907929 0.4587267567150724 8.887535522280801 1.2264079804032557 -1.2725497690666407 3.4182896233493967
Ni 1.631756252876952 1.5942815538065542 11.471542831047453 -1.3556195411046268 -1.137838361592963 -0.5640992622551768
Ni 4.247999310602082 7.057695316448012 1.5057943862923187 -0.3356438908591187 0.1834602947426066 -0.2913193579101305
Ni 5.730186376082499 7.808580979815093 7.9422813305566535 0.5394264420988452 1.928903555182865 0.4254571522685254
Ni 5.673576050074127 3.147746540680337 4.370219200761094 -0.39445093369499806 0.1753510353719109 1.1654018730335283
Ni 0.9306323753509682 7.76782850349886 7.669850431255484 1.4450077991614727 -0.68462923602215 -2.3424559855940044
Ni 5.104918321131215 4.606980009637546 6.988169815626861 0.5375878462282098 0.07962783623597254 0.217537953152606
Ni 0.8105622675867112 7.247321139181217 11.243815136782006 -0.07002887969362778 1.8389265145020843 -0.5975631983405774
Ni 4.992073057011339 0.5719739605586696 10.442334509558826 -0.5355978123813744 -1.058077856433868 -0.00887493389212665
Ni 8.29783043486659 7.451953321986834 4.4884242715840745 -2.2266190464273268 -1.443253535474527 1.2197431667885703
Ni 7.2774986637685695 6.308338672075497 6.639088370105912 0.649864578847455 -1.2485883731550367 1.4817781739122868
Ni 2.381488285146337 5.524565366621714 2.484227374618301 -0.40661276586851264 -0.45061616803265614 0.15262993962531135
Ni 2.573650265134001 5.217168458097518 11.50435997345596 -0.578091719879527 -0.27263926500212404 -0.7620904036241068
Ni 1.1025874995242253 3.621348729494035 3.6799888968862113 0.6896554855921477 -0.5466939222945358 0.23473323398496992
Ni 1.6458012537012838 0.8830020602998997 2.521427399617819 0.06409734470054122 1.483590287420361 -0.9682013458866938
Ni 1.2428543917202903 3.3303590188037386 7.9444787231236935 -0.5814395533058373 0.7312163397530697 -0.04409467632636922
Ni 4.01286915012642 2.3568408651860366 6.848804769963518 -0.43263361541230655 1.365217726316023 -0.30385091471823805
Ni 4.303144708232428 7.060936470484397 6.233376455811393 0.039699632582467115 -0.16807352787389118 -1.573514363376019
Ni 0.9855946569340609 0.18315633278374432 0.057657749798661874 -0.9451647757822045 0.007619978439103007 -0.5416455612373511
P 0.004225402790371019 5.823932636473851 8.02374233533778 0.9507908637197303 0.8144138956181716 0.07569327706825674
P 8.69582400776938 1.7349604571089392 7.906046327126161 -1.6358926685029247 2.539945504736168 -2.7468136368797533
P 1.7245411540202238 3.443543047611034 10.097796173170233 0.13327596057873176 0.010308581014859666 1.1682655677345686
P 3.9817302662909877 6.371358059737736 3.9167085046520325 2.396308512638086 -0.4944663324483871 -1.2758469517606736
P 7.006331265193448 4.2109366226380045 10.484063909987153 -0.2525908309916811 0.04612276249999153 -2.390657999220528
P 6.304520702490264 7.865530070510885 10.243833967595485 1.602194504919531 0.36883786111258415 -0.7594421673679824
P 2.370098467007179 8.31286426234609 5.9996865030473785 0.0809709805274283 2.3093044385427004 0.3397430006291568
P 7.114040124187867 4.178781444740316 1.7053670727123256 -0.9517205746228512 0.27582974691496365 -0.7283418464187521
Ni 5.62114076994313 3.298396112755667 0.35742604379428367 -0.13163739653404424 -0.16146604985970256 0.013090514635371005
Ni 1.9332018898654144 1.2149383503165174 7.087990035305606 -0.5398316479570637 -1.087787467683159 -1.3670601788414005
Ni 7.178451193809233 0.8406784482982333 9.16283401888196 -1.230621504263971 -0.7894942495583565 -0.6310104222554294
Ni 3.1073511406562484 1.6294764580886478 9.243544247869345 -1.4685256797777546 0.18747198700516102 0.6716369375275401
Ni 6.5273820877999515 2.10683252587104 2.5299496204569896 0.4413630248655044 -0.6535080891373132 -1.0749684615416195
Ni 4.102266404395505 7.040729614669989 10.65952936878626 0.47622486973969597 0.2712837794154941 -1.2807161069275168
Ni 8.496282451077407 7.425145132668944 0.21625638948525963 -0.7343546282717353 -0.1779301089529968 -0.4769144396075528
Ni 7.926205572768282 4.114205570676423 8.143287815626655 -1.3536539327378236 -0.19570903020297262 -0.9083686899997775
Ni 3.294971842672029 8.621085193082926 12.354725260653897 -0.1993959921362566 0.8835395467712397 0.09811638195846328
Ni 0.0247527116874714 5.188748847563798 10.15746819948868 -0.37677074280641565 -1.1116863857879433 0.38070735885666046
Ni 8.66990393128067 2.647436876374738 5.580198768517991 0.6531260232075461 -0.4665693489278029 1.463905407396924
Ni 3.5074230806953643 2.9234751618067985 11.459066219167845 0.9030899580993414 0.24007495791285752 0.23201506372285846
Ni 1.2374982473381297 3.703833352979306 12.780430700567774 0.15413454919529584 -0.6422721112121778 0.9577631812725055
Ni 3.411003326014114 8.541924125855305 8.105673032780109 -0.9973751392371727 -0.37671777808129314 0.5580558842745744
Ni 5.8547052882147765 8.027780044179716 3.2947804864026495 -1.202711408117264 1.4690234453497797 1.1193076497786272
Ni 3.4544292966202454 8.547390139865817 3.801143051650208 -0.6699176408435882 -0.46961867727708795 -0.6242124254969895
Ni 3.496445273662526 4.149949823100277 9.103469627522895 0.07193046759171483 0.8295836613800746 -0.2825938051116746
Ni 7.1417455821372995 6.172924355131645 11.493733749233849 1.0996191702107645 0.6075545052253343 0.3041764163784568
Ni 8.242575167607892 9.144421700330634 2.158543582035149 0.1686327428114709 0.6407549032367029 0.4242975847427854
Ni 4.658426463113375 0.3422475546374536 1.5915970725538202 0.18231049740887956 0.15264639468554356 -0.03317057321469771
Ni 6.1770169987877575 5.814547939052117 0.4094346635351797 -0.022428504206845248 0.3579368979293642 -0.2574147347428857
Ni 8.274492294644151 0.030250771006253188 11.120410485797267 0.23196415588026503 -0.3193973470932693 0.748030325986615
Ni 0.2701364552290849 5.113085296838714 5.972429679413718 0.03902060423757151 -0.5674553232116034 -0.5631631235941527
Ni 7.322746639044872 6.600134093373708 2.5514978013175273 1.5218989531925724 -2.096782450547447 -1.9984246420021388
P 8.909657771949478 1.5990975058493173 3.645563080002582 0.31081886139563886 0.32649410603905066 -0.5974287296452421
P 1.9533354992609202 3.329837138069067 1.6030683773340062 -0.0020031464729578408 -0.09075274250454049 -0.4331640339944798
P 4.905056311356548 1.0248913606746295 8.309319135671265 1.6434887356826275 -0.271895444857564 -1.5808695181895096
P 8.615152233151917 1.6653855149550294 12.521265643309873 0.9176747978920519 0.5878230882346779 -0.4181143387502089
P 6.568088785104372 8.306088968597717 1.1675872872375102 -0.8176092626270176 -1.2144310105470375 -0.4459264758664707
P 2.0818921202351337 3.382968259179626 5.864636587037562 -0.5267712152286799 -0.6780574963419033 0.2514801144260056
P 6.945326154050995 4.069369606506441 5.887350301538867 0.47688847146562385 1.093802049308355 0.014242368851627087
P 2.2110804915723707 8.703780400022538 10.265301577395233 0.9651666728254281 0.2811632433127352 0.1660279581987721
