# total energy = -381161.24987688026 ev
CRYSTAL
PRIMVEC
9.35627081406152 0.00000000000000 0.00000000000000

0.00000000000000 9.35627081406152 0.00000000000000

0.00000000000000 0.00000000000000 13.69384808273565

PRIMCOORD
 96 1
Ni 0.7168840000419983 9.052014002020766 2.9039992578119933 1.0970817485008912 -0.08224779035732287 0.26836069223142817
Ni 6.428702861144012 3.6726168846863256 8.039740377105517 0.015201390330786723 -1.5977899480939322 -1.9987758546939705
Ni 6.3663152490198724 2.142557890460639 0.661760596384143 0.06031550906060581 -0.032564564199582625 0.18148080241873263
Ni 8.574189264291341 2.9684546057308894 11.503489748963878 3.1475452613771404 0.10414561887167868 1.136428882839946
Ni 3.7792783691217173 6.238733143602242 7.249564031596445 -0.6857479230076254 0.39164971680077715 -0.38522298733882687
Ni 5.219021283588209 7.325931783198072 11.354212323361267 1.7568383896510775 0.25540181807791495 1.4000008954334793
Ni 2.1323501992747604 1.8448413610979941 5.614121619494478 1.2794434108626804 -1.1848967485333464 -1.0374411540201227
Ni 8.678324555674315 0.2460100357149476 0.9605643243863834 1.0348805923817983 0.39030991494343104 -0.2384073404024475
Ni 2.776576208993959 4.175956172245162 10.305441758227984 -1.8171760101988705 0.24296950585183313 1.3325878560961437
Ni 6.915341205745203 0.22031490986363927 2.35516416900618 0.5534417825413307 -0.11711246344499186 0.5486929550024356
Ni 2.890151977376522 6.822124682111009 9.786349317919685 0.18990245082352458 -0.6464560673865383 1.2898134412430946
Ni 3.0510891873566237 7.944708736981808 12.158370679601937 -2.150706197149096 -1.3179253689879626 0.16839697265158096
Ni 4.489512867673519 9.152940092600113 11.089154792031094 -0.11039648487739696 4.477043422804367 -1.1286734072642433
Ni 1.0989968967776744 6.953056332390735 8.340210456895296 0.21163418607366133 0.4105750929503703 -1.3578304327130164
Ni 8.922831974336605 7.328392482356537 13.562523276468099 -0.03879948936570092 1.1479823920055003 -1.2767465807568077
Ni 9.220473653534732 0.45422167397633934 12.322518026012723 1.5162795501232662 -0.14266922886817368 0.3489161824879926
Ni 6.6112343435869985 3.2165641885605125 2.884677623469228 0.35167908994511043 -0.01999392662342363 -0.12393128613903817
Ni 6.085823613766488 7.968174263557594 4.306755899109929 2.1560695183435383 2.1383067950434786 -1.3037549910248514
Ni 2.222254603129118 1.931293301114048 3.035063767133735 1.9951112613581898 -0.28934012269657267 -0.6573768280641
Ni 7.594615804999048 8.330767173014538 11.59946917929577 -0.6679312065411788 -0.4069356964255701 0.4674144705369176
Ni 8.124255569114718 5.821883221141717 11.452753500573719 1.4420862546393034 1.22993219150643 0.7123817235450699
Ni 8.955794115535365 2.5635807095929346 0.3522149341467908 -0.07208987598771456 -0.16605161234785595 -0.40929596912763055
Ni 3.217574665781479 8.055552474359535 2.1456201978164025 0.18186955321671905 -0.06552996338200971 -0.41292533835010176
Ni 6.181566330453098 5.530706724903663 10.86583558368919 -1.7857879828058925 -0.8636312378830868 -1.0255248621985111
P 2.249528131824659 4.944536374037237 8.261840463392863 -0.36400675827252793 0.14081057839288008 0.34201791270626264
Ni 8.511436757615186 3.9911230472433075 5.751416469385124 -0.8297225009507839 0.13210790841255957 -1.8072068148013005
P 2.9593415982010582 5.340465675515523 2.5462884503356107 0.343842367509511 -0.6018803376586925 0.13811220562511053
Ni 4.061285720206553 3.662680525346818 6.8184542171685525 0.31002053386405964 -1.3093034316469063 -1.317136811648396
P 3.958871982607448 1.1165492603566913 6.859549764369041 -1.319981737296359 -0.21987868547064066 0.8063432027948952
P 8.325144054405268 8.007667081610382 4.202231386871471 0.9459990987580418 -0.7940186197912712 -0.17446194789873826
P 8.961810197508344 8.634771116196532 8.009162213646592 0.38768996082208074 -0.1341938444073108 -2.5013457900860985
Ni 1.5760731328619373 0.4227163041044715 7.798974531041975 1.643561240791776 -0.9182244997479349 0.20971177223996787
Ni 6.2044049869010625 7.266762728148122 1.942951214237425 -0.5254422120046112 0.3745973893041807 -0.17572307399934897
Ni 1.174155818222367 6.326466892685634 1.7050072193761399 0.8575678052978263 -0.7266994257193226 -0.2267216765344031
Ni 3.9690983863344553 5.658522737085407 11.745664649374433 -0.43558035674545625 -0.661505505520493 0.3151385718169153
Ni 5.183439386631385 7.135082576223238 8.95580347180593 1.2340960930761327 -0.36234094053433086 0.6043051450501011
Ni 2.734379428748028 8.298010869768195 6.133364695758866 1.324474225850074 -0.6717793766426753 0.2643459146450802
Ni 0.10409973755482892 2.0081363512603523 2.91055893910477 -2.270011554480349 -0.06234745188897004 0.020800738795435147
Ni 7.636878079138931 8.900404993793478 6.07549429106327 1.1766152252508446 -0.45873879713979054 -0.109216862746999
Ni 3.1564875752658064 3.9167219837143397 13.061205878978251 1.808571299248995 -2.3728078584129846 -0.6095424821896406
Ni 6.104049628826149 1.0981080510740462 6.954078037136378 -1.83290319112614 3.128963641720211 -0.8515969324263721
Ni 2.2979561882665522 5.977562207064565 13.31684258147702 -0.9369917530531088 1.3691425152917258 0.5750143665057839
Ni 8.556075524478455 7.407574600143968 9.652587395794196 0.7742712619610149 0.4008758633847354 1.2225531254335396
Ni 5.279677985657914 5.297417474648221 3.0075385547600084 -1.0808092365931128 -0.0759925534762304 1.659035682278291
Ni 5.363407250939696 8.074901241886938 6.637161504948307 -0.8414102217013574 0.3624548404043758 -0.2681118094454157
Ni 1.3081750377883798 3.5238521827106486 6.817509233841538 0.35025649856597096 0.43084361339141924 0.25875067994548984
Ni 1.5242113251228695 3.8503860254119777 1.1434242119261842 0.5415391175664738 -0.14729901433070114 -0.25905432722883776
Ni 0.7448208883205627 7.348255844764989 11.541352704684329 0.5271738499837372 0.4222898102841372 -0.3337551584768381
Ni 1.5717037545083121 4.321221629029714 4.057336438401274 -0.31445362993474874 -0.6114607822582759 -0.3788404808512508
Ni 3.336483508385811 9.323317779579805 4.079232918403392 0.7339458228690908 0.6774969958527428 -0.01859010429736153
Ni 4.531765785542838 4.575366006373445 8.837105145289298 -0.1479893555295064 1.569571062457555 0.5133441431894965
Ni 6.150091836274093 3.9659266106130873 5.515991182559805 -0.11436035462115143 0.30384525829128317 -0.502548081015257
Ni 4.546838737422259 0.8217556299183991 1.356386964380233 0.5984366020844661 -0.01896651380017379 2.3718485798235087
Ni 3.5008264008513943 8.563747666341351 8.407666360784228 0.24960449466984752 1.7669479672812536 0.12606890130733128
Ni 1.6960579465811878 1.9941767955781065 11.582174113157278 -0.03695086619273636 0.23538809396014948 -0.20143436272252405
Ni 7.113712854253901 1.4526358553043834 12.145059513469812 -0.5504785861479488 -1.2759983897368736 -0.38384101938963566
P 1.2248293795997425 4.320098876561973 12.340813277474561 -0.8348996742763491 -0.848679758779577 -1.168531934022078
Ni 8.817789124708872 5.094835504385494 13.383942011457448 0.5742124394297788 -1.8216214475647339 2.1232244467890595
P 1.9312184509495323 9.0398789190986 10.613758942140215 -0.07027930514153703 0.5665104427998308 -0.33528727885064835
Ni 2.809238949534657 2.6976092854295115 8.547563189518865 0.024665878177796228 -1.3622768985201443 -0.2963034413882833
P 7.311289219764617 1.965808583226518 9.60145537715916 -0.14766385386928763 -1.2529119402310551 -0.3136817847657307
P 4.528528515927518 6.953028263579041 4.867464095262102 -3.052413158857982 -0.9108199797537475 1.3740888035534076
P 7.177195150034088 6.14844513265474 9.008935861087657 -1.5919409455123228 -2.2585356926302653 -1.425913758644499
Ni 9.11310109253644 4.212370777282228 2.495676640343961 -1.7903254656649297 0.928904090948968 -0.1958923498583723
Ni 8.931056136162807 0.38823938270131597 9.819830732134776 0.41636136061484424 1.4505454411502503 1.63472744455023
Ni 6.762169700333642 8.998140596110328 8.258184032856255 1.2187797744340365 -1.572818879970891 3.675997978073301
Ni 5.008065451170247 3.628782757091606 10.858289751478916 -0.3784980099101675 -0.5939096607483901 -0.026882940433773053
Ni 8.59630748790584 6.4576792310822935 6.137555369344709 -0.3783108336000259 0.9690801489472213 -0.9072235206517407
Ni 9.082459306437675 1.4883487400491102 7.649082398463275 -3.4039300121936154 0.1286268918424946 2.3700025277537056
Ni 5.028789590470632 5.341850403559069 0.7405497508078648 -0.45296487077049086 -0.36195193262602826 -1.1492322052522015
Ni 4.343573759408324 8.105084570728039 0.24775965831051058 1.4891436131384226 -1.0953701651264232 -0.36079030821775926
Ni 9.027921605317157 4.8114153564454165 7.734696016636749 -1.0732607348218934 1.3219041511300524 1.8987959371642074
Ni 8.642209351295316 7.429599261052821 2.057596404345511 -1.8517483488571012 -0.12761104898347053 1.7537962603906443
Ni 0.4149983165158089 5.300327274793783 10.040014654210513 1.6798143095865392 -0.45696345040692266 0.2503205469002657
Ni 7.134118880355093 1.718382008148104 4.994393132994332 0.5143854399698172 0.42450661542979795 -1.0765345204771588
Ni 4.629332974989527 1.4568742458701054 9.584200542984094 0.9870364763153259 0.9304963751367523 -1.0421820111392182
Ni 3.5647765101598066 0.8769707250277866 13.074132502390174 -1.6226185771018375 0.604422644464572 -0.6888396745590717
Ni 7.606685394027263 3.992994301356209 9.880480884815087 0.30074785031288204 1.9858830578917024 -0.5628695036131339
Ni 3.4435473124554767 5.13922165194352 5.073898977743294 1.4562386348802856 0.1593901411672803 -0.995502090584176
Ni 2.06769836967401 7.146983752381291 3.8059858434481053 -0.15615389361816978 -0.890088403633351 1.9837960934556869
Ni 6.68985508514056 3.79937563829428 12.706753860539486 -0.3788361099758766 0.9132792399275176 0.026679566173715346
Ni 0.7546281311262799 8.953688954658352 5.3775735802014175 -1.3624766732357763 0.31486732043339966 -0.3382409621623336
Ni 1.634783730654225 5.899072453298908 6.187633871914181 -1.2129066034827112 0.33909045464682247 0.14652794049263151
Ni 1.5440653312607555 8.467041253786595 0.4525497084264617 0.8391890456803225 -1.0793390798054896 -0.5703012773008307
Ni 6.682229724630486 6.6555082158982515 13.393376874694697 -0.11949561896518775 -0.3998849602263758 -1.0069648398081366
Ni 3.820885704322084 3.3990395333801118 1.5933747483898257 0.6322774618933111 -0.09999482992809876 0.9874172566935123
Ni 6.605966763259181 9.095464522522342 0.05896134584341652 -0.5548715730093219 -0.64491186282787 -0.44659316291619217
Ni 6.131173457192658 5.824980146698569 7.060082711378142 0.8932086944298875 -0.14866761254345365 -0.0676395535258448
P 7.31797895321824 5.336264710032058 1.5667954549701713 -0.4321535904520944 -0.14528712610699496 0.15181464281286758
Ni 7.587505039370021 5.612583448613673 3.8069308267751207 0.2870819227900153 0.625817050979948 0.654165520215654
P 5.097174572026621 1.9749496595680425 12.02855242551939 -0.9401819778556324 -1.174370652191042 0.7966959095131182
Ni 4.437445221982032 3.175106553689177 4.077534755295934 -0.48910172570236415 -1.367653075230393 -0.24097998622563016
P 1.413657632132643 1.1191035222208021 0.7327793681040409 -0.19691950557130602 2.31922118343578 0.5735796909417864
P 5.456782831173486 0.9500918507435295 3.570547457843995 -1.718253330289028 1.3746397909608714 0.8639739659344862
P 9.286313729497175 2.0004735656680204 5.810217823001889 0.5571660254704534 0.22629153097551993 -4.690801597199567
Ni 0.41361265284520526 3.0544574447598465 9.189421127158186 0.472578017015728 -0.7168796114154233 0.834753121396156
