# total energy = -340898.24351419404 ev
CRYSTAL
PRIMVEC
9.00895141157232 0.00000000000000 0.00000000000000
0.00000000000000 9.00895141157232 0.00000000000000
0.00000000000000 0.00000000000000 13.18551102960305
PRIMCOORD
 96 1
Ni 6.492661223334005 2.1303287324083104 11.45285566049211 -0.47189924578114856 -1.0055191085005455 -0.7849652513397515
Ni 4.654249544887441 0.36464992262991924 6.057436976804275 -0.568574267307395 -0.498065105543239 -0.8184788097161647
Ni 2.807378461025636 1.7915921577404803 4.734349934054638 0.28337284936954427 -1.4919743977189983 0.285407877521702
Ni 3.246474754890265 4.264243027495286 4.814834104553773 0.46340843470131804 0.16678437674882246 0.11819618342747384
Ni 4.997661765359862 4.509268489139319 2.725589794355972 0.734914100319631 -0.31144852455983785 -0.5934378633182942
Ni 7.243278049524135 6.103717762213413 2.526726199961885 0.40495517566043165 -0.4677962793563685 1.0204734158175328
Ni 5.1356158389739175 4.443674313603243 11.51882280661838 0.08368889367922362 0.04745587948911827 -0.1049755709721418
Ni 5.7028734762221776 7.9414537693009315 12.367257926800155 -1.0206086558438163 -0.19134586813827045 0.3692857472832801
Ni 1.8988617427024443 6.299491286258801 0.41273700280557024 -0.11585030890311661 0.5885154863160122 -0.2187808244207716
Ni 2.675271196905183 1.3890001351671826 0.4506718955877856 0.3857806596145098 -0.18467077011094002 -0.5414879526135642
Ni 0.6970595106916533 -0.05263209618415951 4.708044696704303 -0.5042033572304929 0.7780397278645116 -0.2087535220917566
Ni 8.596557692176479 2.3684173014328165 1.3525562238505928 0.7008402985643737 0.06949948955271901 0.3782172454449551
Ni 6.8042808541254995 0.7245593350047796 4.688912386501588 -0.5064204194864698 -0.11390038426559738 0.044544105158962
Ni 0.6280383300225013 7.36306106805561 2.5156767210036377 0.6816197597718647 -0.568400460733692 -0.09699640942140714
Ni 7.702212054490322 3.7989937475598934 3.73040499656053 0.37134648646705076 0.2356313203192071 0.2933047637712755
Ni 7.508627705648238 3.875741004995937 12.631311194810037 1.0713437203048388 0.7117014096485936 0.3423984359741329
Ni 7.8437066460257725 8.954618467712994 6.755003691462784 -0.017299410510396015 -0.3290986335414332 0.305296646025829
Ni 6.8317761739629 0.8159641564563702 0.39689025719810445 -0.019770240648391755 -0.9278000592515119 -0.1389185035764898
Ni 1.8269703101000698 6.475616287183166 9.06377272531912 0.7413541995180201 0.08815284298784819 -0.008105659826269911
Ni 0.15990258204126911 4.7879063486579705 1.5627467729077085 -0.3862344593224768 -0.03029865098354137 -0.3160700824922492
Ni 6.342536056305687 2.0039241345581953 7.1062654113370165 0.3165984441918935 0.04184907482530212 -0.7429367135137914
Ni 3.5019866360266745 4.249414293402114 0.4505268514693773 0.21147863433240352 0.1642976057712267 -0.3521380318594
Ni 6.054591949935124 5.607207420732877 4.800699960617699 -0.18314302061250395 0.003086866455439845 -0.14141427341515
Ni 5.378443116463191 2.806468556928789 9.265432698244506 -0.335410434692074 0.3827994654989988 0.2089658952128788
P 0.24704616945515 5.4777848241456955 12.425050350377127 -0.22578528076306276 -0.21657121836396248 -0.06119534056239783
P 4.084217150591369 6.14674451435739 12.420461190506492 -0.09044935233150873 -0.36057356422126285 1.3666644860648787
P 2.2510937266482642 8.313649589668664 1.3451202353205176 0.6868522118153977 0.3569015146863143 0.002646950704543828
P 6.267077078927556 7.7298154817451685 5.749515520584619 -0.8563413890898929 0.1271089125360714 0.3463101123237133
P 4.739447198787273 1.0147953186252232 12.530362290188151 -0.24546424724922888 0.09532750635941646 0.4309816816311803
P 3.8795788183153124 6.020718292468341 8.126375110424913 0.11672782641206347 0.5599983527129259 -0.029767461070419703
P 4.663456693273359 1.0708129787657703 3.7500778438504807 1.089213658606724 -0.8363772872631402 0.3000202281182381
P 0.16339264983452223 5.612648827411053 3.8022396727687453 -0.42923024615771244 -0.47952050977183225 -1.4132235647713403
Ni 1.6091248549925485 1.05555181500281 2.659781205775292 -0.7287233981278869 0.11719833829057882 -0.47738366593448756
Ni 1.7928894467498464 6.573237285137969 4.756277721893508 0.5602783458471899 -0.6053325578733509 0.20339919975837872
Ni 5.994295037853959 5.737350733436375 9.286766796182562 -0.8498377836434203 -0.5517793072372432 -1.011626249839548
Ni 8.602872967145686 2.499632679359331 10.100747181528776 0.0860864473771227 -0.3356729443248413 0.5968085795627398
Ni 2.0901397999723215 5.139453652293292 6.89571900869747 1.6160753766666813 0.6095355402111051 0.7344497590887028
Ni 0.5498045955965588 9.126157912347304 9.073240232402057 -0.35377582457313905 -1.2786494542064752 1.3270607556303273
Ni 1.4943598224209131 1.019056552662933 11.498200415845185 -0.6792481742158947 0.5211911500377411 -0.5475218175124699
Ni 4.0191815300454365 6.745362311616787 1.5941411669343692 0.23637642601534772 0.5386039461975498 -0.2330584173857083
Ni 5.572622056101234 7.8056528350843655 7.932284458511119 -0.5359652230231221 0.49430383872859385 0.2530091494760224
Ni 5.276867188820112 2.931981268584965 4.807160279705314 0.4201745637133473 -0.09733296682521947 0.15258083155493077
Ni 0.6085267429635761 7.456186599234902 7.004921013746303 0.7258471050213564 -0.10501773706398689 -0.5123002753060145
Ni 5.202137936509748 4.618051577945544 6.97331581025562 0.10509152772471578 0.3077870165478506 0.18173148497695799
Ni 8.060768322356802 7.18804416816008 8.93732398360688 -0.11739194235862363 1.0279872076960748 1.4025367744814554
Ni 4.610015593248637 0.5142525704739083 10.348187042162463 -0.20967217725128404 -0.7880148367993526 0.008051923770199036
Ni 8.011561429515428 7.3797636640512 4.589362572040498 0.2565225619459195 -0.6295688047128963 -0.0525129822970515
Ni 7.170062301058033 6.149303056570307 7.001018335976459 0.24008318544297363 0.2910599336011568 -1.0740359224250213
Ni 2.4020296993074353 5.103561989700828 2.5372612677921125 0.23205722981470356 0.7863454195167296 0.4457464986451807
Ni 2.3905072503978566 5.141570755884966 11.393415499694214 -0.22268864411561004 -0.028047907276151696 0.2430628368965878
Ni 1.1602808756547656 3.441077115246643 3.670345019902604 -0.8152908989064862 -0.5259065532355394 0.8221248911091842
Ni 3.714372666553113 2.5410918739503243 2.486207539902682 0.11406364931633906 0.31869183638581244 -0.11802623350851285
Ni 1.0123989375384777 3.349176801465086 8.176374790994235 -0.5111710467975777 0.07921697395079906 -0.020937264373299427
Ni 3.8600023668059182 2.813549592771579 7.065851255114679 -1.544554228698243 -0.539340310142942 -0.18476101583190116
Ni 4.031830097886757 6.761127976661167 6.01173636786877 0.08906558461010468 0.5063224604560248 -0.30813180148177904
Ni 0.7884769446752793 7.219016943258698 11.133383827613367 -0.30923146230386095 0.3275711411533133 0.6752516514619918
P 0.08698593076343708 5.559009530454343 7.990551653829714 0.6646142263528038 -0.25108545009074823 -0.29833024201032493
P 8.429874072375837 1.61105277060369 8.043649512804041 -0.528311048911974 1.1675189193765312 -0.45988448070845955
P 1.7226016075062716 3.2080966216965163 10.386094908090318 0.35473356050071814 0.1714308743818983 0.09565969288785461
P 4.00617260414596 6.023168727263809 3.825591775832481 -0.271907529042422 1.4253123776150742 0.009501254622215894
P 6.97045096369327 4.065622674790455 10.329265541423771 0.057456185234939755 -0.030773019516798613 0.09255817114439543
P 6.179573133455517 7.78870699739952 10.243467891357108 1.071913990986012 -0.030553961527457055 -0.8784857863974161
P 2.3576966492026377 8.389775229454386 5.827086196183551 1.0021702466329707 0.5460447187463112 0.7778970316390602
P 6.923397210249385 4.01675812210433 1.6647893642361016 -0.031719185480151825 -0.09416382506861848 -0.49131698818612807
Ni 5.429622969672977 2.708063780197494 0.5550099677466405 -0.9589955110177096 0.9968981996007541 -0.19767283879756278
Ni 1.3568111516222847 1.0761642959294058 7.099751939435824 0.8543017329520449 0.3270103835538368 -1.5868915560138734
Ni 6.865091276439538 0.6386770007944491 9.206466408293089 -0.23703951352064337 -0.15806910836301166 0.28797435269729765
Ni 2.573983555708629 1.6128635698459302 9.18318097147011 0.7571669981805604 -0.38823426336132494 0.03794382623362498
Ni 6.52296733602503 1.9524650038533378 2.597308631918003 -0.9680583925509263 0.23998136975778667 0.2907956241961766
Ni 4.093244119948209 6.829686097225587 10.323569181419451 -0.4245729498913591 0.714095363802067 -0.41675885316357897
Ni 8.054525118999228 6.966469007150632 0.4067424465081241 0.7487656614907428 0.06121848049084941 -0.6387980366206482
Ni 7.402295051637483 4.039001223244087 8.04267384336158 0.9706112408797671 -0.9991363449026536 0.892435820819605
Ni 3.086466768116985 8.192271986729843 12.24236503100401 0.35014465557845503 0.10292460198038403 0.8975710851636413
Ni 0.27374780066945803 5.003643709125273 10.108975056891653 -1.0022010998709063 -1.09886635120514 0.4339394787079236
Ni 8.581044277772808 2.184715772335696 5.747247967503664 0.25374294231825334 0.6727849350890542 -0.06951774438516416
Ni 3.599328356486406 2.607154514962005 11.463549285867927 -0.11489025898269245 0.0762486353510945 0.04623974769383005
Ni 1.1774159013201437 3.2677448892729974 12.641397616857859 -0.5844973662955546 0.47318351181021084 -0.19906997625540554
Ni 3.019629357280266 8.329298138344143 8.030754099692883 0.4741677301003512 0.09467084661202405 -0.2641345699652225
Ni 5.649504447809086 7.693761658026534 3.4983668393324847 -0.7509469854127777 0.770364470707441 0.48062197036612714
Ni 3.1318538655418924 8.220343879460295 3.49977764113017 0.12969055722031858 0.19973640619481084 0.6393482526971633
Ni 3.4155817826320165 4.293648245040919 9.343134904534669 0.18449747775786937 -0.3119488612350241 -0.39597482653869226
Ni 7.272836419244485 6.141023830184143 11.263102818703382 0.5831012572789763 -0.4171254924743784 1.0280653692321777
Ni 0.33219427412198504 8.953582438295792 0.33205733805988524 0.822106636276739 0.12640263049766617 0.3603192821186117
Ni 4.560943834679072 0.2429470965436111 1.6615191148583244 0.16437782418985886 0.007785814593005945 -0.6123737809908486
Ni 5.950016041457885 5.638792804530362 0.5436244548991617 -0.6956839511744148 -0.011797763965876455 -1.306243304664344
Ni 7.958327535374146 8.717034399969908 11.442228701357053 -0.2775305316561543 0.4328290192525643 -0.35243190895073495
Ni 0.06145366144784939 4.807671988147897 5.869517456636424 -0.788055717339617 -0.590122425791816 -0.7682001160662705
Ni 7.887634293315143 8.85906051964114 2.4389240581967218 -0.01750921252835694 0.25670408182910626 0.3607589407591916
P 8.627395333003287 1.6430435572166013 3.5530340576500876 -0.41652462566558585 -0.4271551087962385 0.21506455191144896
P 1.8482854892400722 3.177916634325845 1.56915484007689 -0.13083135569298113 -0.310669223191652 -0.19073240292398763
P 4.542232242509255 1.0633265401075531 8.135460637966203 0.5810119788501155 -0.07681453515689352 0.3652475726581645
P 8.509594283791678 1.6962233976491599 12.426091785165202 -0.05568932314250409 -0.25684215006886735 -0.8017008189268773
P 6.27808601760426 7.7948511022911005 1.3547850384402953 -0.35431678467827366 -0.36464953406284945 0.4429123716304953
P 1.7820877139565823 3.1200521391372424 6.024038091079114 -0.39286790547859435 0.2470822424686261 0.5700935321653988
P 7.057324282563532 3.88718237334243 5.84086538743234 -1.4963442446519197 -0.13083032725171664 0.45330219950525164
P 2.3415976529544618 8.470819756733954 10.203001483216337 0.30293637332376866 -0.006330055983085873 -0.5963182701898827
