# total energy = -340874.5101465544 ev
CRYSTAL
PRIMVEC
9.22972784602203 0.00000000000000 0.00000000000000
0.00000000000000 9.22972784602203 0.00000000000000
0.00000000000000 0.00000000000000 13.50863965783931
PRIMCOORD
 96 1
Ni 5.586625075322209 5.518971169892194 12.842542428630038 -0.1150704933142986 -0.6144998261949158 0.052100577349981234
Ni 7.149181088102528 6.959251747592455 11.722000853396107 0.5306366117213571 -1.7081949176117612 0.848685415206532
Ni 4.734951934318853 1.6248289868507575 11.636841846050872 0.006129509936505572 0.6507215275311116 0.6495002535295007
Ni 5.511808901049944 0.6868495833255028 4.844386971959044 0.698999388700893 0.3117125768545018 0.20078078829892518
Ni 3.6989980462737972 6.553854409502068 0.2657773983603838 -0.9343319468327586 0.1474363112395138 1.3121450148607596
Ni 8.197650487165744 5.89243364948492 5.28056822147927 0.601147573257726 -0.47296342537960484 0.09477600473132064
Ni 6.476740032985319 4.248203774610439 5.508472354417891 0.20325753197419186 -0.6742664047305872 2.1642304568877755
Ni 9.146854162777416 3.4109474685704786 5.793126392257875 -1.5657989970096322 -0.7853141500387378 -1.023025235705109
Ni 3.701305478246171 2.0657238584041497 4.187840431240339 -1.2249763901630517 0.24470165805159147 0.8930369447387135
Ni 8.043846301615162 6.467122656524463 2.6402504222328385 0.738154975854432 -0.9265389331509011 0.9279975199742985
Ni 6.0853626515590795 7.530691890414896 4.246859926229728 0.7801408333679144 0.5017204429076392 0.6077411673148436
Ni 0.8125658609627665 5.028143470456621 7.327329603934448 -1.0892090306210338 2.4311772994908125 -0.32991958678083183
Ni 1.7613089731527527 8.237458303553144 12.577691694949761 -0.7483892519879305 -0.00521316876982328 1.0870073949840249
Ni 0.8884665282620468 2.506461824583421 10.559946731033584 -0.6159283311113263 -1.38888935890135 -0.7999912924349383
Ni 0.48156659047125067 3.9686353168375685 1.498742597125125 -1.8877293949374006 3.623254882043315 -0.35238768597636083
Ni 2.262797008300694 8.528979258942915 7.820272757002293 -0.1462212078854901 0.1963824021209134 0.3318209175686027
Ni 4.0876803471563035 7.746529077110788 11.570514252518578 0.5547851839431026 0.24785074520353445 0.24149112153409377
Ni 7.856224393077462 4.937922880336786 13.274804735688384 0.6371250197935995 0.39028497524276656 0.14357400007063015
Ni 9.129613031079835 8.33209993333205 8.47744138138075 -1.1275364654463227 -0.46677092341564774 -0.5453677472839445
Ni 6.277156397102832 2.774945379161005 0.12198654459711777 -0.13911673563022492 1.382566759117432 -0.8639636815218411
Ni 4.423725509885008 7.8742869705572085 6.888190226625638 0.9674577828524499 0.1265710377547304 -0.09012230800939318
Ni 1.253249371747489 2.237701378169151 13.761791945349136 1.18766325553489 -0.2582300315553295 -3.150777652271509
Ni 2.1211114554690225 0.5169819793560404 3.1161730340996616 -0.40819733674681313 0.28341578679233775 -1.0509723557373385
Ni 3.0508773241454135 2.7671831780059377 1.8535748709729005 -1.4714217703786272 -0.037096133521349016 1.4569477451321682
P 6.399837940210029 6.583288011741675 6.326825254767372 -1.0426370963987657 -0.7569476830809029 0.8683646388030142
P 1.6277548105917279 1.9780137542702576 5.295954177871061 -0.2981942306530929 0.09396147924982527 0.03665904598393042
P 7.372642030035145 2.090339542685439 5.148291453258151 -1.289579727965734 0.8199430529665169 1.278260703408489
P 7.556396682587145 7.775482733500141 9.943006798634288 0.614328333614058 1.1718386297978078 -2.5502142336520275
P 8.659330705926283 4.2622606501861435 8.916904722138481 0.6383902596592683 -1.0199813066724628 0.31719545434594404
P 5.687164501222502 7.799387728733938 13.058910324679577 0.31607908135331375 -0.6005299942783852 0.34693566172285406
P 3.615810508805759 3.7520782113662956 8.125189739450878 0.036736950409717375 1.3973703997891675 -0.389913965056593
P 3.967998465613193 8.349387213669077 4.785260412126136 -1.1622808109060436 0.10221780572134655 -0.38599431828721265
Ni 3.9709335190820534 8.959555294715848 0.237962690392595 0.7580799969131331 2.108717511422136 -0.8729885107282708
Ni 2.906044434103423 3.33621436184922 11.416056602233422 -0.13318237242366093 0.646605448480209 -1.3680605950814568
Ni 2.1991303453189426 9.247633561602836 10.527877118508737 0.45375111411721214 -0.0979250918832636 -1.1076191576971053
Ni 8.597639204712884 1.1286480452392769 3.678226543658484 1.0259259542916719 -0.16030211145858844 -0.28792524462691704
Ni 3.9390632686796194 3.63560827512873 13.371418758317274 0.9564472906745592 -0.3050469919088682 -0.764433964155619
Ni 5.939320667163566 7.175605799050159 1.6837035751122822 -1.2337083707194108 -2.3415967229175023 0.3379370577686696
Ni 7.361787870037097 2.349371855904178 10.600635063461644 -0.35394500316115174 0.18207035637361546 -0.7940034502826196
Ni 6.492172138016558 0.0426745698698793 1.156839326104957 -1.6716687976612694 3.3421497456620246 -1.1573026409651617
Ni 2.4886853686682486 6.633331596358529 5.385462232997829 -1.2439256775720449 1.529204228604734 0.05057025674838387
Ni 7.109170217701558 2.7756560682084963 7.628517776315677 2.772012247632568 1.0050809925218627 0.15530568668526157
Ni 2.857865254520248 6.256048009419551 7.8702009700205275 -0.6758748868682877 -0.43358878023672426 0.8882814323315992
Ni 1.6612310336469345 9.005454731510318 5.352906213813204 0.2408581159357852 0.11892997626970488 0.7616026653544109
Ni 0.8276001647219685 6.8460768242114405 10.096681767994417 -0.09736124895999362 0.004301969809463559 0.5903687374746671
Ni 1.8170657593332054 4.61533466087097 9.476270534935882 0.47927548364056166 -0.638205654452288 0.16914284967867
Ni 5.601060369741382 6.9265508216799665 9.320366586290438 0.5043727929288218 1.6137780959920722 -0.5003821837121898
Ni 6.47234668250992 9.255201938472224 11.352633604067952 1.3519698601671812 0.0014853262962748611 1.0248532900527831
Ni 5.967914364165227 5.204745083894262 3.647900426731963 -0.2231342162934609 0.8831505388629372 -1.344091485860369
Ni 4.487253726948417 9.05772268054854 2.649989631101836 -0.2576029394942918 0.6485995960921024 0.38796866840476407
Ni 7.795806594312813 3.6822645496101387 3.5213645492581116 1.7957579495344105 0.24178345596353198 -0.4905083762419036
Ni 8.016683212436371 7.63340953209711 0.39035749649445023 -1.0081855995891154 -0.3042355517511664 -1.0997662373115897
Ni 8.347938146390426 2.735894400460542 12.49990908613381 1.6547349980204082 0.23715264205973993 0.034725833516959556
Ni 9.068512232451363 0.8039508329507098 6.821092873787359 -0.37854557531865124 1.0389115679180625 -0.620012785593345
Ni 8.124144934253787 2.018393813786808 1.2844513898507235 -0.06722714857877454 1.4318946588182824 2.8781990653039915
Ni 7.02412750492773 4.874339284906041 10.321046300287417 0.28855387934985144 0.01852454116674874 0.29880126810947244
P 2.6480366206804185 1.333769517855463 12.229142096876366 -0.800960341216427 -0.6968504606786902 0.16226154917780442
P 6.904436393656731 4.627084104474299 1.6327084055500212 -0.518357794354004 -0.28199216697193374 0.9579110197042793
P 7.861153067770453 0.7987748015502798 13.190565009240943 0.12581950430068653 -1.285803034532121 -2.9712819986036054
P 3.2211934928903054 7.124168525521991 9.710941904363082 -0.6104580520253744 0.6520232770616706 0.461025022070806
P 0.85978884073659 2.1886822933480317 2.2916731349757753 0.21223788109593125 -2.9783805573215996 1.8712213699800486
P 4.757167889348874 1.8427059434102284 1.130958246130018 -0.31011540757071104 -2.2072020753532957 0.6547442755372594
P 2.192475711510615 4.82018847137836 0.2545134384440414 -0.0672690575603035 -0.10467835144669714 0.07128692047044496
P 5.593427384776768 3.70169312681753 11.506307650455291 -0.49218807793717173 -0.7342199024660838 0.381470205164614
Ni 2.078294747789645 4.2033288376117035 4.883481330380587 0.021367152821866426 -0.4673656195768532 0.1587640775475072
Ni 5.2979837950339626 2.7130508239340365 9.376846983137428 -0.590468496277325 0.051990277024362076 0.01361064880489914
Ni 1.5410138278862333 2.9189291342371613 7.348713960481623 0.7362101934232352 -1.0696928149649771 0.36146599412854524
Ni 3.8294325608081716 5.139177096967273 6.295052839480567 2.9074679894714377 -2.5071397710600563 -0.7528822547622775
Ni 8.518623504250897 8.226262643623185 4.914294776939673 -0.24348578336661938 0.5168267024214582 -0.12371762746633533
Ni 0.2673630656117994 0.12937586474544924 0.9226940511674582 1.5667883575060952 -0.5799305728604787 1.0756042953534055
Ni 5.698304782785125 2.601140373273883 3.08064504253462 -0.08934274953089129 -0.13005745364143406 -0.6864457204055984
Ni 2.290827691901097 5.122332843568941 2.4442663802272544 0.01737962892902813 1.0410216722825296 1.0778259855950727
Ni 2.9698495430035177 1.8614238315701288 8.889995450476652 0.8733039850861606 -0.716024976724612 1.3805607844309966
Ni 3.2804852648524356 1.2236957830453192 6.548231659271787 0.06131181153560408 -1.0720865120081342 -0.10112251577463874
Ni 5.720068481148559 4.8071560955983905 8.2057560341983 -0.5523074118265714 -0.1627084069072359 -1.3254494452791494
Ni 7.799600012475397 6.187471131200588 8.307367954479352 0.18305997398039442 0.7953633067446237 -0.6734271966587434
Ni 4.502833507625889 4.739640636086717 1.8074963774573747 1.7693141535205852 0.40770317071921397 -0.866298757412921
Ni 6.804976845919509 8.734359163940006 6.5201206770387445 0.077503333693802 0.19695678656714466 1.0224577932374135
Ni 0.7035720043156939 6.698179664510136 1.1082475776851213 1.971074017903328 -0.5969021677178108 -0.08859532984190548
Ni 5.212368839130987 2.4934017596197817 6.571750851879804 -1.0104461134885176 0.41347735419882986 -0.4645464049605032
Ni 2.4284983131008375 6.045361010885999 11.769916062761643 -0.8769207559031413 -1.4076381002637628 0.02808338849977744
Ni 8.955411146893464 0.15439673408108723 10.676972296890096 -0.1467292578701602 0.5487361495355453 0.31284926156210635
Ni 6.966100205686462 0.8192038812608929 8.786384371134735 1.0858298297361557 -1.6493994447401077 0.7187410901041944
Ni 1.0734727319158626 7.645878894475821 3.558162551380748 0.015760348158050275 -1.5334123531488106 -1.8419874128155955
Ni 4.7524422686694505 0.0954676904250144 9.855552357962937 -1.233203148948218 -0.37614879295170056 -0.36813235040512726
Ni 0.2285216017344283 4.556301321289745 11.471928760012492 0.2435814284042192 -0.011261946067064476 -1.3309819450616047
Ni 4.062778541310441 6.6374388252693555 3.421738866418879 -1.0627050707932344 -0.10234378977624956 -0.49886497573671507
Ni 4.467326744434992 5.38742908801108 10.462333128874262 -0.5970929435723781 -1.7821964087998918 0.4101747721881581
P 0.17690250256683723 6.39154964456526 12.444172605354717 0.11466708722829283 1.7016473463012305 -0.06135217785523628
P 5.073027637183247 0.6834807326458363 7.923154687840941 -0.5183953324601588 0.1090620823366896 -2.1984909207325427
P 7.481737413689003 8.593402759611605 2.808392067086965 1.0303965884685158 -0.8862420333040673 1.56898562226773
P 1.0442606431456039 0.8970658657366913 8.753287489895786 -0.7141802102063894 1.1347640935430134 0.5793862703212344
P 0.5784279698075792 5.399501572090542 3.8283213015702757 -0.3329666011372717 0.24048556308771488 -0.5274944665479496
P 4.003957485470674 4.160909008231575 3.8222970581768014 0.14380359958293298 0.6084484777945134 0.506812769828882
P 2.341111249443078 8.211301254714309 1.3038015143710544 -1.149283370205111 -0.15853602069710115 1.6264400077304568
P 0.41426987551055966 7.2781111569909145 6.601010012262299 0.5782074195217849 -0.09942404502629329 -0.017875080508207925
