# total energy = -340894.38739810226 ev
CRYSTAL
PRIMVEC
9.06225136836018 0.00000000000000 0.00000000000000
0.00000000000000 9.06225136836018 0.00000000000000
0.00000000000000 0.00000000000000 13.26352090400655
PRIMCOORD
 96 1
Ni 6.367853639571875 1.9074951391548696 11.622173189464965 0.7124729977072954 0.06735596084715496 -0.2994604989600262
Ni 4.52551608683772 0.1275765605164875 6.105291221924493 -0.02130467501504718 0.9018789685103757 0.010121404704718052
Ni 2.672485077639526 1.326894826664969 4.813450995508845 -0.27869729827074585 0.943246732823885 0.9204952980599824
Ni 3.4209998433685684 4.446130765969087 4.873242822969933 0.48212040928852457 -0.05572069060107177 0.14732575380357854
Ni 5.24457853603445 4.511397099404691 2.5900475905530222 -0.7703888961874732 0.1551272521258683 -0.6264641976456437
Ni 7.4575984135186655 6.088111006022353 2.3717823631953627 -0.21338176489238733 0.00884793730893315 0.6094082706046214
Ni 5.112659344723413 4.602880525679673 11.61079281435688 -0.4164963435308117 -0.5316606821104972 -0.25585998866125614
Ni 5.561838889720517 7.750037261056423 12.315284976008794 0.6587505684831751 2.0993288711183844 0.31652542486211294
Ni 1.5963064938000795 6.713052913833054 0.4172849517554193 1.6912978847461064 -0.011935832205637507 -0.517817862690134
Ni 2.922902266174105 1.653163058084303 0.44586910461887136 -1.0575271261367207 0.4464113859226892 0.7642658140088708
Ni 0.38008531663742295 0.2449979622926338 4.896241910393736 -0.2264473398270939 -1.4655342012495987 -0.6576395948071836
Ni 8.528076841327703 2.5164965470331597 1.4015297154332205 0.552428510785468 -0.12962396564844128 -0.22981445652711385
Ni 6.690950083056959 0.7933230669887404 4.869104999053426 0.17519574074096922 -0.7858196289202467 -1.133133499918126
Ni 0.8324946479767157 7.373011360437864 2.5819966865507737 0.15660100845791738 -0.11784882739038414 0.5501728819820718
Ni 7.701771710948394 3.7573815471725367 3.662389217217151 0.6660121351415949 0.500378584167764 -0.2036503965372364
Ni 7.635970704689588 3.9059299695102783 12.487697930763826 0.5322232394821866 -0.2142543973053278 1.0344851567155924
Ni 7.597936436232323 8.831798191660148 7.193775436723701 1.264688621151009 0.4626838978304677 -0.35078614581719586
Ni 6.915548917806752 0.7402436490216455 0.5845985777373024 -0.350858393816028 -0.09648913076768544 -0.7836354767847343
Ni 1.7178222206867793 6.397079399823168 9.50279536650127 0.6344942670389717 -0.42352471113250284 -1.7323918265729392
Ni 0.17206405808226405 4.943340242541962 1.1439923160988141 -0.2581282158701425 -0.6569734219780944 0.7767320647966816
Ni 6.415847322142682 2.0622783903462207 6.790007738918928 -0.5626139359589021 -0.4367918605550542 1.2530062997170741
Ni 3.599408383544455 4.584049167601474 0.6053719762563853 -0.04037120472819499 -0.19396582225962078 -0.48269247974191065
Ni 5.871740695399126 5.464410626631628 4.5681023240931955 0.966036219914575 0.8929443850249073 1.757668598861857
Ni 5.310533600564348 2.9473340955190634 9.117198388659247 0.1418937841547298 0.12388603472339954 0.1846255186953014
P 0.13224543235570205 5.739069337235111 12.345048127758663 -0.18239457248225363 0.04813567916496226 -0.43938867474795296
P 3.9838472056779155 6.310426153459486 12.59405794867556 -0.8057212529401802 -0.3789476958530764 0.33357723813807716
P 2.3291979383901356 8.648704467592815 1.491801518717319 1.737754119326117 -0.4422271726380126 1.3755561321275536
P 6.235771327738505 7.8052807446198 5.758596676208596 0.8067386384611009 -0.807618469962893 -0.11480052748236358
P 4.648880512977524 1.055616335774272 12.481052581929012 -0.10845530199062613 0.33035718853888263 1.4940117398640012
P 4.2163755102633305 6.027982969040232 8.303255981422515 -0.6828729154526756 -0.5110810581869326 -0.6247503002783306
P 4.591471151367617 1.189030798540026 3.8224276679029914 0.347045447827841 -0.772541937974734 0.5481386251608624
P 0.23196010143262222 5.376769594882708 3.5268097826299916 0.48742870887531536 0.3686964504387134 0.24717583062369686
Ni 1.327148569699709 1.2561005199725312 2.545454970872853 0.3129441352687578 -0.7761080580594375 -0.3696187051426667
Ni 1.794960103247715 6.4701211448233025 4.814300128450099 -0.6780703518577096 -0.5995051525582965 -0.06161802992211323
Ni 6.178144472098821 5.4518140974070395 9.177255740081687 -0.1285710989038947 -0.13710741850968 0.49839600652009647
Ni 8.5761792709134 2.4311482648481397 10.106550637136312 0.8280790518100899 -0.7544480565875007 1.1675065780813572
Ni 2.3534757094640018 5.238153399904785 7.188404240413331 0.08889203514671788 0.5414864099516675 -0.1677274573883821
Ni 0.7154665479044163 -0.05914478272250322 9.002362447162074 -0.548763660339371 -0.3779339098765814 1.5654750380113103
Ni 1.5258928016597515 0.9566474899744625 11.279059139214272 -0.1700933865173974 1.0696853587658093 0.24646492059960134
Ni 4.124448033677553 7.002419658200211 1.6278848144734626 -0.6770362541662405 0.29288541684566977 -0.3616760532568223
Ni 5.6915831407337825 7.783322909863556 8.102273373406016 -0.9304421248600492 0.08351097334046263 0.1890737842746421
Ni 5.4827526231428285 3.0602497459783273 4.8104667961752785 -0.8831016879028726 0.01645968821792004 0.030111474673399752
Ni 0.5911632725360738 7.387936888231317 6.967738422702008 -0.21828742972412085 0.03185108307232579 -0.042630175965700776
Ni 5.249236533172176 4.599255625183389 6.952299971488332 -0.3428913164501514 -0.11684429738526973 -0.18129156922606196
Ni 8.314225836549396 6.930039457540649 9.381102925715377 -0.9226144012855142 1.8748965048387902 0.8886465289805018
Ni 4.660181140274691 0.49940797872387044 10.367629564255587 -0.6817280032149549 -1.0920187321556871 0.23417376193707412
Ni 8.271497321949441 6.943360966864494 4.723152911696148 -0.5858942466430813 0.5073732703180424 0.11673631105249571
Ni 7.354605928167979 6.0840873664714765 7.067971452549897 -0.47757135646526133 0.2134208456604389 -1.0536445032528627
Ni 2.338196753872162 5.330416179786469 2.652531812857727 -0.38525872567276875 -0.45878353433479696 -0.43685665235471854
Ni 2.3534394604590387 5.352165582764177 11.49187251622552 -0.1811632711783138 -0.4315802344471277 0.6125928389801902
Ni 1.2319858694209982 3.1354573690249916 3.887326073938222 -0.7795978163802508 1.4910405730508192 -0.14619935350861918
Ni 3.475318977305393 2.8620220623390056 2.8961559378622694 0.4349316674178639 -0.09468524478972724 -0.5400522486083021
Ni 1.199108021919697 3.2782693863273638 7.951520105341409 -0.6438008891518783 0.01415392290287885 0.9204089089937632
Ni 3.812489096967303 2.62349454743224 7.131489677721167 -0.31189409673768864 -0.08632967373618035 -0.781793281369673
Ni 3.9064374555797583 6.881021740579641 5.977616789094606 1.4326531342508617 -1.2074430092649784 0.1759195062808712
Ni 0.9265517536040597 7.614882846052453 11.295028638350654 -0.6845654726637501 -0.2879183026483816 1.3281637588865192
P 0.09886372368541738 5.577344401593375 8.099116991298876 1.793191731469131 -1.9218811011184451 -0.7421185884878703
P 8.62100116554996 1.6644546231302295 8.05875644294812 -0.24732649726894823 -1.4128394419590442 -0.9469689188704788
P 1.6286949797343822 3.195866335795574 10.4850119983514 1.315533214606702 -0.28264805538837773 -1.088345397069158
P 4.013399206973875 6.263538065540045 3.758072996942203 -0.579605328310576 -0.5966676831095015 -0.21569421507564787
P 6.8452892839375155 3.716275175544669 10.517242801114113 -0.49520886704136646 1.4592339700631836 -1.8494556961681827
P 6.456156215661366 7.927983626419032 10.187392261779326 0.24394395394996052 -0.251053054190916 0.3166449811591127
P 2.2644390910240118 8.293110791158538 5.889507238956542 0.00021134467985770052 1.1210002069897018 -0.29264244759692826
P 6.9717167509966815 4.04276090099378 1.4031745140334095 -0.05419885463990666 0.5971222541484168 0.0908293613787468
Ni 5.318091518099101 2.812170618263852 0.5662293944723803 -0.5649132735160399 0.1089155294564963 -0.8721364471406206
Ni 1.463064213807899 0.8485148957200455 7.067268221853618 0.38222199572897403 1.2575671796148795 -0.8006016723254277
Ni 6.785532799256265 1.042240452942982 9.331417320837927 0.43207645735725586 -1.2870394780423835 -0.8012506187633363
Ni 2.7894787411571107 1.729512524787297 9.151696566682388 0.15124591479359112 -0.7907093529123801 0.5268537476401571
Ni 6.165212639578325 2.151115639258915 2.675981294168192 1.115230908606092 -0.6944084268961009 -0.16238393368828163
Ni 4.299793532934079 6.908290054562941 10.41466264819488 -0.03142993637450716 -0.3470536753579571 -0.7520201638722984
Ni 8.201183314572761 7.392776130393856 0.2277398110298229 -0.5490565089894415 -0.4068194825626801 -0.055923293530181106
Ni 7.697412768101612 3.630183788757911 7.994786011439938 0.4502855241661148 1.3332519720427038 0.7917660763116687
Ni 3.152095662302938 8.493821531637815 12.689515172119593 0.2690772586824785 -0.6767266933456216 -0.6813341102106459
Ni 0.053880520976773934 4.766281977800941 10.309973709411935 -0.44597404127495455 0.06637277099827923 0.18386884303493495
Ni 8.748942028566324 2.3183413614037636 5.712081046815149 -0.4882925995375075 -0.14691386307714052 0.7788439689333618
Ni 3.4649155128810563 2.836375891327792 11.722604682615025 0.042436057677023686 0.1892149378381967 -0.8899943012576478
Ni 1.0234000326135428 3.416704336280471 12.561323284743862 0.12624785008735676 -0.30934999015959624 0.4137802301512293
Ni 2.932508252489259 7.9045577069617945 8.078465933171543 0.8035183317515903 0.44911978599278785 -0.39079971009565595
Ni 5.750433400290963 7.620519566324176 3.497537804897369 0.22446064841436825 1.1325902258201461 0.19482997003212896
Ni 3.086421527561502 8.309513465904226 3.788989773275014 0.6925685454738846 -0.09525037326457789 -1.2554547612575668
Ni 3.364696076410028 4.227667075309257 9.355901711240081 -0.4274078482369929 0.5111067692185456 0.1872642418697291
Ni 7.053331385670528 6.076556635690445 11.445264451869418 1.0948142926229532 0.33639105343778836 -0.32865640379769206
Ni 0.7346767080844765 0.07136885342109887 0.3071940050078846 -1.3048006586805465 0.697000098882677 -0.8951316224842132
Ni 4.632894701788909 0.45679908584029344 1.7024526425825326 -0.25287262389815807 -0.8158529420575432 0.015000072953258038
Ni 5.936590165277657 5.808250563206702 0.4045624572385845 0.3563613259121282 -0.7935249679843043 0.13063106675671698
Ni 7.998868555623878 8.977791059148009 11.444110827286472 -0.16839234466589065 -0.27265597717267237 -0.4200737764694249
Ni 0.20197673697760438 4.631807231640024 5.794460535493711 0.5190303949409965 1.4046052269747098 0.2529119617765257
Ni 8.055571061637009 8.705325413344779 2.479787179707286 -0.6659727972632273 0.6237097748289581 0.4735164696695975
P 8.350139538216336 1.613651642674801 3.4616857265388665 0.08344515309953371 -0.3450363878176122 0.7874805615624374
P 1.9039608611709922 3.4393690266334906 1.4498886067290289 -0.5725049698203688 -0.7567697627421418 0.1427497043971219
P 4.830750833127362 0.9056351715153736 8.192187217766108 -0.17147895401101437 1.0161231092686371 -0.6741625321628713
P 8.588947982911563 1.6677079713256449 12.533125183783264 -0.18960137464333798 0.18796718147402466 0.06180417779099034
P 6.256469509572289 7.81522203423086 1.2795427514820037 0.6483710250210639 0.12503968871186852 0.8034535399519259
P 2.0126444403008446 3.2046114082428607 5.954034092690902 -0.2807778349488584 -0.4546106339040299 0.05268293221601249
P 7.179876661995823 4.083568218330704 5.858802519302762 -1.177831871266765 -0.16902046516819277 0.1652183178132832
P 2.648026061540846 8.374335749029035 10.220165893391359 -0.980302242915286 1.1777213138308298 0.04344984365351872
