# total energy = -340891.8533435581 ev
CRYSTAL
PRIMVEC
9.06461548293782 0.00000000000000 0.00000000000000
0.00000000000000 9.06461548293782 0.00000000000000
0.00000000000000 0.00000000000000 13.26698102465876
PRIMCOORD
 96 1
Ni 6.422579288087868 1.9189428650056517 11.528276602080814 -0.5530579168393507 0.7396315603999585 0.1291729941539517
Ni 4.774033906563806 0.3122660364971147 5.885020388895488 -0.950380258544873 -1.1513461662714106 -0.5141062181665017
Ni 2.6791740465220433 1.5249402831413952 5.046401131016249 0.12895625015745535 -0.6507888904339372 -0.4293899116640283
Ni 3.5216484854178667 4.42278005189027 4.717805189507667 -1.0571753992242567 0.13000526024725997 0.44197983251389683
Ni 5.075903735424146 4.27168197437922 2.6364280387160046 0.017375515163970075 0.7561552690865945 -0.2641044880582355
Ni 7.402373588775935 5.845235791007433 2.858211988710777 -1.3678433368643281 0.6063286032380333 -1.318660190271458
Ni 5.055345187233188 4.821006744626214 11.329325512332161 0.7110054120228336 -0.44129360508014964 0.24101161079451391
Ni 5.375480216536551 7.877314123372579 12.45354270760014 1.1110518375277383 -0.10712861275940261 0.31398980292445283
Ni 1.6767454006695943 6.460786642860746 0.41184809060479316 1.8127912508676134 0.7051785209284114 -0.18814150226835985
Ni 2.6073460324721567 1.5150598521325138 0.2972006453624717 1.6631710446029035 1.840541167287372 0.17168438515360107
Ni 0.5982283714331541 9.173753576356285 4.892039791887588 -0.12814429577912123 -0.15416077444754098 -0.14317445063936632
Ni 8.515934421939289 2.4071086737692298 1.4958782190518771 1.060201073424458 0.31277572801169357 -0.2551277384809219
Ni 7.006675923793641 0.49732469637034277 4.7530420697469555 -0.4133318297599011 0.6138567932942782 -0.45362924382736713
Ni 1.0384242344178323 7.495412803340302 2.7526998630746484 -0.7766791000715592 0.6362220483633559 -0.32143031836289804
Ni 7.706854026930364 3.6831618062584623 3.941580400218734 0.23056239043673193 1.0235294290350372 0.5766423890275101
Ni 7.7255815227692155 3.9605571729867095 12.420455047720672 -0.39046623801563723 -0.9085106148942806 0.08331325550735974
Ni 8.03570015182963 8.797191314915043 6.869868212783051 -1.0696275089446805 0.5681101831867829 0.5245567240758644
Ni 6.905705170575357 0.6415200690985823 0.6585307267419465 -0.6434751303813434 1.0869184348146441 -1.5538066005344466
Ni 1.991903956006098 6.681192771283636 9.278860513674891 -1.6001957293219473 -0.3830750877578886 -0.5339098831559901
Ni -0.0058194832180751095 5.046878836258606 1.3437458689003563 -0.17581871903694882 -0.957534353091151 -0.0015891988639908116
Ni 6.307567445298248 1.8771640516846109 6.829139081949009 1.2925591223090318 -0.09306365002590425 0.9824653120048757
Ni 3.3382713117392697 4.084697083690041 0.43940996081177003 -0.024310037500274263 1.4684390336012194 0.24601909131143435
Ni 5.873662425543078 5.298449113129694 4.71190140536447 0.3182442073254325 1.3602074175856254 0.5447095448746554
Ni 5.185440550388662 2.816992462172532 9.316618263513785 -0.6597666684525154 -0.6999139300953624 -1.0055982984779133
P 0.14459058996859483 5.640874032204468 12.379062387024383 0.7111391093872204 -0.32718367590690745 -0.5271126577284986
P 3.9527797327980667 6.110584283597328 12.619698018091789 0.13277768078607455 0.7360559272335582 1.643409031484628
P 2.323605434820775 8.490934212102138 1.3775641367975442 0.6252192694949491 0.4569451955744776 -0.38508569043001417
P 6.172758482028446 7.542974841416999 5.788582849941003 1.3597405052515357 -0.08030043682296494 -1.4769653259046758
P 4.743096373505722 1.099356580511136 12.642570762646569 -0.5828228068066091 -0.37264155112939046 -0.07796304693903992
P 3.9407056648129015 6.113231151353835 8.219863227681135 0.34499036507102515 -0.04267208494722974 -0.5645399493370212
P 4.803004418035719 1.067331293580514 3.6282139193872354 0.12357955922657428 -0.009228974797435719 1.5156002646680544
P 0.22578688424570978 5.788237488086473 3.7512787666798757 0.9506067727333821 -2.1145253763531646 0.5533687632115502
Ni 1.6494971661625324 1.0524290655267514 2.702815470480083 -1.048222303796027 -0.2492507108748546 0.11071144501465449
Ni 2.236077506543932 6.5399388663190505 4.624073438311118 -1.2776464668632577 -0.3069493511379036 0.31982492154899106
Ni 5.959622175320345 5.56187590721144 9.170376100582056 0.08406324629950684 0.7053456426338949 -0.23798439393241594
Ni 8.328034005074057 2.3906563964471013 10.07189381967921 0.9952958881106407 1.0353084239478363 0.9655842199788209
Ni 2.1869744838144727 5.5217105954679955 6.90071419322353 0.748278180331363 -1.2772134930908972 0.4333892626314084
Ni 0.3786924461082926 -0.32208301519676474 9.301586411456878 1.0428250440398557 1.111071892132396 0.6007863332635653
Ni 1.1311280582048326 1.285725077339211 11.163342429536998 0.7448010204160399 -0.4292688127051316 0.7817662847864795
Ni 4.028287980783372 7.153296081196078 1.4481838375873537 0.9032665928865218 -1.0956511867019516 -0.9842856530430661
Ni 5.723307646511595 7.817768663466761 7.798291523917418 -0.036554659195582206 -0.07000651109612459 1.6686140699953456
Ni 5.09441368048849 2.80330489260977 4.963058335763994 0.5560902759077713 -0.7421869798319605 -0.6231680433928751
Ni 0.8279175726965918 7.476467756726941 6.861695555354054 0.07411744794070461 -0.16306219070222885 -0.10250191262066864
Ni 5.05330564872218 4.532153703773906 7.055977461604838 -0.575606234453512 -0.21059288929334055 0.17157254216608517
Ni 7.958161429948921 7.15509993970137 9.051318719848155 -0.8831921907341499 -0.5394063874941871 0.08477158522044109
Ni 4.7525598321967975 0.4394489386588693 10.367668601007097 -1.079967714528424 -0.5470829302028385 0.5018045179810132
Ni 8.101826522664298 7.287343616755105 4.788730367843348 0.18158698897929373 -0.02482965744917014 0.04960352195974038
Ni 7.328469777752623 5.901490795448826 6.963692423058765 -1.1018881687505993 1.1778167017581134 -0.5721905239037436
Ni 2.2819444615025923 5.255709450554578 2.511028146443651 0.02176027449522704 -0.13845339101461318 0.2623985611107223
Ni 2.358205072583069 5.260214564510004 11.554147921477554 -1.4779711414613708 -0.3356395199837445 -0.2999677776137479
Ni 1.0742204014399175 3.2213287058258944 3.9352650825270934 0.8752230564857443 1.127066982009072 0.22369677366515023
Ni 3.302692695491692 2.684150520488902 2.8888984319166173 1.2296807376172565 0.37950665368034 -0.023980679185313537
Ni 1.006281107484352 3.4581599177241 8.05689141018978 0.5680086246119121 -0.4695883382597848 0.6154722174105143
Ni 3.793342208930897 2.4395871914800757 7.123731837402072 0.10927548389907633 -0.037189721676419825 0.2695415999134067
Ni 4.136184100323478 6.7112782304749 6.032536130319648 0.599086062743007 0.5119894289338149 -0.18287125500835602
Ni 0.9374444165839434 7.64051916993679 11.325371527005489 -0.19718355786597008 -0.5127923844510847 0.8597691838245193
P 0.1936682317743616 5.71574775709746 7.948195791553358 0.4429540235017081 -0.7824363142703105 0.21675582357094283
P 8.578072361907987 1.39791782467584 8.219531462750012 0.28961960161020445 0.7928896483931507 -1.738546276210109
P 1.7268908541935688 3.333104480844717 10.476643409804135 -0.49174481975216594 0.1858629906468283 0.17143653080885313
P 4.164701381015167 6.181342673005886 3.4935545222749074 -0.08326311899571467 -0.2473483516458192 0.11479641371730552
P 6.710553061226542 3.824832683540855 10.208862880847558 1.6365405864995684 1.0902503274013546 1.2346496515867573
P 6.194776433331723 7.756745671217412 10.27847459638215 0.6942652164500173 -0.762008642543578 0.18198859529308656
P 2.51031838704182 8.37228745845512 5.755375537135557 0.42445725024910125 1.147365841467424 0.4468055360373143
P 6.965912347420302 3.9434431787254542 1.4075734532177304 0.6313402947910224 -0.10423406482042694 1.1586434712637723
Ni 5.22865157297521 2.781984916708037 0.6568021045461724 0.28717293984192477 0.19708971260058314 -0.5401818322076309
Ni 1.4429417703832839 0.7177852124868611 7.472321601549452 0.5466648688288134 1.403293707252138 -1.482302936067505
Ni 6.83770242431056 0.6852359907743001 9.315636565643821 -0.06482265290233996 -0.8120443669447306 -1.102837677148062
Ni 2.8816684945104853 1.9447498256316018 9.36045202519236 -0.05966039197511015 -1.4609622656082002 -0.1434855541218819
Ni 6.428761355930123 2.1844363914452187 2.7427759219108654 -0.06718086872187139 -1.3385001078155205 -0.26872810287317594
Ni 4.043135821143507 6.854517286256867 10.337552322122777 1.0426558654518432 1.171950987005956 0.9182746362595798
Ni 8.498258421510556 7.409280825866548 0.14007278555132283 -0.9479837332882384 0.417958529898635 0.9690464674958084
Ni 7.6508075086478735 3.7600478758156477 8.002470177485172 -0.10721525893593793 -0.45157596084276425 1.648488245779748
Ni 3.0840269732648604 8.549301271979374 12.412322274600335 -0.27970722759249894 -0.6797528817664551 -0.04565893548969556
Ni 9.326492349291744 5.078142695478451 10.022779919411024 -0.3473943465268275 -0.6994958687213373 0.8856668775268876
Ni 8.665654677878457 2.3271406349065216 5.97831431915834 0.2373462461277848 -1.1448122218076349 0.23939361557511676
Ni 3.815931231017257 2.902716531944084 11.69078431125322 -0.7609555186887152 -0.9560495410155084 -0.6302285497840824
Ni 1.0324325235032723 3.3464294657833 12.865482350822539 -0.1337364451549181 -0.00915749812955197 -1.2287050039675484
Ni 3.2526741465861804 8.181105650741067 8.00254994610249 0.325019321265737 1.2471446987299748 -0.21855585289415908
Ni 5.905542678624028 7.786522933478124 3.3645197191451577 -0.5050399941991753 -0.039290055848874274 -0.09416279662735395
Ni 3.4482522928684056 8.370021304554001 3.5074850235358697 -0.43155529474646326 0.40377503930940134 0.7309412317148122
Ni 3.34782541658639 4.4635254990324 9.486209969781092 0.25850693936579994 -0.5211615823513863 -0.7724905159115084
Ni 7.302300232502494 6.133372727226987 11.49879756567349 -0.5533960169050598 0.8219294872689263 -1.0060960640499381
Ni 0.6773398041212391 0.4974806077587398 0.44555577019160636 -1.880442631468 -1.5756326952706026 -0.25590883962132055
Ni 4.458068600438504 0.6188893497804416 1.5896897388657447 0.09396405035298655 -0.8351513852758391 -0.45033334668491476
Ni 6.062668725512055 5.519362860026435 0.43902562111014015 -1.0489671523818516 1.6710368205042254 -0.6503237778720606
Ni 7.76364384369242 8.897110572723209 11.540999696543258 0.257929212485459 -1.2029453785049413 -0.5546036640599158
Ni 0.022257257155236174 4.654897663674148 5.924848496938445 0.8343044638945114 0.7640123032371681 -0.9680964448777133
Ni 8.13154033261578 8.938572124498092 2.4915917976645283 0.2799499397309243 -0.15302383262962033 0.654443456467389
P 8.618745292125283 1.7249600910698146 3.6805122191172734 -0.4537223177618057 -1.5409333441162043 0.3345015497245594
P 1.676319363736184 3.312736289581454 1.6408604004145853 -0.3346843551593268 -0.5507356964640773 0.2306006998738351
P 4.919928894717885 0.8348565359418201 8.099492384146146 -0.6726448099667641 0.2084565596766281 0.8530817445020146
P 8.404176776151674 1.6320115226614937 12.465071992187475 -0.03865859291246245 1.7506515441140755 -0.020603020962332255
P 6.535533463135274 7.732787892174776 1.1770956303967028 -0.0544096850991321 -1.5811307422706964 1.0597246480086717
P 2.117974629833183 3.3034994462804907 6.1719589829321295 -1.2522969323548756 0.7773704697116289 -0.8939280890944152
P 6.831837618014462 3.8296822528892505 6.036940627041864 0.6836537594827581 0.2608070482538863 -1.1735707819975658
P 2.6367697747242933 8.806337512059962 10.231270610621829 -1.6528658060221535 -0.30993748723195014 -0.6558362230498576
