# total energy = -340864.42591518245 ev
CRYSTAL
PRIMVEC
9.33462914881311 0.00000000000000 0.00000000000000
0.00000000000000 9.33462914881311 0.00000000000000
0.00000000000000 0.00000000000000 13.66217331806236
PRIMCOORD
 96 1
Ni 7.761408244062086 0.735893636572342 2.509631898616093 -1.739683732248662 -0.4575964560052313 0.7801292634036887
Ni 1.121873091804766 3.6351100242694163 11.720929308869652 -3.545438645094784 0.4989979017701536 -0.2872287327805247
Ni 2.198193192462563 5.743737448278052 2.2747380864593367 0.09348993893004544 -0.06688339208611062 1.0841269881124362
Ni 4.2034022580865145 4.9578083315528465 7.622467887212099 1.3651732462313326 -0.3709651918682321 -2.5358152846178776
Ni 1.0650998761990562 2.902201602157894 7.881817494759417 -0.6197291929146553 0.4583364194950494 -1.330635103245147
Ni 6.032233502455965 2.072670431816398 1.6657739391737025 -0.5690874594983877 -1.279798480209254 -0.7621724218149518
Ni 6.2210543846118815 3.7793673859877055 11.715191312218414 -0.34134376945737344 1.250528270490227 -0.5945850895488598
Ni 4.576404711619652 2.3480513317808893 6.8668539127100265 0.8027408301556175 0.2256194446091598 -0.33637125594344647
Ni 7.374273161718189 8.22688887040117 11.927377705058754 0.5510863949352768 0.8615856682079678 -0.6094028712879828
Ni 5.31477389189121 7.927181926393851 9.923028358796408 0.2534480367856538 1.3583251129612477 -0.15304980077154934
Ni 1.1049680780819873 8.016084936165107 4.882041012179544 1.2755080803640162 -0.34571464483155945 -0.3564150619681991
Ni 6.677657778454907 5.584591352772998 3.871846492256585 0.39430386659417255 0.037881091316489604 -2.0062557080107832
Ni 0.8366936314290098 0.42974113101031375 8.690549244020241 0.5232097231296666 -0.36348199611730947 -1.1277948613140318
Ni 3.358431610827583 5.694721309648395 0.15487270219622604 -1.3656036489005319 -0.006070374563795997 -1.324560872026609
Ni 3.5199206982953193 0.6380975254351609 7.841513365686617 -2.043731079248422 1.945394610859353 -1.6094388451867703
Ni 3.11488179688997 6.235756425811979 5.946733898539664 0.45003355605630885 0.06036667401351539 -1.4818414230500543
Ni 9.122397200871104 4.593851133843768 9.463077566874427 -0.5945123273293954 -0.4071069318961118 -0.80782055867137
Ni 4.980416803798328 3.946886644004815 0.25709436110036993 -0.06974117324987988 0.18646899966194339 -1.0221988831490718
Ni 9.05788557754801 5.673998432528258 11.709944317070113 -0.030948625862714442 0.31233915469490725 -0.4592617595227962
Ni 1.632551993376149 0.965928774161066 11.642973018917669 -0.9074837162916629 0.7689493355274692 -0.192628591505436
Ni 2.9831701769957637 8.700415947225641 9.457749360450926 -0.6112296400840764 -0.6113072873995472 2.777857907780067
Ni 3.983217021370389 8.016252959493109 1.556025768638042 -0.8160761138119429 -0.055531200298085 -1.5344310242213122
Ni 8.040457653354602 5.973145298775573 7.275161801307932 0.3013014088235069 0.6387227032980226 0.621971966202245
Ni 1.4273021635934562 6.4003632794770695 7.426101824165998 -2.414909415568725 0.1380726106364267 -0.0030457288048592705
P 0.42731132699483093 4.631049631737348 6.662017607006803 -0.5302152079132223 -0.3451775413811668 0.4703339581765577
P 6.809780122039782 6.067686424664199 12.132297088963043 0.24834928210650775 -0.14030329973915837 0.0777298478823113
P 6.373712912730227 4.110270661227231 1.77509925100056 1.282362127171372 2.412044949536736 0.8675691394849123
P 2.155151216606278 7.476076629228196 13.108268057360977 -1.3685635028598044 0.22984350999283643 1.7832050525700642
P 9.134056152908514 0.409204013013911 4.770721823527073 -1.158067544155644 1.017122754177745 -0.5866560645097703
P 6.807511807111767 2.4031443141065876 5.68846430760622 -0.3633218163903614 -2.8819737018550753 -0.08499424275420846
P 5.413151550435862 7.9646231246501 5.1673212865521005 0.92420925657646 1.030315084498303 0.9681416962933521
P 4.233263737324045 4.708135000772525 11.904985796213804 -0.2742721726198567 0.12514227572800382 1.0342853819999607
Ni 3.536816377388765 3.817863397358627 2.1035372506331362 0.051473485288943605 -0.7941348336541614 0.006316429136331058
Ni 6.878314970605569 1.016195753121399 10.805536350993721 0.30212287628353773 0.4997594625265264 -0.640672885045858
Ni 3.1058832142125765 6.390207202762336 8.877734699116948 -0.06629820900660194 1.5540264298547366 0.630625785222501
Ni 4.687262769583053 7.162031694564782 12.409433832705147 3.1141841694181913 -0.47465341148751805 0.9595544688449733
Ni 8.783876868095527 5.992860035927703 2.5250293697015285 -0.019605947156385587 -0.5339978148841061 0.34390253132348514
Ni 4.986213608614368 1.8951631204125556 12.866433948294842 1.5826322665168873 -1.969572236546821 -0.7545691555463973
Ni 4.1087024434992205 6.986279293475619 3.8131671453409957 0.5918620341907419 0.1160508549496969 -0.5081150335800734
Ni 2.6996588148818854 3.7505700544941813 5.987079099981532 -0.5081757116146797 -0.2762773759753435 -0.3941076914229664
Ni 1.013955442081384 5.617075862853214 4.723505401432893 0.04128908855677405 -0.8628910172829526 -0.37585851540479137
Ni 5.164337005554214 3.712018035347259 4.990012802753059 -0.7548807732495451 0.2558774721627529 -0.9139513262938775
Ni 7.284408685125593 8.013088520149088 8.262540620214207 -0.5015265817292782 1.6986203865494487 -0.4489871170696655
Ni 8.27384205594815 1.7000693673445966 7.497227032371803 0.4040090096970784 -0.5128224663580717 -0.1796550620639035
Ni 5.859972252737489 1.2465370665522584 4.002320340301182 2.6875800480294165 1.6632049831646325 2.503620187942572
Ni 4.933015556043348 5.750019653819427 10.169411232736705 1.4827811612555044 -1.716709639950992 0.09799271189640543
Ni 4.442163407176096 7.7933233417529655 7.125178577956539 1.0821886334391426 0.1203854777693088 1.7051391615045728
Ni 5.8950704590310545 5.906262679601796 5.888957210280616 -1.3127209419688877 0.9464199883455443 1.0018691704527842
Ni 0.9056140001862664 7.446131138326664 1.4726460590433563 0.8774660868836501 0.661271535132816 -1.7402252065744286
Ni 0.2780291343063753 3.1085995913485944 5.1738788636588104 0.27127323789253277 -0.86300543137363 -0.4002379726904204
Ni 9.048597621361282 2.114172193832673 9.852954229853543 -0.3433775120579506 -0.07046056791440768 0.5659234599481092
Ni 1.8202713892707263 1.1422225837515674 3.9465645992928127 0.7455448405605999 0.348021181477549 0.25155390508673453
Ni 2.7714701183436947 4.40456352022118 10.284105823356134 1.7292234561472866 -1.5091215989222462 -0.34102135312094817
Ni 2.0517701967389264 1.8002859478679272 1.7001888506000638 0.2648297962600342 -0.06371605010172252 -0.926214974152579
Ni 6.547383691478044 8.276894479740168 3.336917157139974 -0.9321591075511558 -0.93795000320132 0.6304270389481336
Ni 8.112408976256413 2.6664275344549986 12.048028722655818 1.5519032128641466 -0.6255913081223872 0.459163543382035
P 7.936413874804579 7.902127781263019 1.7685687443189169 0.10181594229723755 1.315604948384902 0.27697208804952306
P 2.0682364828830355 8.484197927976208 7.402561755913043 -0.0775958934076083 -0.8048799879858075 -0.9586000753515039
P 2.3597382877063002 7.988659795183593 3.111587606198215 -0.6576753331411254 0.9665103313375162 -0.7490916773715938
P 8.660099683134707 9.089968698566889 9.915582124977158 -3.884053445656769 0.35805388312320274 -0.5120467645343117
P 3.701320550131188 1.7702564453023948 4.79095556607014 0.2881018794140974 1.2442864033455732 0.6917802452446344
P 5.7062495768751385 6.228326060862597 7.977425568780851 3.31591909410027 2.0035899882531627 2.7996739752138944
P 1.6340268648108256 3.422084448252005 0.25917598344171705 -0.14290525613837968 0.07602263538321745 0.6358250700352533
P 7.227607465631884 3.3295782715580584 9.727931805339647 -0.11934880897467832 -0.4447378548750082 1.13242593232814
Ni 8.378949982242178 6.977019341176891 0.0004713987813364564 -0.9382076277380809 -0.4799647963981024 -0.8231489614983243
Ni 3.4984697200871775 9.038721583526549 5.468243599298628 -1.0633028522782333 0.3273507976123911 -0.6969453343853417
Ni 5.553889756895462 0.5309481157059175 8.473648863366538 2.0645557293032573 0.5764660113506459 0.8038777719735382
Ni 6.88037792368825 0.255340384248625 6.21523704361131 -0.8080370455575503 -0.5353404449549296 -0.6378025054765983
Ni 7.540485571628623 4.217245513387939 5.9054337645169905 2.2600457015168884 2.4698875715768174 -3.1827698889073894
Ni 8.930925283984502 8.31964708208712 6.555001682477028 -0.3103329228981559 -0.20408645563339048 0.7686456882441214
Ni 7.428843404801217 3.174679432399699 3.5329695766404727 -0.7168603281417137 0.007778615504154346 0.4526326842420527
Ni 4.851878957877478 5.895145136065722 1.8312367783486656 1.7790810030993618 -1.20182309197504 1.0857614383920655
Ni 0.3905916955860544 9.293239586930902 2.5867686081126045 1.3196847748812306 0.018292370551284624 0.4292533860861639
Ni 2.9253701521633806 6.932222455005927 11.247520781837716 -1.8110351874084551 -0.66477851984481 -1.722250881484195
Ni 0.7155796162170074 8.247341043270639 11.03951443601287 1.689489113672142 -2.2718722618381717 0.7979500936351935
Ni 6.713549428241811 3.40780246537191 7.6837842669143726 -2.2253178111174 0.0016689030619906743 2.3373436040681033
Ni 4.2614449832815655 0.4481583546851024 3.0415825535124172 -3.575033585143082 -1.234164741530539 -0.9895710698117214
Ni 0.2880255888595082 9.069591202732086 13.231282603105258 -0.2557165211048564 0.3984533699861718 0.8438640825584885
Ni 5.944394640428715 8.711944214452384 0.0997134440022606 0.12873282129273958 1.023464894345689 1.0107266208434142
Ni 7.941370562980612 4.465135929965582 -0.04192928803974445 -1.1370791148294352 0.5352730820521039 0.45898305194011274
Ni 0.7662134461101429 5.417912211395894 0.24768132088057426 1.0077968487911289 -0.8395091480239026 -0.060809417977888816
Ni 7.445375033350659 6.714594906727151 10.074514457470478 0.36604075798342117 -1.2761423715139053 0.42153467728566757
Ni 3.00119534623855 2.896703505480524 12.32606812505446 2.082824445705458 -0.8865955599887441 0.42768989825378595
Ni 3.322073229574009 9.211216198978358 12.700834823531611 1.3925094721524405 0.6321985290262596 0.3187046919016189
Ni 2.109766248787311 2.1101396339606464 9.710703813441933 1.8959111594172444 0.22677361281826103 0.8796507532397948
Ni 4.821448066250609 2.919564012718009 9.801420541692668 0.5583117090391223 -0.7677085211418326 -0.16862065862661282
Ni 8.595886767950281 2.540522054006164 1.5369672559280492 1.3691409726298291 1.0787911777218195 -1.3634940587566968
Ni 1.2319470409041617 1.0157756948013963 6.233284615964496 0.5324888344387474 -0.261476306406769 1.3806687707637706
P 3.2133994748746226 3.4314004083267333 8.263524490145945 -1.8783245566837328 -3.617392252614951 1.0419608962673474
P 1.3670377966170566 5.824145945355919 10.08541637106895 -1.9721088869257457 2.429206806028003 0.22832733045862613
P 4.79332282806909 0.5683771789440322 10.7420207326205 -1.4691941665996893 0.08419617233294532 -0.03978165077331213
P 7.3726209323261775 1.087250951607203 13.305426630437482 0.33340934510164516 -0.4697917125198425 -0.003861282727619157
P 0.03685498353411083 4.030328895616035 3.1980412092323873 0.3740129775556204 -0.623751683810487 0.0010839770927981332
P 3.3814881452810694 4.987809830230378 4.0199441204826325 -0.14377120368310078 -1.2365257855635479 0.7530388349447998
P 8.354810630786018 6.80444071406108 4.878256753447785 -0.24875680195757163 -0.5805185841534648 0.3200519499581327
P 4.274933522668322 0.8859291338480026 0.9931634887041798 -0.8680915876472856 -0.2496903695154345 -1.180852917481276
