# total energy = -340888.95853953465 ev
CRYSTAL
PRIMVEC
9.07842901550738 0.00000000000000 0.00000000000000
0.00000000000000 9.07842901550738 0.00000000000000
0.00000000000000 0.00000000000000 13.28719852586183
PRIMCOORD
 96 1
Ni 6.033886862565257 2.0804399601077908 11.096444493553825 1.1998425712099015 0.3206888122111832 -0.11912306611711743
Ni 4.535365104797938 0.4023123842861578 6.1998332767717494 -0.24911444240730646 0.6523233248005927 0.09373342239941922
Ni 2.79876155392341 1.6613978473816726 4.451942515473193 0.32712402631356563 -1.334992094662262 1.7200024517696506
Ni 3.3508480394993327 4.520603579703855 4.700306536945441 0.9087623258937704 -1.0177999827504278 1.0368546853890335
Ni 5.023893510925106 4.787899756422844 2.7869232828762494 0.4737244719153454 0.10748702454008584 -0.23879146321474362
Ni 7.304131530239891 5.864456147417124 2.4086896150765833 -0.4030376469227446 -0.5320355489514127 2.405468067650167
Ni 5.07853657337362 4.457917029411948 11.560712614620162 0.44621083987610893 -1.0971344561156975 -0.8243388680413675
Ni 5.646710034636329 7.619171163582362 12.449772217319182 0.485044524913855 0.744107593893441 0.03613042717397003
Ni 1.7631034842998818 6.308618272403591 0.5847334230856582 1.1542412284310186 0.32256186086418 -1.2512108983795482
Ni 2.8622833196572954 1.7793811069897285 0.6011326967203144 -0.2630359375844051 -0.45662586456184584 -0.5859202147850102
Ni 0.5018555394839423 9.314740216655379 4.769904495019713 0.2764568389760013 -0.3913393846492099 -0.2303667294861581
Ni 8.596382309124891 2.5401171197718635 1.4448900322778966 -0.1410949424025183 -0.37286266600126106 0.01210321102143722
Ni 6.841857939962713 0.8212019794098279 4.807401129150149 0.6100921840455236 -0.5579820936138455 0.5512452891106442
Ni 0.8254243566061734 7.393308935528436 2.532008267241707 1.3563515341746446 0.17024585293486164 -0.4806363685438303
Ni 7.513089724022486 3.9423076704215263 4.096110778375961 -0.7215929577306928 0.6753506389337014 -2.263514119681463
Ni 7.287754044834156 3.468622495246894 12.713935428287884 1.5789018529401777 0.383385677019772 -0.39726217789154805
Ni 8.064195739296958 8.784042509137057 6.948314318628607 -0.27111511504811375 0.6008562672695523 -0.09882420665876529
Ni 6.942092871428745 0.41986643405363516 0.4315403855410158 0.7877168459429595 -0.05488585340460225 0.20666861453826987
Ni 1.9462153915247575 6.214347868604725 9.222191990784157 -0.07800726991341404 3.099945657221306 0.44797795907886073
Ni 9.272707091694985 4.9180844242267465 1.640397626073166 0.646861530355073 -1.5048815926989696 -0.3857235811243292
Ni 6.531620795411615 1.8979635428931156 7.087537470063302 -0.6599271052897795 -0.17211915869817454 0.12503814604997174
Ni 3.526361301887955 4.454149481494332 0.6467690500385458 0.25725584056751827 -0.47258110233952166 -0.2481474505083468
Ni 6.095674648414167 5.774570624688641 4.824807200529537 -0.7710609825538334 0.1899998956333373 0.2956832913057811
Ni 5.186760522110742 3.095825898405928 9.101345394758713 -0.000668229711618204 0.9192979353177716 -0.5664873028713792
P 0.12085295092554611 5.322256070714176 12.621934631668305 -0.47906799561544594 -0.05298143729303778 0.04637215950663627
P 4.192227734575893 6.040305311668281 12.58939391177456 -1.4915753625083665 0.01653013644453927 -0.5079849357601122
P 2.377740343736954 8.41064673600076 1.114316299557514 -0.3677389716214505 1.0216985464738855 1.3091869606737
P 6.166413764978184 7.947773969428251 5.848187603155995 1.0042027036819672 -0.8826615150416603 1.2800252515080792
P 5.198843910733266 0.7229906297048488 12.497088079950085 -1.1364481661136556 0.8436961895220566 0.8771508696360765
P 3.9553624509167853 6.115783368022649 8.190853437544247 -0.32451127128106694 0.9778653513390192 1.023510917092276
P 4.935869066083638 0.8646458921928679 3.8145814411142274 -2.337700730297206 0.2612094258986276 0.0558585017305167
P 0.06986940309291456 5.728406814661944 3.6884203329177643 -0.8041485091364216 0.7084517923630445 0.6681806035478235
Ni 1.4586129851267375 1.1446990769451935 2.5504374775375176 -0.6658450134361114 0.15738056693641927 -0.5125396450103302
Ni 1.8020862572113157 6.648932251294601 4.691722882593377 0.4875063561907862 0.17524999101767239 0.3230863659090823
Ni 6.0240276889784345 5.801597106979591 9.201544012509876 0.7171272086498552 -0.7430886657106235 0.21862115891445574
Ni 8.474159423305927 2.310814167234139 10.182458249126128 0.26524065854520773 0.9571975385770224 0.6876315131835835
Ni 2.242716873426812 5.193750912222946 6.766625001183709 0.469856761429823 0.05520261331407266 1.1860149212981896
Ni 0.6627443610521112 0.478154485632084 9.243691525672107 1.4459863610246582 0.15311304990931696 -0.006043892201234752
Ni 1.5043682658611635 1.1722611865304546 11.581321555650957 -0.42547077911528014 -0.920866308246156 -0.3731220903102348
Ni 4.083413687972158 7.007457558192211 1.1807831075672417 0.3823310105030125 -0.20458036455067344 1.1000202623039248
Ni 5.84489213353167 7.953447987376468 8.133638456240165 -1.4024136186400298 0.5890996409542565 -0.15103174190025603
Ni 5.392014716976742 2.894893035609291 4.677292720147471 -1.0747460611181685 0.007868604114799352 0.5952597470183812
Ni 0.9122459096426184 7.341825166273489 6.7920300761057755 -1.1670368375337903 -0.7432871548746748 1.094562324513147
Ni 4.872973711931238 4.818203551480684 6.855450163438028 0.33143885163883563 -0.3218838609605489 -0.33975919857907294
Ni 8.724433546180263 7.542013597915321 9.158839083824413 -0.9387398460924673 -1.1442491502153134 0.41493259858811765
Ni 4.786819423405503 0.1644194224962677 10.408354067366309 -0.679798647402726 -1.254007230177763 -0.513985119207605
Ni 8.196377661418632 7.260146543105309 5.0105091834674145 -0.024631939616067258 -0.6002980807732371 -0.10965806404947565
Ni 7.101673491418773 6.120485994098132 7.057867349329919 0.992169426666517 0.17420226647944836 -0.23848344505602154
Ni 2.5084061682628653 5.288475237457669 2.726187686915657 -0.36272274935378174 0.6497617347210035 -0.9424736021032865
Ni 2.570747738263521 5.048151072457326 11.432039505197663 -0.7327649151871123 0.5149086594631391 2.0440041304041507
Ni 0.8782181431250042 3.798360104682427 3.924560250122373 1.3426760935700812 -2.298276719973629 -3.8320323153944718
Ni 3.8870109611053776 2.7607320160272772 2.7867635025308277 -0.40427023377826504 -0.27097678969803657 -1.7541873251814755
Ni 1.0958752873043713 3.386735068218219 8.140468158164076 -0.3697958541504792 0.3904870639512436 0.2566986825124676
Ni 3.4899386458747577 2.9714514249810002 7.060432005442514 -0.11989902505119351 -1.0010677575974114 -0.25559207971185016
Ni 3.900210996460111 7.094056689725085 6.193455680597953 0.30066403234982414 -0.19059099225011691 -0.5807011324779161
Ni 0.7636129668425994 7.124160759351148 11.695524557541193 0.6984291180197197 0.22847079801502587 -0.6635999261556764
P 0.19924609074099095 5.719391934945816 8.18618984871225 -0.9491487001306169 -1.483770264641651 -1.6031990349246454
P 8.549619322802862 1.820642565509166 7.8302918390853815 0.021690340489240064 -0.282584549140294 0.9406512041825671
P 1.7025776000426562 3.067065436230003 10.614451648260133 -0.29148956493940764 0.26169562150642667 -1.3620195310936996
P 4.06433990923743 6.436578725171792 3.8989690674116044 -0.06820493911101157 0.38506383605314326 -0.05204504152169746
P 6.915692800719278 4.018412138357378 10.295200531835775 0.07794324944469802 0.21112819297152025 0.4851046887278291
P 6.63041225671162 7.787893761290557 10.397511699949419 -0.15525812127677777 -1.2724412685132345 -0.6806828497798922
P 2.255680869634899 8.677479912855175 5.941702681685594 1.8494767792141051 0.3037719818511865 -1.06364840854311
P 6.638455744555013 3.7854959711902283 1.574638935503376 0.5324507821119604 -0.5107594131814558 0.8112128721823707
Ni 5.155439943036581 2.710582775793752 0.18999880324970397 0.11605445449412272 -0.5929892058166496 0.4352000905879021
Ni 1.3705522265704015 1.3160362621239279 6.905330682181527 0.5210980761033025 0.054053587311294005 -0.18448693623490808
Ni 7.296433022687749 0.44082943380440165 9.194794200758677 -1.3053624447212873 0.8180049554035397 0.3240857537078741
Ni 2.8587427324576073 1.8496118315455854 9.140808416549284 0.42594849008264707 -0.8056510618238771 0.023860865777997616
Ni 6.291668845988675 1.7832575960519506 2.508835577941187 1.8094711853554448 1.094426056045599 -0.590776257325731
Ni 4.2367211137186365 6.611964889558374 10.420312173672537 -0.7985062232489797 1.3067230725142398 0.2978293911145064
Ni 8.446052607997638 6.961448081453705 0.6395435286225677 -0.8837123249036781 0.4536079036711285 -1.261716940117195
Ni 7.726741465451848 4.049133541136206 8.225068219693435 0.11859804685158284 -0.6266272055860691 -0.2879656109465492
Ni 3.232174819308774 8.703426062128782 12.393421502428973 0.2810475436704773 -0.3354178908912417 0.04596361121430794
Ni 0.32739809835512407 4.777232602680194 10.338117895753221 -1.1104962221345842 -0.26742558201166844 0.2178094616464378
Ni 8.486714890221743 2.5079340899695737 5.530078553064256 0.7037633857484397 -1.2673533124673657 2.4198158517314066
Ni 3.560686840867492 2.466382121731187 11.499684693254876 0.7490451404043745 -0.14492742877473105 0.4905847380057938
Ni 1.0188357412106532 3.3444749825398947 12.736323741347242 0.11444957190084805 0.551934858978501 0.6192442828584368
Ni 2.8665774164405065 8.42436424179237 8.198666333298226 0.5698533911301347 0.25679869842544156 0.46616157196642294
Ni 5.939943282200209 7.922644878739185 3.663320293200594 -2.0071640787576657 -0.29925686758965236 -0.8186770417698996
Ni 2.9871571066616665 8.412072049309351 3.4012569227941687 0.8567345107632535 0.08177599292722691 -0.021779814879252814
Ni 3.02476903683681 4.34945704152818 9.348487459725632 2.1349576760655875 -2.0525391644583557 -1.333210577281807
Ni 7.2437327439847055 5.843484977080512 11.632118087852017 0.728647550584629 0.23390482454640363 -0.7741925862042797
Ni 0.3983187834934844 -0.002672689414328376 0.26483410685089853 1.1162305535152002 -0.0527837194599349 1.0098719861526027
Ni 4.669789398812749 0.25601168982357403 1.5487027725013558 -0.4579597528819209 -0.1512322879468363 -0.21207513026582184
Ni 5.995793775668105 5.451850640651464 0.46215647854672576 -0.308967410009197 0.7511920115440482 -0.5484469004299006
Ni 8.28026234276508 8.812421677306862 11.448063839726302 -0.6775728433960008 0.8723861012575815 -0.2250481454867221
Ni 0.14503153012792644 4.747382729058212 5.730967839403052 -1.3891726944697236 2.2093481751620208 2.809970986264528
Ni 8.045712058428844 8.485425753343907 2.972332940409435 -0.45589772814656965 2.0170160318510812 -1.129492560731429
P 8.543518618704939 1.8070975498631814 3.5132947194353643 -0.33989083906093076 -1.3312794216973654 -0.5732225647126838
P 1.911408695823212 3.396939222096293 1.7136632693491654 -0.45261237252707853 -0.7777911021888153 0.23259227638256716
P 4.903486310849572 1.082303036372235 8.449608628526144 -0.3727814191413644 -0.20624463962697384 -1.1050863639729227
P 8.64454337346936 1.6932812890362965 12.526067332258094 -1.1917788203651605 -0.565695145987387 0.04700465088431259
P 6.475979105804215 7.5248281323537585 1.4629733544395835 -0.9962109437257425 1.3204890159500806 -0.8509587846217409
P 1.828540798493085 3.1266471639006452 5.650021845432345 0.04518585250801895 0.726228399620175 2.2686794659324865
P 6.638728097416527 3.857596852061818 6.148212423243175 1.2876241469012597 1.3912781708485007 -0.006288661222189169
P 2.2061671194115737 8.249295822410888 10.438516238936161 0.0736821601754989 0.25135361615047036 -0.9011066091207254
