# total energy = -381166.13047817274 ev
CRYSTAL
PRIMVEC
9.25815910269587 0.00000000000000 0.00000000000000

0.00000000000000 9.25815910269587 0.00000000000000

0.00000000000000 0.00000000000000 13.55025167585711

PRIMCOORD
 96 1
Ni 3.5194706250117784 1.2606927682862434 12.833456317112223 0.2289325681427928 0.26179280920592335 -0.08221822267096808
Ni 1.537835757752787 6.482674025065888 0.8347239471853711 -0.22390657568311115 -0.8824038905048995 -0.10497634230309019
Ni 8.396428070585488 6.894551002362952 10.64716429040938 -1.6972335335042512 -0.4729009475727856 -1.1842084642170703
Ni 1.5449737983366756 0.892026396458938 0.5995944832307426 -0.09033802356462507 -0.20801458704320305 2.0895244834334528
Ni 4.881123617120727 5.826640878795661 6.364092747231102 -0.819023626476041 1.35387864715412 0.059747552372277746
Ni 3.4721429162376687 1.0301831256693068 5.79994127407468 1.2983093945292479 2.325721189337827 1.7097653474226748
Ni 7.3930658315199755 5.628997700605189 1.0475810580496485 -1.4730472217971922 0.1326190437210232 1.1652337228867804
Ni 4.844498340142953 0.4389052466623089 3.7111561778900164 0.08082648452976403 0.018205467264433162 0.48866849481968744
Ni 6.881746968475121 8.586016650451729 3.882620985710834 1.0927820926842728 -2.1119375610213305 -1.846675305209568
Ni 8.558510660082424 2.7298792771031892 11.488607809392143 -1.73004672337953 -0.295535195763691 0.9966799129423609
Ni 2.53040298343203 4.545746807585883 9.110565422698109 -1.328346050100654 -0.4592985262980025 -0.24690483635049734
Ni 7.345321505591165 4.7574346129692975 9.498455435859249 1.659825010948806 0.8259699758868871 -0.3459180190916171
Ni 2.657434182980065 8.797926651650984 7.945433519909637 1.285448736516496 0.2923614260213997 0.4682917309355484
Ni 2.771948351569064 3.052303922206307 3.8454124447164784 1.6195648778771785 0.6987145104706224 0.701558664787637
Ni 2.0455439387902277 5.867710072090253 3.2550279780523406 -0.04272864921677803 -1.1991483733563542 -0.1257248877043512
Ni 1.0123519114480755 5.306924865543818 11.20108549787813 -0.2902209826396292 -2.5661057080713032 -0.17255881733875442
Ni 6.054215685011699 2.043275689836852 6.689623504676497 -1.1673307146251253 1.1009587149577942 0.09607646871029905
Ni 7.905653062346922 2.6298541273388145 5.5221742846919835 1.0184473865264396 -0.2774567409954254 1.2510265502828841
Ni 4.38938576034685 8.480529186881265 11.802390888890848 2.165310834436148 -0.21750350037024477 -0.8974039634581576
Ni 1.673199300394856 7.203773512741524 9.430785700144908 -1.1440594028020104 -0.6648636233594485 0.3794081804292627
Ni 6.401859555212758 4.419845103435039 5.102469533966025 0.41093196206915683 -1.7618669532139204 -1.3232035866677663
Ni 1.7899076526652835 3.631133280630819 6.9321465344032305 0.47710521546212026 1.0030729609528983 0.43402381089161385
Ni 0.7478453831915831 7.417090754107772 3.984506099616976 -0.8605595409362985 1.5315087083681949 0.782973160610387
Ni 0.9222552113881919 1.07680721435992 9.708199953669954 -0.9953311122239503 -0.32784984873599665 -0.14063960003265455
P 0.7362893491360581 8.305559240065557 1.6383201122032323 0.9203400034290408 0.4548080946268167 -0.5364339351294245
Ni 5.72599543237873 5.894364311832165 10.840878305923068 -0.8588353591563403 1.069006844641546 -0.6095458246237502
P 0.505514923171911 5.193160607833283 8.77247319513051 -0.02473144130840902 1.531423861963872 0.5791469006169188
Ni 6.510078175686266 5.867682297613272 3.255163147173644 0.6361734545136076 -0.6526146307887664 -0.5010416716730597
P 5.182726662647755 0.06887051893578322 0.1140558897188269 -1.5078684432414353 -1.8710524485023516 3.369484686031552
P 2.743683192162304 3.070875789147008 1.4735082174350507 -0.5548224649389413 0.043803884558827784 -0.26369156889053297
P 0.9062404479614596 7.255869173397219 11.597483759154178 0.9252862916907226 2.462760216503417 0.6682711063791006
Ni 6.598493594072952 7.306974211040624 12.69646333848732 -1.7646846251683739 0.8723483060411105 -0.4930571108056863
Ni 3.9315420236477028 4.11233535247024 10.882667783987344 0.6011205766745326 -0.09531645061582293 0.8824918222330157
Ni 2.8475967687038937 8.08507618363844 2.081128598697146 0.630205924076263 -1.2057239696913429 -0.019775897075346584
Ni 4.885474951847611 1.6705884995587255 10.452433729038225 -0.697603793904947 -0.42645242630225916 0.5930264868124883
Ni 5.27467869776991 0.4253170467077391 8.260883993843049 -0.4656141841033852 -1.1504002574183736 0.4036066320523372
Ni 6.188468248574563 -0.010908888741888367 5.764575106720005 -0.7119168680935094 -0.19299163127180957 2.3272504814981594
Ni 4.291712182966792 4.95953096563558 4.2401720118506985 -1.0649463014189273 0.5429416543409553 -0.43671087080547366
Ni 3.032130393759753 6.408775399980806 11.46662893994188 1.1354361799093735 0.26178123924169755 -1.0169777439594485
Ni 7.621483130204411 0.14629557678144073 7.846273082195243 0.3636953976796962 -0.04350152282706057 0.0644830101747341
Ni 4.172726323583995 3.8203422759783305 7.0479327740379185 -0.6596741087387091 -1.8425306869135751 -2.3033960434780654
Ni 4.505733044416536 5.273419588146812 8.604328363124715 1.8544323234471674 3.701334142845245 1.6490484891585924
Ni 8.423721123297945 0.3532422789443504 0.49254609405399774 -0.04848354942268424 -0.7042202707802001 1.1487758344410732
Ni 9.039934927737686 4.686563405875047 13.357756970697581 4.0620953975972816 -1.0500133342581788 -0.21142155584222297
Ni 2.980747611346547 0.0515818328315633 10.32122617396828 -0.28739096939000186 0.15915719922086782 -0.5427750468561039
Ni 6.344745972382656 0.8302744759731574 12.311880339718615 2.127056676050956 0.9133471170509755 -1.863421157209339
Ni 1.722110154356832 5.480043180560852 5.508394440846251 0.1932474560363575 1.7321581132955781 -0.4299650674412078
Ni 9.24656777831072 7.098267532853075 6.711981958645485 -0.34801732482280706 0.538988326120162 0.2172078235066969
Ni 1.1405774135062556 1.04510727796662 12.01288068850052 -0.5140414263668373 -3.0148531983263367 -2.4914650406372765
Ni 8.627446911947061 5.375203788119926 4.098801775653731 -0.16388674348605323 1.5505333290998136 -0.00303852971600767
Ni 8.081900635103715 2.5705833934632576 8.09661370137598 0.4891989134018607 0.8849130300799986 -1.2039244545887589
Ni 0.3716012082282039 4.342280247388581 2.087199173549099 -0.01699550611673202 -0.2791557259644031 0.39524540457183543
Ni 8.704456278453915 7.05628178181814 13.172362336855338 1.5994369967790518 0.018128591279910716 1.046793027548668
Ni 6.638544389878273 1.1059796733480305 1.7021828929395015 -0.9702710839315289 -1.729080502811519 -1.8615360243714842
Ni 1.647757879481074 8.50050829398896 5.983018590720882 -0.48149768810286103 0.03934122080178386 -0.5590195337394244
Ni 6.434290886166535 8.42351744380009 10.163935607566312 -0.03854880680747554 0.5494617148476602 0.8921995364390828
P 5.050621991971353 7.204791910230795 3.7192459572184235 -2.162879085066204 1.5756391230285058 1.3506621970993513
Ni 5.238960720373487 2.874426913466681 12.614471230810235 0.34007518715759494 1.9057685118272987 0.7835984528992118
P 4.929256785727259 2.7638844950858386 4.706815628673045 -0.3855646869489618 -0.7163237389119534 0.333358951479684
Ni 4.145711015641341 8.112313687396936 5.861662642635783 -0.13512869751675438 -1.4303784792840721 -0.5326996648979729
P 0.33563603798665786 8.689782096449424 8.357469737541386 0.4625311743026873 -0.246744142402917 -0.9451367507577466
P 1.4869436577662298 1.7692804744280541 5.263608717061537 -0.7649224737562633 -0.2769237513100908 -0.30747205641059305
P 5.19331799653617 4.745112003349122 0.5326561420768757 1.1086190597165293 -0.025299655107053204 -1.2961339841444839
Ni 2.298384260899174 8.324658822068882 12.754296280271207 -0.5236131292156725 0.06961107542991883 0.686650637327553
Ni 8.50825737306641 0.12867359695345945 5.609126913957719 1.0346569064067663 0.1952212919332767 -0.5967250187099982
Ni 8.876898747864432 0.21566418467106727 3.0555544618288795 0.05129762183271166 1.0381914019225862 0.7335259617228528
Ni 1.1577975892339247 1.9654423471795868 2.7339797157213526 -0.8245656393401929 0.16417547837106564 0.07252182131881059
Ni 3.426861260601094 1.904144076484481 8.291764583165437 -0.2682586194359251 0.39922778625835115 0.44238529548243166
Ni 3.5422086634994963 5.080933204515647 1.8203540343308815 0.9624086504643167 0.15470302010425613 1.489044882777029
Ni 4.235579964989987 6.935786842519424 13.443624543729292 0.24088948339435287 -1.0634905428090071 1.225884760909934
Ni 6.460343345573879 7.310251599324277 8.069879841466724 -0.5750758158713386 -0.8871540035953754 -0.5313434079803946
Ni 5.258652824552386 2.921402812199043 1.9507894589407793 -1.3543422170540997 1.0334626289883493 0.6484180762089156
Ni 6.829355046731638 6.585513655164247 5.690292268036697 1.705136847511728 1.5771126222502385 -0.23501219867796944
Ni 7.269543474230428 3.3371589581143284 0.6269745626377362 0.2849749037493414 -1.8948696055266077 0.7369038770561502
Ni 6.926723104864915 1.683549922149444 3.741983069890242 -0.25775669146333674 1.6884827838948147 1.1750419672264536
Ni 8.355238521223983 8.993801521473722 11.897188882087564 0.26254665665281235 0.016571531205435978 -2.2191643899214943
Ni 0.49963414057932215 3.390624826301042 9.853430842167159 0.7711782248579879 -0.419909997198051 -1.5692005664920137
Ni 0.4898964089500951 3.742777419931873 4.964988650362172 1.0400654790168475 -2.384293233344765 -0.8164252696212455
Ni 2.681403556613901 6.394230832202221 7.341607132203024 0.38209883988754834 0.10816836687782662 0.11909889774740133
Ni 8.17887985055927 7.445207782970638 2.19312177059225 -0.0763774476194749 -0.7261011300136915 0.032601588085105146
Ni 6.676206580663304 4.478236312206226 7.244953803944036 -0.8948416020476202 0.19686834061839642 1.2026065071082837
Ni 1.5987637020881578 3.07049620462828 12.404496184840593 1.8297816147780228 3.1312748063518914 -0.1813170231473587
Ni 5.82977013653542 7.508209554920524 1.6512065437061045 -0.8379472028534214 1.4255792581232158 -0.3024519774881823
Ni 2.509988742851648 0.12438151444413292 4.032771659897114 -1.7989872551049857 -0.32419502559222874 -1.0750476515189873
Ni 7.3055484545556455 1.5015993234527352 9.84858049267053 -0.4146397499380472 -0.9309581452645193 1.0206947877997194
Ni 8.85367928510906 4.8306851669248445 6.968217247657301 0.21238160576264714 -0.4351270712581216 -1.1123479306313424
Ni 3.3709049476451636 1.04595902859401 2.0512099320941704 1.3646510551792757 1.272540255984944 -1.1758212685946396
Ni 1.1766842335804002 1.6227515920399804 7.463315816145771 -1.1666632562444552 -1.9490427491349012 -0.8678229073669314
P 9.183815976653657 2.2220970307938015 13.408244489136129 -0.7575994577322889 0.8204883839470257 1.6879505655404283
Ni 5.4921250780472 3.2728147531104037 8.898219362210266 0.9303169121360946 -1.245521561304255 0.18914423250126136
P 7.475352348653052 3.886389982237035 2.828723085780009 0.5721457867087373 -0.6850082166281234 0.037260427013355184
Ni 2.9274298737037268 4.881484685321468 13.270018323733309 -0.12755448471392225 -1.1579089070905928 -1.7881037754232625
P 4.489781236470959 7.61137322058365 9.34010666188434 -0.02655923854576716 -0.048583051115026005 0.13748305668154387
P 6.55368410454504 3.3905785355060756 10.880133825870857 -1.2656440430857427 -0.6067098978368518 0.5042205836216735
P 2.648981483819118 2.4965181215162944 10.269871166032054 -0.4447100869608664 -0.5790358289603512 0.3869983340716948
Ni 7.135318685144544 4.9344135802865665 12.458724925328362 -2.3253339812017373 0.09224501077935081 -2.4862097057756087
