# total energy = -340893.48941413517 ev
CRYSTAL
PRIMVEC
9.08717264052274 0.00000000000000 0.00000000000000
0.00000000000000 9.08717264052274 0.00000000000000
0.00000000000000 0.00000000000000 13.29999570489552
PRIMCOORD
 96 1
Ni 6.668358261604116 1.9236090957459733 11.505866561674793 -0.494933759003109 -0.214762704400314 0.4390315485188504
Ni 4.647298324307625 0.47143616598767063 5.967641820222057 -0.63063581252483 -0.9614771397889829 0.06947223585920939
Ni 2.796731923860334 1.8871240967879976 4.6540146537546585 0.11159333339897556 -1.5458708906271377 -0.08545601288197541
Ni 3.3858079033001247 4.4088963448151 4.788331246805204 0.8291532587108753 0.3696487870496537 -0.07975459162182394
Ni 5.1640494951032005 4.718069226395972 3.0085784581586137 0.7633397026501757 -0.5512391184630571 -1.209149450433124
Ni 7.281951433369839 6.162075513921764 2.5440367302056672 -0.6590678426132778 0.17769228191057784 0.04249107928467521
Ni 5.047679159697015 4.645798940788804 11.588392630550697 -0.7458860259501026 -0.3480294090076651 -0.605980475869995
Ni 5.371455128033919 7.872617668056865 12.65251238359617 0.4997481496726167 0.030680202692676194 -0.4498731192190446
Ni 1.9032901772727393 6.345182046674742 0.4053933199286722 -0.7465156891143013 0.5361135756755283 -0.5402211700859987
Ni 2.7876810997103605 1.6876606529206097 0.37157086261320904 -0.3672808010381094 -0.31386124776638846 0.335688370943809
Ni 0.6031556450401614 -0.12235514743949108 4.6254991053785375 0.18107971032557202 -0.05057308496186129 0.493644350767724
Ni 8.70640212494107 2.4203503119449197 1.3749537698217416 -0.3163500756265133 0.30629783359683377 0.03620267517280217
Ni 6.761074686104297 0.8874896483765174 4.819878276041196 0.04894403399887055 -0.858964942755669 -0.005160204044700791
Ni 0.8504748672418919 7.392206101453803 2.5459250447220976 -0.1386698779007934 -0.07499008035364504 -0.09018298604399952
Ni 7.522043627010853 3.951402628117896 4.02574933271931 0.051727510281278664 0.19860486369352892 -0.4904443557731876
Ni 7.47233679156873 3.7972387408645827 12.929923778661994 1.283359715197951 0.27196512175323484 -1.7650643771052956
Ni 8.055815072538255 9.128792092952182 6.761239163932725 0.784956766699319 -1.021422924214996 0.5456713945672925
Ni 7.0020119868195545 0.6236063275195944 0.34893471506543394 -0.20636085348986394 1.198330248330433 -0.28735728793858895
Ni 2.2113180750756025 6.341247300834442 9.10214486731224 -1.9003121166984174 0.9775660749310455 1.1470087152383213
Ni -0.04302867212102359 5.020063241432186 1.4621215665850003 0.5232218073145247 -0.7215759884498283 0.09362157941190329
Ni 6.534204328947431 1.9037354487419649 7.094311310086318 -0.984657434560188 0.5396071906510835 0.7326001074744738
Ni 3.228399895342453 4.19882817024187 0.3549168009468873 -0.6993937959258342 0.3662127647849112 0.19293403856099675
Ni 5.957968524732451 5.57718872116183 5.037812307425889 0.2683097843888347 0.748876218926678 0.29122962640980166
Ni 5.713832539177042 2.8101173294556263 9.344338015314172 -1.586698466166461 -0.4180965981383961 -0.5057976983008063
P 0.016484131534188675 5.400406860706424 12.564679405780925 0.7905936532701223 1.3880090131789258 0.09108441481234636
P 3.85376095593771 6.144255567979898 12.691760791815197 0.26284413328857315 0.07711484000613171 -0.2085339498817828
P 2.3941519926433403 8.421055810550188 1.374474875813003 0.2400163367607802 0.1640160699750659 -0.6561316428030893
P 6.528524845921594 7.943752057058865 5.798027012986615 -0.8482066757979004 -0.7421198740394509 -0.09449369760421146
P 4.775327502469248 1.0647803905110385 12.672768600576797 0.3312568175350166 1.0476031821547893 0.24619238366450505
P 4.201508886230065 6.296229446578449 8.217069680759666 0.09218870362011865 0.15513830786946187 0.18023818826088311
P 4.761705830380081 1.0402086751480581 3.6813990963523313 -0.40096148112000624 0.10203345762468234 0.2322618896263419
P 0.3955628163489119 5.6047773779081345 3.7258344628291944 -0.8590667584408559 -1.5541670691976588 -0.6540027693855447
Ni 1.0462062092233417 0.940976747720638 2.4544081270369738 2.103148759085107 0.15869080110741057 -0.3946175411798494
Ni 1.8737841270569122 6.602730699343967 4.936585745559795 0.5646605340752856 -0.002929000721336891 -0.27082586594246905
Ni 6.111714402035063 5.626559331208823 9.406781432210716 -1.0975823422863935 1.0485305790650652 -0.851810848209391
Ni 8.813803420752853 2.4082916335844633 10.353647576649823 0.4257271181004604 0.8026199883070371 -0.5262500526178872
Ni 2.3767318823064936 5.283073284979057 7.053080989470595 -0.03160914226484879 -0.7142964240692795 -0.7982809946120509
Ni 0.5076103836344723 0.2671065410637459 9.071382061092455 0.4824464251693756 -1.319985593951101 1.1518850694940161
Ni 1.688923769945556 1.1468375612683284 11.54954405793669 -0.381012291691589 -0.1767234902394053 -1.0610886182357337
Ni 4.242364815324724 6.749852027645243 1.607184650237713 -0.7631119029100858 1.5274610206613821 0.789753416757014
Ni 5.918466584391151 8.082958457815336 7.9197755515169925 -1.0112963773039552 0.19619471159013954 0.6803588907815702
Ni 5.18705821673747 2.8213672494332034 4.9369846724475295 0.5260929582147327 0.6371746420846124 0.2820813842516303
Ni 1.0549389823238684 7.565216785180055 7.220753867869843 -1.3997155029825765 -0.5556079369547141 0.16425929633412356
Ni 4.95648938023418 4.580598475652198 7.237073521575604 1.067691211153916 -0.590868302818905 -0.5759047395305372
Ni 8.264974529827352 7.355321266890809 9.131737245670061 -0.6016347973067896 -0.19160477822661193 0.3577103837408549
Ni 4.755853691070259 0.4745494314031133 10.640009836964367 0.04145543893130925 -0.5945742909155826 -1.2368695420562117
Ni 8.187751735021655 6.9791759214692695 4.679324247552356 -0.2667118437740955 0.5908119956596729 0.674545883644219
Ni 7.287849008543868 6.221632844723898 7.11584336613387 -0.05237491405729044 -0.5148022157922618 -0.5686930522734464
Ni 2.3406921548177433 5.373590613651633 2.600215450145392 -0.03311683715862684 -1.283567717443699 0.4461583893716188
Ni 2.306269944094752 5.0930059778296135 11.379968325544466 -0.17468949052851207 0.19021843940204658 0.3454801602232502
Ni 0.8382953294826454 3.2852855973292345 3.974225062708919 0.2561464095534234 0.47995965419177994 -1.9902261653517468
Ni 3.985852100359412 2.769615800101779 2.547734300834808 -0.5958220472797545 -0.41221262855379337 -0.4438215137083259
Ni 1.205404390230757 3.2615499018676575 8.155131510673101 -0.5204283037297875 0.4633230740763633 -0.47437341835325403
Ni 3.7218242934543118 2.5178465893596447 7.036642293800613 -0.5551340826420891 0.30782635442621825 0.12250406677420836
Ni 4.132655377611241 6.893538404612492 6.069785277827842 0.43147944720320525 0.6863986692177468 -0.46664725335358986
Ni 0.7997157371847413 7.271074087478757 11.08796747448187 0.548663644426397 -0.6580908234119892 0.6498170134389711
P 0.1182422930115011 5.638908799100203 8.105003939128423 1.5055181978417038 0.3733555464772796 -0.13245834977344284
P 8.549230383477273 1.808556400401782 8.098740150888888 -0.49590743577028784 0.6316174597118089 -0.527981176376381
P 1.8496304216446335 3.258941883262193 10.282852139194807 0.09641585432758878 -0.2781208569419855 0.45842178012000406
P 4.005480393696704 6.292540054404865 3.8732783857663375 -0.3825153585996767 0.7288303560193964 -0.1053100714934251
P 6.948343144018607 3.9578272593167227 10.617945272588313 0.5494282905065634 0.12760179301208993 0.6245114447946469
P 6.348553387798878 7.6352607134410935 10.420081171141002 -0.033197569797891215 1.5333537319967334 -0.582396517902468
P 2.4230673766244806 8.530174582028986 5.827433104301187 0.6593329233492063 0.7428204996509014 -0.8060261857751087
P 6.874046418867821 3.889019186562105 1.5977821524987796 -0.2379648535483902 0.8502725571879937 2.021772829809776
Ni 5.255775417763675 3.156820234871227 0.2845330124215814 0.12528162951934552 -2.0378465954431872 0.09087024191901125
Ni 1.2895697850872376 0.9599962004775602 6.901075305767099 0.8432899552225736 1.1052216039992062 -0.193604325155144
Ni 7.183101167201755 0.656535515744754 9.398907396943695 -1.1809300505761147 -0.46528816822253416 -0.2955300535573685
Ni 2.649819600534409 1.4062854330613939 9.091969959881792 0.5141550691265661 0.417830488961203 0.6816187313306002
Ni 6.520955230944759 1.9787773220657414 2.7000852971062743 -0.13192536008810826 0.19618828383223633 -1.2501127802193632
Ni 4.149094073281223 7.076817593649456 10.358090295451955 0.5796786047506726 -0.18690917252315553 0.10221420617692073
Ni 7.966678994137563 7.369433646313408 0.24847147571801229 0.2734396494162323 -1.4097068098673333 0.14093347712398954
Ni 7.655516021704438 4.1040035216424995 8.494601026506995 0.7417612051484516 -1.2825845275948236 -1.3154473397611153
Ni 2.9249337583059427 8.15568310206457 12.231514570464352 0.06357592497943244 0.6233711605426168 0.8277394090824841
Ni -0.127845617270228 5.126410425194375 10.36435408369149 0.644038201973665 -0.9168844407802725 -0.497509233039769
Ni 8.559235360775586 2.357548860438427 5.777371869118252 0.466547494550932 -0.11985248808397424 0.2906241316153188
Ni 3.62923508937391 2.664068287549628 11.455007472716389 0.3844007485478476 0.11454136028370596 -0.19935691136820508
Ni 0.8173112299574258 3.279460719537936 12.6279343072122 0.8094976892634768 0.3357418498895637 0.020946520344680055
Ni 3.261268199509576 8.374393178009914 7.8763643094193485 0.394962583224094 0.1721834362772067 1.0087602411456627
Ni 5.567265528419087 7.983244910227324 3.703423677167885 0.06028028494729618 -0.4193456400541488 -0.0409396756371553
Ni 3.0815602693992585 8.576073892050587 3.438248160332923 0.08186469598629126 -0.1341863882081431 0.9534277871219451
Ni 3.618693968877957 4.417192933619243 9.29101811995033 0.10618784611268808 -1.1259210413300869 0.3741644155318201
Ni 7.036715899900628 6.012473387434802 11.598620243583625 1.0567210852956577 0.17664584292393448 1.2416345675450229
Ni 0.7010990113586798 8.82511695094032 0.09369329558062421 0.13617436517244935 0.1564770812855434 0.22887163299787033
Ni 4.480721358953043 0.2611707997637834 1.3722267092520557 0.22955297533561114 -0.024956669945337663 0.9198311821134223
Ni 5.80286865867648 5.570645956716065 0.4705329010072415 1.0015999759517975 -0.15490253770957194 -0.0433318300184157
Ni 8.13735427444359 8.672715975218226 11.437025775097947 -1.066664055440982 -0.006825250451949536 -0.3007879595221981
Ni 0.09041827848860569 4.7848690339526545 5.987405512434684 -0.35877122090520147 0.1926699862663327 0.034347110021302134
Ni 8.033560586249818 8.709010143546534 2.5685484702278942 -0.9194100354156036 0.3547646708489696 0.06418321954612817
P 8.46932687268338 1.4847349962006722 3.659560802580026 0.015189306145928679 1.0473157328213576 0.12709220036552307
P 1.9167755417692864 3.1606186731189068 1.844882373835034 -0.7444258964648082 -0.10062989240893637 -0.23712153171148836
P 4.691798209711662 1.0009793499919983 8.346784529483358 1.090823426296005 0.26090063640895717 -0.5510568272489219
P 8.732136998427741 1.398334156825222 12.360085344127318 -0.44043974172028666 1.1257901721791774 1.1678084255924919
P 6.278327716081011 8.032342905089077 1.4225941821597448 -0.16951668807832096 -1.9749239877770375 1.1446119328713706
P 1.9025177675812255 3.400947133253795 5.863356515977568 -0.9258375362085023 -0.43816560097412927 2.126320826326196
P 6.903552469083649 3.919543000136162 6.239214706737321 -0.14022539531337141 0.6362212770324076 -0.612736563646906
P 2.321145646036024 8.520405871224545 10.145303238764598 0.3574062222368748 -0.17897089151268533 -0.4059105975951655
