# total energy = -381175.7321224547 ev
CRYSTAL
PRIMVEC
9.13737364332634 0.00000000000000 0.00000000000000

0.00000000000000 9.13737364332634 0.00000000000000

0.00000000000000 0.00000000000000 13.37346994689951

PRIMCOORD
 96 1
Ni 8.437185952042086 5.879534523719069 11.432270874683322 -0.023261798741418004 -0.47381188942282915 -0.34348292728756336
Ni 2.329938936690898 2.756763940066345 12.505063430210841 0.37106495067088996 -0.01635015922324926 -0.3714578152339345
Ni 8.625169142537954 1.0430494901805538 11.683224276490245 -0.0001977178331028853 0.34778643975892365 -0.27314525810426504
Ni 0.28598974777675495 6.5386132934885275 4.591433461447301 0.5501057761895622 -0.46718255703176964 -1.329227681374659
Ni 7.8885963058557715 3.3889605562150953 10.668097686802392 -0.6414491010902501 -0.4204393873389598 -0.9810105818362201
Ni 1.3041499455550483 0.647154497004325 2.254339047359946 -1.7252747559121837 -0.8414027655021897 -0.5946719928357114
Ni 2.2582653768673624 7.491659652070174 3.2551025992244162 -0.15905358376346804 1.6572806472603971 -0.03490889606204311
Ni 4.76172304138194 6.783376124568723 3.2103687584763176 0.29055599738154475 0.13418073178118828 -1.0096539566045257
Ni 8.139060858166191 7.483189306588734 6.41861033633982 0.8435758618941085 -0.700740796872032 -0.4592357913808672
Ni 6.1884508560130636 1.7899566965925204 7.497488382795752 -0.03614148291756356 -0.6084500204564101 0.05547489313885284
Ni 2.9633782356718767 5.510521684163549 4.639685191095459 -0.08314536247092777 0.36807912856968866 0.25438391833636187
Ni 0.1931156533404491 1.701534330655198 4.534810069954381 0.9264813404400882 1.205946113004478 -0.7534013604905412
Ni 1.4987029077889502 4.805271764752539 11.423457877685642 0.29903009629082694 -0.06680831587380107 -0.0822048529345294
Ni 6.7519435588123535 6.966845452423999 4.489192645163072 -0.25501923792751563 -1.0876432287958107 2.7890427207522936
Ni 5.062744682741777 8.558749572630092 7.308534803205893 0.41849280513555026 -0.8143056521750813 0.09565532201248042
Ni 5.298653398642344 7.846939018854815 0.23704723267185884 0.7885560540148032 0.15527791877111966 2.167635883024899
Ni 4.22182303764746 3.525664805134004 5.059183848185016 -0.01180059217935387 -0.14858893678671828 -0.45392852023534075
Ni 0.7823428556153903 3.491527576742784 7.103639247605817 -0.6611005567725905 0.4761256251576703 -0.07216880885476604
Ni 0.31144007492827136 7.295196978719098 1.4444013229700683 -0.037481798995541896 0.8615609856176195 1.8797234939137886
Ni 4.718274829122772 6.1318905123991305 8.462638106668354 0.8765759709692129 0.6477855848312393 -0.17349649866167538
Ni 1.6592008779955292 5.412221817184762 2.4826509507111396 -0.1484493258850605 -0.25124305871453506 0.07415498604685938
Ni 8.780842579395882 4.971334395582847 1.173483673220968 0.14725067759126897 -0.4811097086358231 -0.5722620005716273
Ni 3.2364303759328052 4.7023666613954935 7.206749028135229 -0.8799526007509296 0.12264907699250491 -1.9950588108536995
Ni 8.370172452839405 8.117176847995697 10.547709132480742 -1.139801913077237 0.015954980667359616 -1.2224834485378686
P 2.375214623703343 1.2068186401954992 10.838061062493571 1.8606086274612086 -1.4200475296717092 0.6803187815722542
Ni 9.0422902549735 2.2003527019360045 0.2784102962375373 0.9315605547352085 0.5829696167971186 0.8452812746209895
P 1.3449757315432633 8.380854042772311 5.373099237666602 0.026262019020322516 -0.21241888675848578 -0.22767092782154985
Ni 1.2884245253030973 2.9289577486938994 10.219416999115124 -0.516612272417807 -1.551300032062509 0.8266580030928473
P 2.2068859241789704 4.189659481989779 0.7735993026583349 0.4587683648261454 0.47686790264033363 0.06770460243582532
P 5.144816573911461 6.4533433215006095 6.1892019481366605 -0.49957382887828156 0.15486294272088813 -0.12552562720935154
P 8.41807970349657 3.9602839883321788 12.613348619241535 0.31215069283318503 0.4811639589125262 0.7602654346002262
Ni 6.618638412934541 5.402289491900701 9.778253628825464 -0.5856255663627269 1.1911159899701809 2.1780197973623845
Ni 6.191219480264279 4.239988136695037 4.165688495651041 0.5622922909534253 -0.1125605824082513 0.1284371444291917
Ni 7.108502157924288 7.654131295010293 2.518531590016986 0.18021736232527674 0.37386205380005294 -2.841817955571796
Ni 6.774942328582348 3.574778189128332 1.6892162370807324 -0.3499898751681456 1.2031973466147472 -0.14430342203748697
Ni 0.7097217501322801 7.853079334025827 8.190648642976457 0.8892664219526879 1.1401125023391203 0.5648281700014014
Ni 7.999980892068023 6.669149815115126 8.570268145999998 -0.3130454367333125 -0.1510307134589915 0.16219675737814002
Ni 6.430015606275024 9.142947564384013 12.065852716695057 0.4967335312160091 -0.03598901650009931 0.038914931897642654
Ni 8.395885022618018 4.566009632679707 3.5235613816929816 0.8043760517661953 -0.2373539594372686 -0.28795584075453634
Ni 4.414310953410158 8.720609011527863 10.928130896920974 0.2938866044166745 0.5683976325202147 -0.9603923913652364
Ni 0.419388094866985 1.0146962193834563 6.802214648062883 -1.1806623987370248 -0.8688876011860198 0.2219185987188049
Ni 7.631954888879274 2.4656472118692707 6.0163100441533555 0.5738699684886955 1.0208585670710935 -1.2995486662529878
Ni 7.9098498372363855 1.7823726763664194 2.4797754191868577 0.8192951349698728 -1.339762262357396 0.7317400734670236
Ni 6.9965419171647545 0.07110156022576004 5.70337052619002 -0.6585178836470788 1.4867573722944332 -0.6499800213793967
Ni 0.7079719430560172 0.7406152108364329 9.623870389143352 -2.00454052509189 -1.9278928545301637 -0.5669454734547204
Ni 5.673952751349138 4.282924656023287 6.719005153859284 0.421585585128261 1.1626762465722493 -0.459963156465195
Ni 3.1705224989558594 3.971769667156526 9.365079861857 0.9601831035679076 0.1629611463479903 1.0524036888672261
Ni 1.6327481809418403 0.4397041316991688 12.975100901602284 -0.3850707780316787 0.29389663171900354 0.3845269897130668
Ni 4.731697631185594 3.0955686219501906 0.3982295921735404 -0.04517351121284478 0.8049746045821428 -1.3717966650851214
Ni 6.796661866025049 2.2916076537409062 12.821426722124441 1.248544664401295 0.4262943034578401 -0.03870461565904947
Ni 3.8647161961095424 7.942022530267833 4.993225715652356 -0.1303983819206206 0.07681479226720964 1.0924272804480153
Ni 7.5387445390883645 9.032467578174634 8.047793114038017 0.5726263258895815 -0.640105185467846 0.030124844409838446
Ni 6.290889953308023 4.773857473743701 12.579941467014248 -0.03846447462378537 -2.7877137175282245 0.5345446885265116
Ni 5.7646685981018235 3.487041126223488 8.997323411194358 -1.8830844399662214 -0.970905117971102 1.4078895541529366
Ni 8.815701660314646 8.713024991301761 3.9112455308027356 -0.1789904318967111 -0.18401822412860566 -0.5142666550037659
Ni 0.8708766975126625 6.0427006070654325 6.746995670917856 0.06824504832032763 -1.7925378999352162 0.6365424078172521
P 4.887636051882747 4.375696411873409 10.918194916687405 -0.08929621256367201 -0.16655683411904865 -0.9012405635954286
Ni 4.716355980631831 1.2487500484094471 5.658087529278561 -0.4075990410411819 0.18671968222016874 0.2057733564175101
P 2.0363277054556 5.960820600744843 8.720251740213596 0.2673263374296428 0.3697084366429956 -0.6113412259612762
Ni 7.428282827626518 6.498619008513054 0.07659038064722842 0.45878713387922276 2.2563844506152178 1.0740415788519762
P 1.1101543631208963 4.24779145389153 4.8796847092312365 -0.4784146783021632 0.0696241880560414 0.31032315270614297
P 0.2121168220876499 8.04138233260352 12.438731579091135 -1.2899831340517396 -0.514112903034721 0.7694291033773651
P 4.182514055704465 2.753638958238241 7.40654867038579 -0.5461192807379885 -0.8047048958605237 -0.0697429730220928
Ni 6.752254229520411 1.069127554909821 9.808718546699973 0.9117571468560363 0.3625371157055369 1.0205585193321713
Ni 2.8898223768524653 2.090631117749235 1.3808243900409276 -0.8183517972199971 -0.3751301218791991 -0.15838124028679176
Ni 1.2271036099568773 6.247715862261846 13.050929225277395 0.97433214137478 -0.07225416947972071 0.5980051709740023
Ni 7.5963008564428325 4.406781757426656 8.031584326713823 1.8615612211824648 -1.59307480200645 -0.17637099199599302
Ni 2.6637363377507635 0.2266955019319196 6.813862972140273 0.8882865745379218 -0.46909802888692753 -1.8387694200989302
Ni 3.0138805004786953 0.9257621605152164 3.7593357781991834 0.519653373236976 -0.5839857167664587 0.45122243415808744
Ni 3.2416569537271784 6.4090636082287 10.384833617620151 1.2480679818751925 -1.0964150614511698 0.5444979430844816
Ni 5.464396221390829 9.184705362496398 3.8001652191369044 0.14978449975671623 -0.8534632962111495 -1.9716391463781786
Ni 2.4103204137138 2.3147891709862294 5.725717801210471 -0.7495596181469478 0.35286334006119874 0.35073729485713145
Ni 4.503729293088017 1.0982849145983602 8.98872422874281 -0.5061016026944702 1.1062112216059852 0.313018440150119
Ni 2.894089530401368 7.167502180333846 7.086013253610458 0.9330055147118513 -1.0832911224747022 -0.511779626915854
Ni 5.559379221692418 6.607783212900074 11.66297676996131 -0.6438805933498782 1.7796790416946768 -1.805112137055801
Ni 3.4114293583066395 6.625263008915171 1.1527930040643624 -0.21149406095137124 -0.7107398170662726 1.5300994867254938
Ni 2.9005313789066705 8.599748968719867 9.037857714959424 0.0942206464484829 -0.46889748284034727 0.03606100738861532
Ni 3.3013696912905144 7.6428740505301045 12.608066303467186 -0.4531129663125809 -0.15577208479871882 -0.5670809705913201
Ni 2.1716978978046164 1.7214812175872198 8.27494182970875 1.348070782223091 2.5614602388794916 0.14085634402915098
Ni 8.026899595183798 4.952100223804603 5.865643888119407 -0.2434446457160388 0.26032342374924844 -0.7372504617622916
Ni 2.586744826395191 3.233606927438992 3.398185648769639 0.9027202334647485 0.46927492078442407 2.2196942942830353
Ni 1.7754282723039658 7.943886554516176 10.979659288801756 -1.7447382639534341 1.1011664600932263 -0.3350435382709585
Ni 3.5945149164637265 5.0710322807478905 12.508446999716535 -0.0019941476118933397 0.013124196086783847 0.7228841657382906
Ni 4.8760955488158 2.3321319063948307 2.5650581834980493 0.11868006504242785 -1.1750874757524086 2.1796331645960914
Ni 8.231531080682023 -0.03626989142829464 0.5795671707291173 -0.23351581663810106 0.04515859881450932 0.24162841844290642
Ni 4.327898809701441 4.530392149738333 2.5520191511334156 -0.10771790960396932 1.018714267034581 -0.6745587391600254
Ni 6.1290579265315515 0.9654183626613339 1.1269598209520344 -0.7856530214353953 -1.0349299575624953 0.38272258951447635
Ni 0.8150391201636511 3.1475054544383316 2.2556895512026176 -1.8549899957228506 -0.611758773114669 -0.6433370621415823
P 5.8147779558366866 5.594338813722612 1.289605987731091 -0.45659989641991683 0.867958147393215 0.360899580102114
Ni 0.42664134216274263 4.7940967566362485 9.451017775867241 -1.3058224150768414 1.5040331286557451 -1.7489204203555817
P 8.720453676173832 2.429189090541388 8.766055567429738 -0.4002575130744461 0.2060584917580967 -0.6395143459613825
Ni 3.9719158651367885 0.829217583036953 13.093750613696189 0.9844329772542078 -0.6278806183771961 -0.3170720413942023
P 3.750882793727899 9.01323340639639 1.8716174059427169 0.09644670756552422 -0.35174028220034903 0.10089060226949076
P 6.1187418315493005 7.846491287540261 9.543963141818924 0.0004275744557218442 -0.16528799470895403 -0.17425008899824831
P 6.419489351696146 1.9368856667560155 4.0861969988329845 0.9299898678139789 0.8768451654701995 1.1291881421171328
Ni 5.290904905688449 2.1486991280346213 11.219432200068127 -1.7791861612186584 0.5165253691309556 -0.2509039302075614
