# total energy = -340871.0923057188 ev
CRYSTAL
PRIMVEC
9.29189098424865 0.00000000000000 0.00000000000000

0.00000000000000 9.29189098424865 0.00000000000000

0.00000000000000 0.00000000000000 13.59962169418094

PRIMCOORD
 96 1
Ni 6.58837805050566 0.85464303368861 10.386208002819805 -1.0352801418130622 0.048515431101884186 -0.10765363202493719
Ni 8.72858856541022 1.5636022272559051 11.004758956645519 -0.3792958232211145 -0.2436703885735997 1.5871391532483055
Ni 0.5298812268650354 8.936745504575562 1.9156022829621364 -0.8622107033864763 1.1250491802480949 -1.5835208397694276
Ni 2.0041121893999296 7.695172339039734 2.857661567533689 1.9912656623598544 0.13595993516879812 0.46223678299072
Ni 7.579321043730678 8.823310100891494 12.502241017692752 0.01795427048557553 -0.41966291418425145 -0.5166793782103166
Ni 7.617659385441071 0.4472716711267326 1.1069615425696504 0.30455488276379805 0.21863838530563634 1.85961566742032
Ni 4.750265491415024 3.7487204507126526 1.905171206276706 -1.5330043190771148 1.0947710980898435 -0.22748452284235662
Ni 4.943248772797264 8.530531911615505 8.862913998137746 -1.4610825932361482 0.8170508190203866 0.5788280838249193
Ni 5.612051201611821 8.724156333467453 0.7112347776402166 -1.0382379388898053 -0.7215623616030734 -0.11814553269519655
Ni 7.871067833120614 5.704301094122913 10.032495451627092 0.4607848810355419 -0.4972266688023437 0.33215953185494407
Ni 4.369223630809173 1.9286713274642369 11.383617222898014 -0.11210061205269727 -0.6898269781730055 -1.146393964472458
Ni 5.747183170466456 9.247995972891845 3.1875608608167108 0.49668776557973815 2.0025139815801642 -0.8540649343508904
Ni 6.16990845349422 3.862211605741912 13.532222032010322 -0.30239644165989854 0.7353972106036367 -0.7840563663722369
Ni 1.0755456595539368 6.13117056047662 10.66544883629408 0.3342390400917921 -1.4593656105450414 -0.8486671603740868
Ni 8.23339582552367 7.203454766336821 6.3616447631223325 0.14246791149064497 0.6012061944098033 0.6064471310937685
Ni 1.2269012698594552 6.866642306249988 4.785652728586584 -0.8561866086795835 -0.4431681963950432 1.514129593659799
Ni 5.493858349804699 7.766004423106219 4.8445112820839915 0.9714625331364688 -1.4626021152044681 0.24695677263435534
Ni 2.1808997050038834 2.7680728725664303 2.8599325056611784 1.0180946311727113 2.4912547243986833 2.1593026805688553
Ni 6.6244956302992355 3.1141493478460074 6.984942014802061 -1.3839525837213649 0.27921717532995777 0.11388238654346837
Ni 8.324660777603038 4.229232003031965 12.33064116475892 1.380819437409022 0.711100285729485 -0.16165219772857967
Ni 4.672464489199535 7.064624624917781 12.153573963239918 -0.4409395641748406 0.24565707998632533 0.29571260188181975
Ni 3.6789197665322204 5.596896127610452 0.25149803491763073 0.5766087075760973 -0.900045771956379 2.154790394520799
Ni 3.3380746258098295 4.711564765960884 11.763985421416127 1.700007753815279 0.6533152564002167 0.9220968382191473
Ni 4.369966982078401 7.423672579845373 6.820182851923289 -0.898980306806342 -0.2174317665920449 0.17494685795495676
P 7.271341320998994 1.489118430079342 4.017273751313614 0.29958982544903884 -1.140625437419797 -0.017173426455493003
P 0.2193722514398052 3.4227887948291316 10.528596009251185 0.4994491303749592 0.9870123079456098 0.05513884995567279
P 3.4452101274871962 6.546276492994806 4.658944787990466 0.7484231905496594 0.8590158505982625 -0.6691262552905444
P 9.222889283773696 6.901449729431551 2.871015873085356 -0.2921472531280646 -0.39980551313869206 -0.18623220106078897
P 9.354704047589408 0.7140567248960202 13.419793869296058 0.8632113767368488 -0.7134253343182358 -0.8793787305253307
P 4.974664655812978 3.945550574913143 5.531659620223074 -2.3921232709121445 -1.7420596886800062 -1.4715639523834463
P 0.13751626805068157 6.275975387722074 12.599450921547762 -0.7099222062609838 0.05132770373969871 0.7023397659280356
P 3.081702064944241 7.546883052719777 1.0451918396641315 -0.7188159092061879 0.6426770599600803 -2.436866122345474
Ni 9.16813217090425 1.6925829643576855 2.732245199767853 -0.9737179048295489 0.6531735886160298 1.0431199495724552
Ni 0.9862784640106181 5.602480554020521 0.986972568258259 -1.3993352368250223 1.9249836513031688 -0.8654556926863354
Ni 6.314713280739675 7.702410722023833 10.689683016859973 0.8227537829424346 -0.31340461984494417 0.16265492796148115
Ni 7.643685971754887 0.9225518888888589 6.222819267648725 1.2470467396995297 0.2776950822584766 -1.1389408506285221
Ni 6.654229681068323 3.3679387630510313 11.041464713130871 -0.6124002633534098 -0.5786365366394034 -0.3940282443352827
Ni 1.1048801590158142 0.3488584674046602 9.819687921083649 -0.7930567700986342 0.15835218682106922 -1.03290469960235
Ni 7.1094579983430455 7.296345799317623 3.033368436230004 -0.3385453807766298 -0.00903717050160379 -1.3611034470373333
Ni 6.502855486981073 1.6764708255971865 12.901525647634525 -0.746004810916154 -0.2810303172792966 -0.11293776324201195
Ni 5.537205020691508 5.441712258268413 3.6323497387042245 -0.3350229694456682 -1.1482649562429257 0.8273717413304202
Ni 2.514617965432559 5.396711630807573 2.6828513663058806 1.2790060662149456 -1.2467420639749174 1.0206114840572937
Ni 8.541124667201991 2.5506426263174813 0.47468832431400404 0.3184236703260903 1.495636677061934 -0.4039583589648011
Ni 4.224140046837759 3.9818168249605645 7.501252435058267 -0.825647559550462 0.485580599922983 0.9822776214741018
Ni 6.056259336320251 0.996313706145185 8.011551001924598 -0.10410808076552394 0.8000643117647189 0.2890591011210441
Ni 2.5672193596212467 3.652019742477062 10.117900937326775 -1.2903150634698617 -1.027615940399585 -2.3973654931476904
Ni 8.655758724807688 8.860830756205736 4.2246548175916985 -0.07845798429758746 0.18912932010292588 -0.18311782380152333
Ni 0.2914373694241204 7.128506374616992 8.693898220053562 -0.7754228590669549 -0.13376164196589865 -0.08402313709019078
Ni 3.3899140849475597 0.37874769275119846 1.8026574911157591 1.1661654906724304 0.04782766100624021 0.6764904089650995
Ni 1.647331455843481 1.8525149899319124 0.9606077571169441 -0.8562537144720931 -1.6354409256774867 -1.6105256504930456
Ni 6.9071549504228695 6.289848180784026 12.918525161972664 -0.28205593033033355 0.04433456025131719 -0.5312495627150077
Ni 1.8079139137782818 3.5399967062045268 7.614400719314595 0.8384771072149624 0.6732366779144922 -0.1311941383490386
Ni 4.495472551996544 2.111749453184025 3.555280937488924 0.3206127075576091 -0.14770242041670692 0.23862999793621484
Ni 6.949525972768819 2.978589952011567 2.189525367294178 1.3047086131873722 0.08080642992510599 1.5615924151274525
Ni 8.277885398986918 2.4793924071620563 8.435763916679905 -1.0134267933833965 0.008596483419759389 3.190137385016054
Ni 8.463909054111019 7.4136373377108065 0.8048078354105336 -0.18912983432355815 -0.5616934810271617 -0.5803074965839232
P 3.836212895100691 0.4021390988156046 7.063901715808457 0.17017643314950692 -0.18355234023578065 -0.9383603512658614
P 6.497289644352734 8.35053869366301 6.774842141256778 -0.6085680340915132 0.6045537707257975 0.30864293679024263
P 5.841904705947729 5.688021701326838 1.3029944225338952 -0.5217238826127596 0.2542931583947685 0.6662170520635494
P 0.9727494709106835 8.145912673026498 6.763349930634526 -0.43701734630229894 -0.42726438068059325 0.2615984338069301
P 2.0879064612235636 3.8958203750018456 0.8343922867366887 1.6814184208488656 -0.61773915906782 0.1390725126558508
P 2.0734204033644987 5.572449162743743 8.502959154661696 0.5653745294231747 0.1012202176947676 1.3652151552128617
P 1.84875177413145 0.7702280635551718 3.3305203185363084 -0.2370492837126563 -0.585462044201669 0.658652352342414
P 7.7691822497821645 4.847839637391956 7.526697349003913 0.7797914204482957 1.0226858500878195 0.7838313948456243
Ni 2.7223753532906896 9.329987617887602 13.133345316077538 0.5300524570831129 -0.18259177609472427 -1.0059757364219901
Ni 1.7522740712766278 2.2276007484930807 12.18213258981454 -0.7668806259238986 0.23274705679287658 -1.089869289912852
Ni 2.380944823443782 6.899331178314253 12.389948516585122 -0.20809300568962227 0.6510585991555562 0.9084203691733193
Ni 8.574120171664813 9.187728768739252 8.188508559131387 -0.2585503910092257 0.8542120014517159 -1.2523686661330753
Ni 6.814254625551203 3.544568316510274 4.707414078311337 1.090001444615342 -0.9770999339279043 -1.2997276150330133
Ni 4.36380645843468 6.266646329293272 9.45334211507042 -1.6255617188905618 -0.47217512515035454 0.8480688646684555
Ni 3.7888985868143816 2.767004305116916 13.393967987824933 -0.09573836864458996 0.1913803209206317 1.6284902053912664
Ni 1.2936542138360556 0.6135565624855925 5.443370860787876 -0.24813176677906296 0.1900788285003888 0.7006819186096384
Ni 2.5858867683697144 4.503231280869102 5.097954109759738 0.8424047244041427 0.793030544846389 0.3282175164880606
Ni 9.037627563700553 3.0659894774909517 6.39847224337802 0.3302625719425474 0.5700056004372829 -1.5461364855836983
Ni 3.2452207603924896 2.3834536339774233 5.858539978163947 0.16318637498491895 -1.2151488625496687 -0.0406725380186977
Ni 7.868791319858606 4.9360010979223 1.1763087824758536 0.4203650824575986 0.9904467875484556 -0.5367751205189272
Ni 0.6589455909846039 8.447917709931769 11.824925358467372 -1.1483909402978287 0.07273856531530698 0.44440926789099594
Ni 5.980595469003789 4.6427676059939085 9.056572799985895 0.18023407449582507 -1.518426678373256 -0.5736712222143281
Ni 6.358942681258692 6.895939638148404 8.480805428460553 2.1907094770149107 -0.5160797969531048 -1.5722869187268211
Ni 4.496002189775868 7.161613381770198 2.520690216113058 0.6460722016845584 0.24849403521448818 0.2085457769563247
Ni 3.1903428529417934 0.9896978798490631 9.018548524186752 0.5541948586572714 1.1265458193982791 0.2471431776135486
Ni 3.5593331310952987 -0.1313139308980673 4.487997225795377 -0.6176003194971106 -0.0356552873097644 0.4501680247516441
Ni 2.590244665185559 7.743917598519306 8.499559251794068 -0.16206768799944346 0.610983328401225 0.1292167029076936
Ni 5.939283722216489 5.566205012082234 6.3581770294513875 1.0767515215839714 1.129257047681855 0.5827909251274093
Ni 7.756786867367801 5.727763118557896 4.679438982483058 1.7143182569006798 -0.367398043342264 -0.8936228991491707
Ni 9.249510551102896 4.181323013730273 2.821404609377134 0.18306023109071054 -0.1731771676490437 -0.7971422530219175
Ni 0.7282919017017206 5.58728831245569 6.781845439401985 -0.7755794392494773 -0.6230803687750753 -0.5195291889542859
Ni 5.406691121596947 1.210807714880687 5.662855544107152 -0.19304433888661593 -0.23706959542763043 -0.4428984876734243
P 0.5083017395193704 4.4191954198829695 4.750170714128197 -0.3920047861473507 0.026660540010321823 1.7524135211105045
P 5.617728546930543 5.300800733295536 11.254787943617337 -0.1017704337712828 0.12626687625075025 -0.2008980306030798
P 5.228844330434345 9.22912414254434 12.227188968620572 0.5293819133786495 0.36282353659770417 -1.2016670260131497
P 5.529948053925679 1.6531760551977797 1.4634821031818697 -1.6190146618006633 -1.2005133720246808 -0.7027449717862543
P 0.8710320707968962 1.7525714117843187 7.998821111439083 0.8775437341991209 -1.8640035120753704 -0.31891089437515396
P 8.285105198189287 8.636589553952492 10.213614846752467 0.08791732993827439 -0.6481846200418708 0.8601543350780799
P 2.708140176484989 8.717484755826138 10.872734196096253 0.5348303380877305 -0.49259431223665484 0.4415077779734848
P 4.578356218515374 2.8330231897151545 9.375075589122577 0.7955016320947009 -0.2275547139586597 0.2979034388855515
