# total energy = -340862.6866799905 ev
CRYSTAL
PRIMVEC
9.34271639985475 0.00000000000000 0.00000000000000

0.00000000000000 9.34271639985475 0.00000000000000

0.00000000000000 0.00000000000000 13.67400982743617

PRIMCOORD
 96 1
Ni 4.119969683904565 4.6164509665246545 7.297449892673141 1.7532954094948257 -1.5845901615742064 -0.06943521197368688
Ni 8.246638095338508 0.9717265712732718 5.45748882050479 1.0478415234178406 1.0564225802186322 0.9699155003643233
Ni 4.5749319356452265 2.4157274474419266 2.024887994202134 -1.9516629603665676 0.7217528803473248 0.6345004376865588
Ni 6.760370770992864 7.9501563388291085 7.208581975993321 -1.3302612648454961 1.6203128117867966 -0.49303242821533805
Ni 0.9259108252044989 4.7585630229393665 9.048543048161672 -2.7380927120669876 -1.6733904083380666 -0.8616707717226063
Ni 8.632221336433211 6.264141741710701 10.461902617945254 -0.6507726924840211 0.21451073629050801 0.21879033750246832
Ni 7.530210587479107 3.6362972652214003 12.089205717797125 0.11685432468759875 -0.3535040589689912 0.4724630887044186
Ni 8.919416433020434 3.382474350970208 5.3586662396931 -0.8358885205521798 -1.890402056673557 -1.1076368983089184
Ni 1.2281187324848246 3.2803678054073666 2.396739310997428 0.8053877808601613 1.3355289410023385 -0.05349180127055304
Ni 2.5478241120693412 9.078849885306086 4.881785041429885 -0.7415259492091939 0.1582614268794758 0.15744355896387077
Ni 8.849000380874113 6.5786923113886 13.276848066532615 -0.14518119665674997 -0.6694196181612471 -0.48908192820802215
Ni 8.839704378235718 5.779338854364977 4.96492307025229 0.3192837043335404 -0.015815112655385665 -0.7229247891682389
Ni 1.3527879377177423 1.057081626654562 1.4763827305854182 -0.9565848446936881 -1.1796516980843232 0.7197574471838507
Ni 6.554317164771942 2.951831189548887 1.288672613389848 2.7000321577498405 -0.36922558346930606 -1.5748150844653137
Ni 8.302563594628394 4.098089042518512 3.0182644417708375 -0.5441410739656952 -0.6680890722752817 -0.16807738452863313
Ni 7.365171505461759 3.683748920900207 9.754860802799959 -0.8027454581413077 1.8353413682539874 1.2136735635557225
Ni 9.08428734614583 3.1067053963194264 0.45151011809755925 -0.9147931054688826 0.13617899315813967 0.17001471076066202
Ni 2.763893110077561 8.340691219520146 7.472654784208919 0.3486243622791867 0.411376248695427 0.9464498131422152
Ni 3.3691049240601134 0.7594544531366537 0.13165755696509865 -0.1864797982952208 -0.27542325550516433 0.5559244397538683
Ni 2.4023860486804898 1.9264493990270657 3.7792912740472326 0.3302530588608506 -1.4286856649626816 -0.1182136669289706
Ni 0.06990967692722397 8.721715215099739 3.759217513978029 0.11847926188553146 0.05524349385433711 -0.9043896507473714
Ni 0.3805335029780692 2.216036230966478 11.993897866827206 -0.40576995825224316 -1.427760839155567 -0.31708052603463455
Ni 6.612980079914139 9.038255783332389 4.546662744908285 -2.345257459598542 1.4116811599848849 1.989267400982903
Ni 8.279972906809657 6.115265558753077 7.451706545901572 1.0584810054095577 0.003492586534290759 0.5255895362157529
P 8.027457972829195 1.0890710869901068 0.3500342058795335 -0.40519351692348277 1.1908959035395748 0.6232274358759009
P 7.418210105439822 0.7809043953049883 8.082843463121595 -1.7255064123070152 0.39691919272983256 -0.07655665350981655
P 4.666612009907114 7.95308995172203 8.877508745146276 -0.7532319247922123 0.2390699136871109 -0.7229705548045098
P 6.549505665918902 6.260376627074246 11.356798428115901 -0.2244308236176974 -0.0031136059283172184 -0.009182952050848701
P 1.7744153779872525 7.086992130026348 3.9673087666064237 -0.6547568739427498 0.4768095385985724 -0.055605248069130045
P 3.5026029961204523 1.8508481393789267 8.347052674993998 1.4775291688279457 0.19498629310433518 0.7264633984491167
P 6.8015067505072935 4.1494833244419445 4.616509825636838 -0.12315455587401372 -0.7906810707776061 0.6333627245376898
P 4.8790653767383905 1.045851681758731 4.981263480920182 -0.5469407481980194 0.2021553000489486 -0.0878013731857004
Ni 2.023548248696259 3.197441856243145 7.399362109738617 -2.5114702801146103 1.9035092834794767 1.8361993453789083
Ni 2.75561546350709 5.798071000385062 8.535562528697957 0.7380405617637548 2.308661405642063 -0.05251349651768375
Ni 3.8935676417575853 6.700063537796035 3.415768054489994 0.5069544376130689 -0.5638745478388805 1.1279339579950576
Ni 1.7530766141419298 6.109781384332234 10.677692268738511 -1.1273351480687939 2.126767941165944 -1.229283502178838
Ni 4.412200504534094 8.175493311327067 5.908252455576411 1.7939674332928912 -0.803253765236294 -0.4251555618677065
Ni 5.772780267578893 4.787815067422599 2.3782790380193317 -0.7754606542834258 -1.8968246723704494 -2.4897768543015766
Ni 4.283850269110696 6.006413572079761 10.67985230472846 0.4859202426505889 2.298020123878133 -1.5814539299380699
Ni 8.1992331532408 8.278020279119785 9.011596342600065 -0.16358720996776344 -1.428466864083656 -0.24125278027104258
Ni 8.07234972426386 8.962888091589736 12.58736308370699 -0.9728933520457246 -0.7527729828779228 -0.7305164854725678
Ni 6.165566742878828 6.413802712830763 9.042103113871576 0.4993542566683078 0.7582725725399133 1.0191816935893028
Ni 6.977411411487912 2.0416264045809784 3.6830809166905127 -0.33386340191992825 0.2784548432426366 -0.220385192793414
Ni 0.14397032267076879 0.626823385141484 8.05256932548395 0.3047852536070493 -1.529325841784263 0.41695708521731417
Ni 5.260762047885787 2.8266855057887756 9.219386759766191 -0.7101158103290286 -0.25122197566861254 -0.2201738481135563
Ni 4.910886668181985 8.89735828002621 12.201674269919003 0.752291158145498 0.7134150499055907 1.3796115331438497
Ni 1.096405119222409 0.027665651269163365 12.873164247034264 0.05843243310528001 1.165918664768947 1.5758121582712603
Ni 8.942240688744656 8.494649840101175 1.2423906657817225 0.09653541062458859 0.6296639355298639 0.0026775468321631308
Ni 6.295019418816126 6.0087399084184145 5.847294035059084 -0.7809193634051519 -1.0535468013327338 3.851452628902612
Ni 2.786885534693734 8.073751131696785 11.942291505245592 1.4805864675970306 -0.2885397382824644 0.12654352695090465
Ni 1.6715707578430707 1.5621955790614637 9.347457647974627 0.24453067969136597 1.0547649900105511 1.5808674613069806
Ni 6.479958486380995 8.415339522113896 10.635124985099257 -0.13448977838117482 -1.1265198512563501 -0.1281862047606502
Ni 5.401612837610866 0.9316201590862312 7.295863499459071 -0.9543639257829692 -1.532349459101935 0.15615466494911817
Ni 8.590543479378052 2.8177725545153787 7.8763937257329655 -0.4005848145068779 0.538580292048466 -1.615168805692012
Ni 6.28665768779968 5.316164355067381 13.270708033433163 0.7879230484164946 -1.3810917172338022 0.5574218502350013
Ni 3.740384466622775 3.8939787212712433 13.460243717378022 -1.1824264326159828 -0.3800923509804809 3.4314603564034
P 1.079149122365005 1.3273757496007208 6.378939432986103 0.46282582272497064 1.0732422228791323 -2.3562211576988967
P 1.2898554012632357 7.247705534434071 0.7317112573228686 0.47706073537742993 0.5081158049110216 0.509637897982503
P 4.630792035921577 8.257746584923485 1.12816755155382 0.004980226823410777 -0.05425876134356462 -0.36659200250120094
P 0.7386136560658302 7.731013587184675 11.675170168727574 -2.2384600049263126 -0.5772244867832252 -1.1589193506329782
P 0.5359421131163635 4.639359306694852 6.676034071679499 -0.059945013095064496 0.7391865024427399 1.0066025713727116
P 4.894424802203237 1.8066570916607234 11.82796375259603 0.6610383360760873 -0.2823786037770749 -0.17195435098553613
P 3.67926441711485 4.459792300956193 2.310141674358946 -0.9795931326634033 -0.42805910866774666 0.13876655137965777
P 9.34720072327859 1.6340223813569275 3.0738900398700784 -0.791102988806373 -0.04046504999358192 1.5419520151887056
Ni 0.3462391945511753 8.572867060290772 6.102655694671627 0.700187238361407 -1.0303287113450577 0.3367715767056587
Ni 6.3065483306309815 6.1248231574456184 3.7812196106749356 1.7032830821324407 3.6444207174876526 -0.49138460819926993
Ni 5.667357057758132 0.841731083523621 0.6423192142631354 1.5082929323733638 -0.5696024514615932 -1.1058741499815408
Ni 0.49750431004612444 4.430231946837716 11.994485523677413 -0.44256552981403774 1.0962901058375314 -1.4264534331980532
Ni 9.16523263947152 0.20041434271083713 10.589891290250959 0.5606930647871052 0.8118548766417438 0.7185438864917237
Ni 1.9383800476393587 3.9003037401518403 4.966167520052726 0.05308813807423115 1.1911062197781679 0.2680629584853512
Ni 4.523509625573136 6.665588914946106 13.08579512547371 0.1147277652628992 0.6415856266681144 -1.596199977898993
Ni 3.2757244754462786 6.337603519344577 1.1429122262914242 -0.35730414944137173 0.18441186002259854 1.715484252184323
Ni 4.083402292621469 0.3235803049040384 10.107965025229218 0.6206339641171117 0.3622478665998923 -1.0799579443364111
Ni 2.8881792639454797 3.6378574988300554 9.929149173874604 0.4113533658772915 0.5576676476972201 0.26966655552704527
Ni 1.8796423907674047 8.63060504652724 9.818677160208829 0.008720924812765625 -1.2000240910930882 -0.532911780908779
Ni 1.5465745575424708 5.159374891471846 0.19345682194218056 -0.30906742592217096 -1.5169801757347166 0.184722706394798
Ni 1.664302124624305 6.474100603311373 6.261670593270645 0.5844348884887354 -0.06308844382005264 -0.3563052758632122
Ni 5.026474753249555 0.27661073338215814 2.8758085733992487 -0.25417694453187833 -0.5442837701911466 0.6061861641228979
Ni 2.6944206722694095 8.679813132855312 2.4522967072682667 -0.07943551771950835 -0.2954287520928138 -0.599334174198071
Ni 4.315325880054169 3.335368375791523 4.453365446468803 1.2590489063667285 0.8436604511881148 -0.9432351628596594
Ni 6.74662763543399 7.512151117026828 0.35832306370946787 -0.984315477839737 0.8608104806048401 0.6442379766892969
Ni 3.3006321568874473 2.106109831927921 6.185206066643825 1.957427887874803 -2.824650442653574 -1.8495569976327373
Ni 2.755606120790871 1.547620941759054 11.638455162528208 -0.6016607654487186 0.3919158259779702 0.0749851952576386
Ni 0.6680574631762174 5.588383077554755 2.5172893126491713 0.5442793993157723 1.878180832017017 0.08758822873362979
Ni 4.832501279100437 4.058447897599202 11.629882286125202 2.652800478456386 -1.9699738428606135 -1.943916997872562
Ni 6.015793659164132 3.031122822103726 6.649998724390638 0.8190048574229638 1.4993886879051983 -0.9156199722455522
Ni 7.018678189029414 1.3169025647186687 10.202916918711171 -0.24791913654762462 0.3741057943797428 0.30112091738158464
Ni 7.12365294847164 8.175334485151334 2.724026805697362 -0.016433720075991053 -1.0309216077340504 -2.4046676832360583
P 3.8431543450372003 5.911968053816905 5.705083880124068 0.05608604436029051 1.1247735579892046 -0.9623639132693101
P 2.838326530198264 5.006686880296669 11.849199746562938 0.5133207461507288 -1.872970234350355 2.380892949413964
P 0.7628935069770493 7.695997086794015 8.089106820075145 0.11456372888120915 -0.7299441579088655 0.6197716161168164
P 1.8735415970760756 2.608738621820437 0.20605080340605741 0.8837735171589166 0.7538369053660631 -1.5592570821260565
P 7.831288960368496 7.6293835201490285 5.294767666381498 0.6556755291022772 -0.9835413186778739 0.3138491635815305
P 9.229351700885903 2.8491547382966567 9.88985090664055 1.9115797191924369 -0.645933619224165 1.9013199891376416
P 7.897818442567508 4.948603213560078 1.061597895675065 -0.04203033759817278 0.04350229415800896 -0.34136716649614113
P 6.658553849632828 4.699638511743023 8.06000799613791 -0.6303733028920628 -2.0395815758564226 -2.3113533506519293
