# total energy = -340874.54781404854 ev
CRYSTAL
PRIMVEC
9.24706165337395 0.00000000000000 0.00000000000000

0.00000000000000 9.24706165337395 0.00000000000000

0.00000000000000 0.00000000000000 13.53400943702886

PRIMCOORD
 96 1
Ni 3.1890248931842677 2.149165073040241 6.19355518708201 1.2532713804530031 -0.8952604347525936 -0.7849778497452417
Ni 7.787875294792487 7.40077480133416 11.498156126684808 -0.9184702972101537 0.27545205186057076 1.6397552367821246
Ni 3.5046178591495645 6.330344195480582 9.93186478744506 1.302406704527073 -3.71555208621684 -0.9064868995960323
Ni 5.851836497927 5.94693327960789 4.682306982124203 0.03834826076089524 0.43799436550358767 0.19427872551434927
Ni 3.7039845076365343 4.600764543363173 6.058472261551985 -0.3255361130011555 0.1051573479656447 -0.7743088000671697
Ni 4.790431024212721 3.7006370713307697 4.109859310298159 0.25877073455014793 -0.5288648645329149 -0.7948213181982247
Ni 1.187914523711971 1.0351623128420149 7.13780963715615 0.43569477083613345 -0.059061067828214416 1.003939936938884
Ni 7.406840873755656 2.056731445105373 5.1471595437862865 -1.0434307959446545 -1.2485315517751725 -0.028002655860513065
Ni 5.863099418977887 1.2647945940051377 2.7414218002646513 -0.4320723435921978 -1.065693463997597 0.8575762899382586
Ni 6.715789464909263 0.8331454564952878 10.988857563355165 0.16507279337435443 -0.45756791676014097 0.13983638740506885
Ni 5.413007941776831 3.0912002283260276 1.0658560844710874 -0.5855080669482562 -0.4784146783021632 0.6365866307916263
Ni 4.242773799878732 4.348828349577111 13.291033764990669 -0.6443030255992774 1.1274225655762777 -0.9311900587696672
Ni 8.982299749883625 4.124115505194836 6.450146351686641 -0.6850087308487558 -0.24988320225253094 -0.6416442478201917
Ni 0.6835095053906428 8.105585837868336 6.273703168951026 -0.11614367177381933 -0.8187986549494285 -0.8879975825425933
Ni 3.451844878494873 8.856724653109364 7.729840736077078 0.4283344738163204 -0.5272088169867308 0.8351115331768393
Ni 2.0897527021437297 5.330662858067347 1.1623482477501543 -0.18995721532085996 -0.34995979326115856 0.09545349041431947
Ni 0.29079419611778473 2.7900511726082566 1.083772266356222 -0.0688986227439265 -1.3620966641885381 -0.6755889801967527
Ni 0.6386510847749127 1.530906533251799 10.616686450879314 -1.493825591995124 1.197350400915667 -0.9283682730501559
Ni 2.2969793530061136 3.4554974678340367 4.134788463714487 -0.05183035440773009 -0.3982394542031529 -0.13606920705315276
Ni 2.769800107664543 3.1963855542323025 10.740251236457793 1.081947463962614 -0.23665307671550212 -0.3797475660465524
Ni 7.5039535148693 4.213553085165429 0.2646194635014945 -0.028388064224389824 0.13180194713636656 0.6353643283487509
Ni 7.35592655248621 9.07479810724982 13.305014397451124 -1.5760121900972082 2.027974587745114 -0.7998074585589063
Ni 0.07417253065137674 4.072692595536393 10.8944986971914 0.2582786254050778 -0.5576817887646073 1.6055042860190543
Ni 2.149682908490856 4.89321211409828 12.262989840182295 0.25432118341922655 0.5038518874283452 0.051782017668297924
P 1.399699975952095 2.5985260323734645 12.345384858024516 -1.4826101828952787 0.41363187749882313 0.4009815357246643
P 7.092829155327061 1.7703499467917618 1.0261362559965543 1.8868094542262925 0.429135629561377 -0.9886840392210778
P 9.003022414969863 8.103274072463803 0.14923555333657978 3.135731042351032 -1.4684991974151935 0.5162345773634142
P 4.973485856005302 5.062359365217189 8.536224271543324 1.1540573945549868 -0.7183034883461435 0.23200246531736818
P 4.295648498211222 1.5380915001290891 8.113286790783919 0.6321648475748468 0.16169924891643117 0.06499131726972032
P 7.0709413604769376 4.0286026057411295 4.880566757335482 -0.7875456104724178 2.7938650818416013 0.789711250665169
P 3.780013848260832 4.255849145006773 2.111387127505516 -0.05575540049374914 0.342902629304061 0.10178251795614084
P 6.092112147012594 8.183889955650695 9.804496685423041 1.3789008802300704 -0.5317969505780454 0.3910285382770104
Ni 5.458808637971448 8.042289701092209 0.8659447840548093 -0.3212711670772144 0.026450480882044772 1.4976213115921304
Ni 0.7999688488217466 3.0110282040968057 8.670170733200482 -0.12437428721372772 0.1703867493881001 -0.4817925936354605
Ni 6.7145688527756695 6.167087322612425 9.529905190672551 -2.170429643719952 -1.3012710482607333 0.18497210340144274
Ni 3.3363028435762887 3.457698268499152 8.151452188200443 0.14296207751824414 1.4294569959110672 1.4971572274715184
Ni 3.6768073935408383 6.375553079731639 7.416095333023085 0.9730100801292468 1.5690835812981752 0.2595994010990303
Ni 5.413063424146539 4.635718436279721 10.96817743475237 -0.7065175514548091 -0.06768789026527697 0.16177278246684398
Ni 3.063625490580752 9.198061438619545 5.510751232492831 -1.4307037238339746 -1.3928195471936917 -1.3688864334168618
Ni 3.1164447065435334 0.6782479273299246 11.841635456371911 -0.3209785755374601 2.1819561563023133 1.3572606762524755
Ni 6.920565644442842 3.517351062997735 2.7538997852121616 -0.11423745589004197 0.6099867688159107 -0.0008620908899791605
Ni 1.325871435992913 0.3050559392514329 1.2468682403522229 0.3465211998932548 0.755016527496461 -0.462094600985901
Ni 8.08004545367905 2.2950097288814506 12.259552707378834 0.8512482908377016 -0.08862489752826028 1.0787916919424518
Ni 1.0234647798950753 7.464181902849705 2.0591319823014405 0.8423844126891685 -1.5807530472163034 -0.685744837683832
Ni 5.509528770946914 0.7711328118717574 6.0376164387784454 -1.1388089530363483 -0.7164898321761725 -0.6518553840252387
Ni 0.38989495547932723 1.9593783803896576 5.1206602393072 2.2949849365962347 -0.41570187265397435 -0.26347713888688173
Ni 2.6979319447684054 2.611619871624742 0.418688455945873 0.9587661686157232 -0.19100056898370976 1.078090037889737
Ni 3.4234933875736746 0.9214290031759371 2.279817731349018 0.3781221146279875 -0.3431186019696091 -0.09480274420419801
Ni 1.6973443953165934 7.479384072149918 8.502605654324437 -0.6615065339617575 0.4479039113078157 0.05823780059597067
Ni 0.9390391073215116 6.658531659369777 10.980683160884734 0.34195286379628204 -0.8103929473842366 -1.0292701881735564
Ni 6.255896102392985 0.4954584862057836 8.22957136475044 -1.6280083806588412 -0.38009543630427445 0.11388187232283613
Ni 5.8995883241230445 2.7174802330291405 9.434544867735545 -2.241404946487249 0.608167713329301 -0.8558983880152035
Ni 8.614479379899107 4.9560458977935005 8.953342576426438 0.08265762420123184 -0.07887655989224479 -1.5580874872979877
Ni 6.992701972125905 5.230868569084445 6.908502852561986 -1.2923740028814195 0.4607889948006 0.6223756293985668
Ni 0.6571220903571355 0.29806423596196174 12.480210715241556 0.08958931832405861 0.15909497852436472 -0.4731246335478175
Ni 8.357485043407927 0.3792691569739294 8.761321793688914 2.0449109584891363 0.6579656106880345 0.6163991001001577
P 3.971076635414718 6.342994175774189 12.183884002157642 -0.6706802300412256 -0.7274234483695409 -0.5392827174321292
P 4.912926849468142 7.805546429544741 6.238935141973004 0.1446104117549445 -0.5548443193158122 0.004058743450405914
P 1.401364447043359 1.7368755837341165 2.881864322708547 -0.7788213432255425 0.7360677543081001 0.3703553261983751
P 0.6862900968192157 8.733526051170966 10.024965128522595 1.6780212222418585 0.32986765049697386 1.1490967081156016
P 6.560512806217557 7.695672843398072 2.8979828758151167 -0.27894618105675834 -0.6911210143940808 -0.2094034969709297
P 8.741210359375634 6.520278841117055 7.29642818391665 0.44339702457639774 -0.6086564800402614 -0.059900790120690384
P 1.694496300338208 7.553231106232336 4.254537911669322 0.8152921844580668 -0.6493557575318366 -0.13128464118031583
P 4.214144897108989 1.4122389915062847 4.26487797597072 0.26549648330975567 0.3561841769043156 0.25958346025943035
Ni 4.604167462038647 0.33449858344357164 10.12671424633157 -1.2257667472748308 1.062230702259977 -1.2673970212211076
Ni 8.316668513425482 1.5977997769973806 2.9352827482641843 -0.3480504920535877 -0.2826447129542681 -1.2593163010955022
Ni 0.044077968615159516 5.839343717680901 12.963618430746587 -0.5864681168686803 -0.022679443875386746 1.4590740474465516
Ni 5.336016906744247 1.0257488041147544 13.288786729017463 -0.6585731623650464 0.8345716015129692 -0.4955554517475078
Ni 7.749980836281374 2.389736628097616 7.6018096197370415 0.036279294047008484 0.47493906104873684 0.41338967958103
Ni 5.60152778698573 3.1528873763806002 6.494605299240468 -0.03381514877723209 0.6114942065993727 0.6076226394591083
Ni 7.69504404320804 6.89232511826106 1.1656670181649025 -0.8667368733916042 -1.3509493893224667 -0.08174513968929147
Ni 8.62100780540151 6.808010410426913 3.3112581018897345 -1.5222650782827396 -0.6221866533162123 1.5127879920302398
Ni 0.7098858239502084 5.677982492444462 4.863392189792123 1.1368441160004936 0.24916072226420957 0.5807962632948837
Ni 7.140396040290741 7.971614409144811 6.5212812225964605 -0.048744002172922504 -1.0041726217749802 1.3227878392865866
Ni 1.8199234441265784 7.491636428793945 13.19211332333068 1.6279726423248992 -0.10794930888848504 -0.18250487280787278
Ni 7.3629265781311375 8.988060669271723 4.49459070656992 -0.1735198957004431 0.09951531918851894 -1.1108024405210934
Ni 2.7444446647076197 8.112891016546662 10.574324736900481 -0.9509178762158977 2.815502714716035 1.1602452685332534
Ni 3.239180955401027 5.7739115096709845 3.9424708502990202 -0.045791347302501784 -0.04867278261535488 0.2015464628203561
Ni 8.538986368848661 7.321351789096007 9.413891555611443 0.6199240825342808 0.28071535714203916 -2.8098953958315867
Ni 5.326742103941259 8.111679651474686 11.975973993441679 -0.5214284628595278 0.39029114589035363 -0.40626155317668095
Ni 1.5992515656714275 5.472142900824799 7.400910733139947 -1.1761015188392197 -0.2676194431900294 0.09637214557384693
Ni 5.958991447957937 6.046348439064449 13.101367284141123 0.34791756602014917 -0.18745013262829008 0.07104060878759379
Ni 4.80386700474387 8.225705168287897 4.107490213111593 0.2675909039449391 0.3549472191734209 -0.734949581543257
Ni 9.004548180136856 3.704585566641713 3.7242614643527787 1.0799682287490562 1.58425720371482 -0.5111579341714552
Ni 2.4522190234513475 1.3531317736431718 9.330048447919822 0.9689086563663636 -1.6979729827734371 -0.8995199813598959
Ni 0.31322664289721613 9.114227577989544 3.5873790606318643 1.213004048292524 -0.27464421124729477 0.9867672818143394
Ni 3.3824364339891595 7.257482334499556 2.193077519252436 0.22211425966937876 1.0800541035946432 -1.1247761290923661
Ni 5.636084056252697 5.583144628488879 2.1387390110657947 -0.491776701431366 0.2998896160776448 0.05081374021775765
P 3.538110716330446 9.055684430885137 0.24581371428869533 -0.8248024379413472 -0.6682430813546427 1.2392485838113498
P 9.216657279533614 4.774415113490113 1.6247845522114193 -0.5939669963488867 1.9563984181690244 0.6262253421619602
P 4.972894044061741 2.4501569287105034 11.567125335763661 -0.6004086382091725 0.017676077123524397 -0.1126935084416898
P 7.544196727031419 5.227548873963535 11.778323599591035 -0.3442069499377814 -0.5961521769256636 -0.8764289038683873
P 8.405273857850442 0.5193556675455274 6.4759826418477076 -0.11696642478543083 0.4632474836434215 -0.24049764727257292
P 1.7403802200873892 3.5959418396902563 6.434081431537457 -0.3298005447044643 -0.7265585292660842 -1.0792033255585736
P 1.8260449989177832 4.833355884244099 9.551992722053626 -0.5910269398839564 0.6736259429331108 0.7513118249513642
P 7.853751361760074 2.4048278326584107 9.890911400950666 2.536932943162089 0.42906081045938366 0.13496286136285143
