# total energy = -340859.1080732106 ev
CRYSTAL
PRIMVEC
9.40589406491153 0.00000000000000 0.00000000000000
0.00000000000000 9.40589406491153 0.00000000000000
0.00000000000000 0.00000000000000 13.76647672633363
PRIMCOORD
 96 1
Ni 7.847299871793148 2.539243404365949 2.8430801221478386 0.7056400339458622 -0.1370631955353059 1.6718973687323075
Ni 7.25084390560127 3.4216197411490414 11.68121381507217 1.4161163129381031 -0.06415262341850886 -1.1566840335445565
Ni 5.411643579780678 6.178807119031967 4.423127370969837 0.4518937491934991 -0.8683360995579239 0.1949850075527545
Ni 4.113103456011327 7.127203426904596 2.7160158979779356 -0.37443515269470357 1.3862760896482191 1.0561531286073296
Ni 4.196571360762509 0.8473685393193305 6.779535242350054 1.1597253914740415 2.88223441171563 -1.272506831643847
Ni 3.6425924125846425 5.205748556679103 12.395638505783918 0.06042812337907012 0.09068512249139866 -0.35931758032697475
Ni 5.907465884384444 7.203908493756736 1.4462230085213 -0.21982057853919562 -2.4453731313752205 -2.4088038168916195
Ni 5.314151486841078 2.992598096849861 3.8515434106978996 1.0213969560730667 0.13202203356697262 0.20228385520701292
Ni 0.578666598572325 3.802737166505494 5.506811476274028 -0.27986509332660187 -0.07727553395371208 0.31900114009611513
Ni 4.2436572669135595 2.879012519007256 11.19779036014645 0.30084940888775286 0.46929548960971434 -0.18780083109948945
Ni 6.315201990205834 0.9875530452491419 4.840568478382646 0.8351642407916455 0.44524204820493646 1.379667840303082
Ni 5.701749573271856 4.938376609365928 10.712548745880143 -1.7663393871629776 0.31123229478397363 2.0203340404807206
Ni 1.0488700692600679 0.43099970384044417 8.809388339790445 -0.728655778114745 0.9684764539249514 -1.334061869538509
Ni 0.5755936929511609 1.774563021172167 4.073610928213402 -0.28922776548842444 0.14303715373055365 0.5139272693864761
Ni 1.7481418644845323 6.961744342784915 7.307493724931383 1.0104836515946727 -0.11279172458245092 0.25622302842762973
Ni 8.567377504893386 5.241998872761034 1.5552674206647985 0.8308460730322659 0.4394750638141722 -0.06956428135238342
Ni 1.5923332277701605 6.586355106970211 11.811003867368836 0.30537892132699024 0.8688091825396006 -1.3988935213019134
Ni 3.2768536241752475 2.767505643773397 8.95594627960119 0.2895013308647853 -0.39055622662628225 -0.08162095540660137
Ni 4.299970355232843 4.287883781240814 1.9511643275104924 -1.3938531306645285 1.5447262354997333 0.2659541396724645
Ni 5.91625098952729 2.0570220227135243 13.04041913438735 -0.648389022743193 -0.7212188622207257 0.7631206446608342
Ni 7.904017413561193 3.0113816674818326 0.274274933035159 1.50469030262377 0.04876817054263859 -0.7094421813007717
Ni 2.00121685267873 0.07783377415100672 3.1422806746996343 -0.24022099657241855 -0.18737788462945795 0.04325443981326099
Ni 2.5114301753430457 4.357468586215938 7.233746811791689 0.13920775268213445 0.3733030959727893 -0.9171076125346722
Ni 0.7195377347756137 6.240961267622885 3.259874104042632 -0.4526560812808204 2.225336837280793 0.8605070904318084
P 2.986653571742497 0.5887929842219896 9.848524249187205 -0.29304353969008884 1.6922851883600405 -0.12184663569586757
P 5.584232331671533 6.669268063966117 12.493835100195891 -0.155150649164636 -0.31229184639673957 -0.4345087209478323
P 8.309693628562151 5.1701190296115485 12.968530825933122 0.13074393818549743 -1.7504003473352177 -0.3766236757055901
P 3.2016723121765778 8.81051986885756 5.432444714709373 -1.3170949026668672 -0.9109765599362698 0.03285381330522729
P 8.949586013972077 7.157706741656465 9.037567807329308 0.42688231475082605 0.6506996731542407 0.21746390538156096
P 4.514838601360408 9.183755154910259 12.311732286365007 1.6232736941873336 -0.19432963335694273 1.067636960877213
P 1.2006435773809918 2.3362830202414266 1.595713706130266 -0.8538471619131296 0.4702393415802224 1.3769476131584415
P 7.020164351395416 6.173502194727294 2.8927639362651134 0.7965182462846735 -0.6880670580591053 0.48053789529275304
Ni 2.218906867053461 3.668985351589806 0.24340102605349564 1.4192558870083494 -1.3405184237971302 0.9009343452089192
Ni 4.204039640723343 8.142400395081811 10.356149069779454 1.1766597053355348 -0.597264693263552 0.007642861257238449
Ni 3.5341048293752517 4.2934896941585174 4.540817681022653 -0.0064074461882405774 0.648070977282142 0.1586841162391912
Ni 6.4072668822167165 0.34561299668118867 11.54664650913305 1.3216688951907947 -0.18874236907715236 -1.0261115879399167
Ni 0.2523573184700018 8.759389428218904 11.03936500367754 -1.9198740979907452 0.34431442204992313 0.6015458371374092
Ni 3.362625972994949 8.820951005477916 8.145431914768684 -0.12009931398745767 -1.7479390302789186 -0.28223976420636554
Ni 2.183126845679391 0.6309210435627683 0.7196383778430959 -0.4652516585576439 -0.5866838324239122 0.43711839065653757
Ni 8.49502736703604 7.110677270870358 13.626885100394842 -0.3016305100281515 0.9046148793843001 -0.4559578919605438
Ni 6.113737143252309 2.4990896422087707 9.148374884037871 -0.2436094534286772 0.3869250576315982 0.9882937457611948
Ni 7.000158014523007 6.40088968597812 6.430280283451189 -1.5184084235408108 1.0726827508312364 1.2486639635879786
Ni 8.89961249831476 3.8934005802869507 9.453714663706084 2.3785499031030843 -1.4386548603602516 0.9176544861770777
Ni 0.6333477642553315 7.922434154321033 1.4930295596158802 0.7673123141446785 -1.581633650049044 0.9115218909167786
Ni 8.68451851072742 0.35279251569139575 6.440811122549614 -1.7498118218215992 -0.2647063833082925 -0.8162856587195877
Ni 1.4795283391426048 4.307908929901538 2.8652441711399153 0.2237098862912728 -2.966072172267892 -0.9115370604254301
Ni 3.609248517797293 5.735864751380099 9.164426042417169 -1.5561290780200363 -0.4084688452406449 1.1474406605694176
Ni 6.004487682616183 4.404469839319573 6.185429809108066 -0.5884499231853995 -0.9582812585595045 -0.32871322517755647
Ni 2.9146232342864957 2.4006193362768204 3.2665231306223714 -3.010136766687274 1.2021287961409168 0.6409605914896058
Ni 2.834155809771467 7.5902273785821315 0.35372840216003926 1.4038179551867243 0.6065106373418523 0.17811060039491905
Ni 5.043346388160519 7.995960028948032 6.208392418514091 0.8237781104418909 -0.45887815093113227 0.12211068799053162
Ni 8.926503949710256 7.437221698326612 6.874785910711988 0.2361062030730966 2.549859935636402 -0.5887543417996958
Ni 0.5713394070238497 8.459858728782189 4.494452266364047 -1.798400786473896 -0.8561642400820804 -0.10355529358584746
Ni 5.782922439848677 6.669945288345437 9.260020966505257 0.3752609910301085 -0.236652819605186 -1.5591354689465278
Ni 5.567480434177522 9.27511460485935 0.5702417391757019 -0.6626879558643683 0.6085150693663908 -1.3592504529889946
Ni 1.1534165828175833 2.304820304285521 10.385939417754203 0.3414954645438893 0.1827154461567821 0.4323477087407716
P 0.11619665406064973 2.688467915170266 7.8820518289358334 0.29271083894101846 -1.4554652470493707 -0.8302922574113248
P 6.6789749467363695 1.585636231130219 1.3780932953722982 -0.4828529165791749 -0.3184905190082838 -0.7642084784083741
P 2.7318008695525844 5.831682595159712 2.0365717276368938 -1.9416891369833078 -0.04520127912698667 -1.2227590707967586
P 4.431690497010571 6.070705177483021 7.269498615483288 0.8377628547567573 -0.008306977203798596 -1.1789760121735373
P 4.955410683684656 2.950911173945056 7.387298033908328 -0.5661638580936895 -0.4798969192746445 0.11156710814673045
P 0.9777991330081034 5.969356667938961 5.4775431554250025 -0.8150885530876929 0.4957991923271977 0.1829460741103494
P 4.291693168374488 3.3300815792109635 13.494120904365664 -0.9785320383887406 0.18806514050446965 -0.15073092283038556
P 7.849688968909082 3.171234838683809 5.1969690950727525 -0.5397244329552382 -0.12470158864615945 -0.6323409681413948
Ni 8.183353658242353 5.421604421693175 4.786411221004197 0.2783689683970496 -0.4473614085407844 -0.9307259746490552
Ni 9.105516927310491 5.283939754808084 7.3512301921730465 0.07632628266656531 -1.6959582663362534 0.7025575383657965
Ni 4.096897100378434 0.8411672333014745 4.188863230500666 0.8862502608341832 -0.7577670936584047 0.175813062609994
Ni 0.7257870108536715 2.0130870911051435 12.989552058785097 -0.4426048676924055 -0.6722588873822551 0.4184853489363825
Ni 8.205551568453396 1.2317864929355515 9.573882486279913 0.18097738041975284 0.46525063011637935 -0.9272590991463773
Ni 7.7503156971380385 8.414277765696294 1.878146371167983 0.22894722343081217 -2.1352734075337936 1.3512165269409244
Ni 1.3507522422360874 -0.010466879018155925 6.385938076625801 3.0749787028633238 -0.03206577018629316 1.1901906499424342
Ni 2.503679718557495 9.005541678313385 11.736968193278514 -2.3667372267388727 -3.6117754206488057 -0.6582378905128147
Ni 1.8924188749621509 7.892495193218597 9.611574725936146 -0.7960690745623967 -2.2440436696616772 0.2947831480890149
Ni 6.543614723919797 4.144359242295773 1.761971350663895 -0.7158591405707091 0.5882763737220127 1.4458992006274904
Ni 8.871771051609384 5.76730865554769 10.740770190709469 0.6970672046751867 -0.02103650895532506 0.4718449955044454
Ni 4.3850184502024385 2.0448131720974514 1.7889126532984239 2.3833303552108633 -1.9340388195269018 -2.7537077928964253
Ni 5.98635311868106 4.646840919962853 13.320401563997113 0.3220874923309227 0.8246936802776249 -0.2347599734578473
Ni 5.871422497973972 9.08088289051273 2.9175155467398417 -1.9669718228094963 0.9593451810476445 0.005573894543351691
Ni 9.297067961822306 0.5627123209028462 1.9462770249064 1.1910730525473874 3.0529384352338327 0.5971898741615587
Ni 8.10915996513019 0.11532943061935394 -0.007463577013755146 -0.09470221407059173 1.6290615045137042 -2.7943733889365876
Ni 1.464450690808579 5.723439565198409 0.09506725342586769 -1.2319404801857103 1.1501205213944257 2.469058133696987
Ni 3.0675818850712293 1.3585873520690528 12.55415980237323 1.4215441688218937 4.950475817400591 1.3037596190105418
Ni 7.458544860381033 7.426357890575021 11.240479951368416 -1.4203632611399153 -0.020557255326061372 1.2760580393302154
Ni 0.8726374739727056 4.262506678804631 12.226035184698564 -0.9848741785566845 -0.5414434725288739 -1.2283627901367813
Ni 7.046256301787549 8.53845438035993 9.330023393180962 0.6580460862169828 0.8955196019512512 -1.1294082285477387
Ni 7.189498663907872 7.876138343279189 4.385421022472368 0.9576708786690152 -0.9390856594676602 1.315571009823173
Ni 3.067168025728312 6.562351265080982 5.089783287614721 -0.032265030681292814 0.8705981561192233 0.5773373582120056
Ni 7.2304331152801 1.9001128963827578 6.999303959333531 -0.7066358222002281 3.434337677951195 0.4889762558680934
P 8.540025164684186 1.5389265607454579 11.604038453512167 -0.3224795855630188 -0.24968754130195708 0.7422651413680635
P 2.0723818478722666 4.472512077652912 10.432016071462183 0.8464369854919873 -0.01487948821499373 -0.23149570088427873
P 0.89899937352715 8.51279510109903 13.276666037344862 -0.10305521402097735 -0.16705074303633163 -1.3235188039153398
P 3.724734086259657 9.314976784297654 2.0494154761085794 1.8100306574033407 -1.1821240708842158 -0.39603781856614373
P 7.985218497820485 0.3406654963544902 3.69035178075735 1.7568476456224582 0.12943730355893193 0.697351825795141
P 6.393553088535487 0.0666322947991718 7.4160010605185045 -0.4823602932134725 -1.6310733927374101 -0.10369619003908592
P 7.058775546910811 4.489010016004678 9.29370723583993 -1.9018360095421116 0.9029382630128255 -1.1990738113646768
P 2.4524270012947955 2.7242197188618644 5.58654618163421 0.469488836567443 -0.9649239606870027 -0.2839364351824981
