# total energy = -340890.40509765333 ev
CRYSTAL
PRIMVEC
9.09898101420820 0.00000000000000 0.00000000000000

0.00000000000000 9.09898101420820 0.00000000000000

0.00000000000000 0.00000000000000 13.31727845338911

PRIMCOORD
 96 1
Ni 6.475471738217512 1.831734043256065 11.676775874967033 1.0362029107376476 0.5034222560900942 -0.7371357905612983
Ni 4.489364384985477 0.660368547810148 6.018944019952788 -0.7415899696779099 -0.989757989011547 0.7498720071810441
Ni 2.5628735546205035 1.547154316578685 4.430765128183212 -0.6204066785976541 -0.3414900652272506 2.280145814700873
Ni 3.1220605249071465 4.287512592665136 4.889678599240327 0.9110968875642179 -0.01358725176613144 0.09532853480068099
Ni 5.199740021932541 4.55526830365552 2.9070415973241492 0.48281537847302014 -0.4187650849603304 -0.7995320934103327
Ni 7.497633054737638 6.411696981078435 2.504846623716946 0.3700910167933949 -1.2981301886389065 -0.40264401102875175
Ni 5.145737570281747 4.535732791659858 11.98772080870479 0.11075823909218989 0.18753446481198024 -1.1087715261339937
Ni 5.5248921044500054 7.8333763510245245 12.407175639184175 1.555614857387779 0.48827331626379783 -0.4722121490358771
Ni 1.9904657650838846 6.458766009282236 0.32908557196120986 0.34053310063062 -0.5092375772202908 -0.6042120711156627
Ni 2.774697830008961 1.5252530695486155 0.4181782434588938 0.007146895457426401 0.6661586880217881 0.16410991524045285
Ni 0.7227675390369076 8.849832606519369 4.419125711813928 -1.932354489845943 0.5581253040599291 0.6119356650121655
Ni 8.454299906728293 2.392931888321954 1.2477705479744574 0.3825552106986766 -0.10260167142332652 -0.021023653439518633
Ni 6.546816847466691 0.6623020812517306 4.690652040489922 0.8987355377853876 -0.2251144799482833 -0.2396270717421615
Ni 0.6936935653621336 7.407662331582953 2.1282871189018153 0.032754054502569394 -0.049586295568559764 1.491115906373445
Ni 7.768819081527914 4.060775087579011 3.704414410467267 -0.49185049209209497 0.053180183567405184 0.05503240628479555
Ni 7.62081505818304 4.04972892476451 12.817614289488194 0.5645417491092342 -0.6203043486918349 -0.30587925800217647
Ni 8.052734582599479 8.786985945432253 6.485461509349341 -0.9443733902291607 0.8705061106260492 0.32143366079700775
Ni 7.179842047769542 0.3947802140705167 0.19069826153120162 -1.124972047153256 0.8515699358431785 0.40314409059362183
Ni 1.8397138495067384 6.466290866487832 9.132310468608487 -1.06111278660545 1.499605431901695 1.4416807916707686
Ni 0.2367017990714294 4.931338283298146 1.3549401648292825 -0.3884911165671374 -0.5982309138315633 -0.1528266290171497
Ni 6.490303077087065 1.788559378878134 6.859557010136328 1.3144104138561685 -0.2932507706048885 2.489645213819719
Ni 3.7558136436821234 4.367347051095477 0.7379009640723923 -0.5218460100129206 0.5757090785799633 -0.9153626048191074
Ni 5.908732613782568 5.7383450974198436 4.866213237393278 0.41032081084771915 -0.3878113168912934 0.7742900310140923
Ni 5.174581339739711 3.010861879309108 9.81135831431146 -0.13660605339322926 -0.18961448726946054 -0.5530183218506669
P 0.15918849066907836 5.523654643047392 12.417123555003856 1.07393770628426 0.468180916389297 0.43401095537580736
P 4.034196964365536 6.327467714872639 12.737656994815683 -0.8459191653153044 -1.690482845043979 0.04603688765440458
P 2.5221101201814875 8.684686103155945 1.3276714289653793 -0.8252567518699465 -0.72542647254417 1.6330230602646134
P 6.096353599972861 7.7833410550468125 5.893494550466716 0.9658068775125882 0.45914631699085445 -0.7934375504768206
P 4.806136306092597 0.9533548229424845 12.816308585728821 0.8228358011332796 0.07536134765013472 0.4880941103734561
P 3.842463238807737 6.500239164231575 8.356751552278784 0.22553511242546967 -0.25450681706747136 -2.0328663686197763
P 4.611845766901458 1.3085699383587217 3.9010706846928143 1.0662063990782733 -0.37438398774179393 -0.3979872289830307
P 0.4277494614692512 5.592388344777821 3.593374997035006 -0.26223323917745156 1.0134085385509515 -0.8722511183416138
Ni 1.2767144062223388 1.2560597195757839 2.4378344491730926 0.4492126028169102 -0.7866706640666322 -1.0402475131206665
Ni 1.8309879268221365 6.723983104601084 4.992034855198223 -1.0266024115334063 -1.9102368320112975 -0.35533262753729766
Ni 5.6984460661664755 5.615454261363292 9.311188244050465 1.4081901161124908 0.6258674446019091 0.6562920796403536
Ni 8.84449150473015 2.1987050419971252 10.18629274113757 -0.18191377619109317 0.3327282598742205 0.7255910231464924
Ni 2.237630482294025 5.302340130578601 7.200266530199289 0.5201758213993493 -0.3289875618848657 -1.8375242348379193
Ni 0.6081140103905441 -0.03849323870407518 9.300614318344754 0.23549093808660088 0.19158318096005716 -0.19524006098635407
Ni 1.6649861192539654 1.146899245699696 11.60594121854643 -0.8324884937316953 0.21847794846837212 0.346121650461991
Ni 3.9917411194788297 7.048834920748795 1.794596552706323 0.4148729489947758 -0.05043707360462926 -0.8429392567513742
Ni 5.421191019114857 7.991434748265628 7.997984194718576 0.5734454793567673 0.4162214926028703 0.37004268005396274
Ni 5.308736714152402 2.9679146894537163 5.415577857796681 -1.312139615544121 0.6484304175040898 -2.1944134082290594
Ni 0.7216956790867031 7.615692331935459 7.1828474411613294 1.1437213027363013 -0.9199543379548479 -0.19322817276264787
Ni 5.351456429485254 4.616304267543225 7.181195976127696 -0.7462282397808697 -0.3241009232165257 0.1517951024288418
Ni 8.342773697817798 7.143655400724015 9.150209073939958 -0.7181438228398277 -0.5961112963853992 0.4379573416180651
Ni 4.5923375518485 0.38422903581706075 10.717718720693536 0.471090376726608 0.17701942421326933 -1.6179057450072005
Ni 8.163469180171537 6.958300060778213 4.796697023305313 0.07014637910809855 0.32716799217762366 -0.10194989677194055
Ni 7.207502949710303 6.167607719413024 7.08146295636372 0.8844301769063092 -0.3298303695011352 -0.0518609505353494
Ni 2.4951134438465408 5.147320792958619 2.6237830426736766 -1.6545856169267377 0.5033502652015783 -0.5134040498931546
Ni 2.506414378126286 5.304842350326531 11.333603260774018 -0.17237549768335472 1.4210155500119332 2.3981969879100506
Ni 1.038876144436304 3.4179047899406654 3.5870757725568514 -0.23242566889771585 -0.524080041549762 0.2540499320357108
Ni 3.598592352683964 2.7636698651562632 2.727125628161303 0.42878878774491963 0.7443582764516664 -0.9972090459729537
Ni 1.387612785450626 3.3458317622193605 8.32163403548919 -1.2413517461972816 0.031258958014281656 0.34198037460010783
Ni 3.524635835916035 2.8936579063160357 7.2381801638199335 0.7052816221651789 -0.32749992159574565 0.1873488311637354
Ni 3.9613869191912054 6.8546808662711785 5.960214647723629 0.8551296281699788 0.5502626134824007 1.0001979533979484
Ni 0.8221329599724596 7.3770260628873805 11.3502898818494 0.11082740176722848 -0.607413865882412 -0.21619737996431154
P 0.1742454842649899 5.3012937477749205 8.078860486462146 -0.38131799585746584 1.1003172247190534 0.1971838149762862
P 8.553697174097001 1.5637508577431416 8.010715488796047 0.766365633960693 0.3839505483843065 -1.191947741842857
P 2.185065669625678 3.3878235590800876 10.534407011858226 -0.8555152936441717 -1.5495938480046796 -0.7860379155786399
P 3.916883803601646 6.053242628461241 3.8108852255888523 0.8890188247182561 1.9009353521047132 1.1813144304987269
P 6.934861085975778 3.8597604015016143 10.716480349392834 0.409236833754921 0.6594010575829804 -0.9389727880388796
P 6.271909337487676 7.774451350705983 10.16641055796956 0.6525236137368569 -0.540135809461044 0.11048338816424844
P 2.4139778311472764 8.622276193152105 5.849041479272114 -0.24701385112453592 0.4259214934994536 0.28336179362595065
P 6.986770772019212 4.106215398201432 1.5828514384517092 -0.024979295653156982 0.4176762227715258 0.8513231099396952
Ni 5.512790459850922 2.852121058500386 0.5051881582282094 -0.16553456350212137 -0.6491744947589658 -0.4106537687071057
Ni 1.4679021929260447 1.1430958716828414 7.07030305628795 -0.7287982172298804 0.36433945902159837 -0.20641021867056064
Ni 7.2146001548135255 0.5908550634164538 9.245840273113506 -2.182022233653558 -0.8922589289221086 0.33014224431459915
Ni 2.676356044424835 1.5636689669150274 9.498988480164517 0.7592567908300537 0.44630494225181194 -0.9143477904013478
Ni 6.352089557192276 2.1297165688014514 2.5999992164950734 0.28174636950971477 -0.10460276101375533 1.12919431276472
Ni 3.9634796847985654 7.095121436595061 10.472494816109702 0.633175034006916 -0.005256106192616754 0.13170038856149577
Ni 8.16406061393014 7.259376239830131 0.07836042352428683 -1.0154957600972834 -1.4959320968151655 0.9219528564421156
Ni 7.564037417357268 3.726433034350967 8.430915525811269 0.24161042072077743 0.16937347763223734 0.008543004474004641
Ni 3.254405202120425 8.426238649627864 12.553239759800833 -1.0646465107903214 -0.1212722512496363 0.26004343061498436
Ni 0.3607263681483156 4.601727700138916 10.353158041993302 -1.193404014673409 0.6196536024817134 -0.08194568573587177
Ni 8.771908934078358 2.2185135234198348 5.6867711637716765 -0.6466859240091573 0.025698690317684774 -0.31994344940472635
Ni 3.790662740535122 2.5715084874960894 11.783873609872735 0.16320231582451894 0.6016116573783381 -0.24297053429309765
Ni 1.3892233050702032 3.41067110012392 12.543078017929965 -1.4250226142887974 0.44158028308263303 1.2096973525167942
Ni 3.0734082740264728 8.830042323058462 8.005948532701716 0.5318699699078259 -1.2274860439587827 0.45715448337180625
Ni 5.775286959880201 7.672642853398361 3.47173436095433 -0.9437275291150456 0.6814246130419233 0.296734872498747
Ni 2.806553362145344 8.304585274973926 3.6075038945789575 1.9289117827129814 0.25817295306514887 -1.420926589842553
Ni 3.478658685420422 4.672326692954167 9.399561186158836 0.9142966254484383 -1.2497278860761185 -1.5516383892385341
Ni 7.291259068909219 6.086017157668682 11.472449159841466 -0.3333373542131292 -0.2564099476274552 -1.1334325192157833
Ni 0.7350520731521119 8.670691870529337 0.11173457557314095 0.6050510220771902 2.2275862954366024 -0.33171884477309965
Ni 4.596304707521583 0.5635945166353619 1.7042518614365836 0.6055562438483828 -0.9621633672227301 0.4694101608107077
Ni 5.981142303797231 5.818306941582804 0.5521507283554622 -0.08560539397564612 -0.8297957773908805 -0.24755069746461236
Ni 7.944620491527071 8.68541402162807 11.424933371675397 0.021953621452955742 0.3038051490819671 -0.9806778810871497
Ni 0.24305379763881266 4.78238796593951 5.616335952612653 -0.41851054574736307 -0.14677090974137302 1.3178518354375497
Ni 7.717255156758739 8.958592725235789 2.3826609586802663 0.4022526891276039 -0.6920260427068533 0.34887453061677987
P 8.53015811050465 1.4180579755472658 3.5020448861336266 -0.5705115935394239 1.4815328906707 1.291583388659324
P 1.8828612169419645 3.2821934897938077 1.4501846573145152 -0.6006798895926881 -0.17207776393727783 -0.056386092099212574
P 4.791486946841076 1.345466305914572 8.48542388080019 0.08957132060192961 -0.6773650982605689 -1.2071769000877857
P 8.809951773227805 1.4847899014793513 12.476491675692303 -0.4701598944925387 0.18893391626266817 0.03597487543271223
P 6.15137513748463 7.786898756579325 1.217585588731602 0.6973808792608635 0.7423065361289602 1.480660772478392
P 1.7524364246989166 3.075819503965388 5.953742542608346 -0.5552983761340953 -0.04898568587008338 0.3239101473619583
P 7.0991977800389625 4.0629679419762885 5.874158306152799 0.29615277474303187 -0.04066662448142674 0.5997473504760897
P 2.403140944893511 8.631493460805391 10.438828586773907 0.191698880602315 -0.4491424117006071 -0.99633795622191
