# total energy = -340897.2159419978 ev
CRYSTAL
PRIMVEC
9.00970961855060 0.00000000000000 0.00000000000000

0.00000000000000 9.00970961855060 0.00000000000000

0.00000000000000 0.00000000000000 13.18662074216151

PRIMCOORD
 96 1
Ni 6.3636030554773715 1.8339714711883628 11.271317199368461 0.7997874039542484 0.5445511649199202 0.26375070426324254
Ni 4.8335290946581155 0.36348232492810584 6.041450071182683 -0.47801230065742184 -0.8837807162477681 -1.4761425728930642
Ni 2.7743959667358564 1.7231430313706817 4.855656941840639 0.500712313358099 -0.9506119149397049 0.21971490619926679
Ni 3.350125430420893 4.312065112886899 4.741315616185635 0.3052141136143518 0.046307624817287986 0.4728808929681276
Ni 5.129290837109544 4.296442276154612 2.8126007400228166 -0.5792947390486926 1.3454744822508247 -0.11349749240022389
Ni 7.059089581357076 6.129981281274261 2.822147428489674 0.6462102699243193 -0.9870256776820484 -1.3860035527131225
Ni 5.180583114800955 4.447760351655624 11.484795064479274 0.1299299269246343 -0.1210375095310109 0.026141177171742077
Ni 5.7313466727275335 7.80643599664338 12.396492100441474 -1.2872937601450347 0.35910340743363967 -0.18775198013942504
Ni 1.8276556646431878 6.328654391299437 0.37396962709441595 -0.24217863451942165 0.3588830638927174 -0.2570113286568799
Ni 2.7066519590137896 1.670499297214539 0.39057992801693253 0.8033954330204809 -0.7337087671576202 -0.6560884482699798
Ni 0.6737226709716816 0.19594947476325483 4.672666132632199 0.5738954224099923 -0.3160104328989074 0.845328582919157
Ni 8.478668461619952 2.3358303245112197 1.2349428980513693 0.13441727327202657 -0.1902634337073691 1.30117694588503
Ni 7.043908220403268 0.8302699820202253 4.739403755773529 -0.2514963123759217 -0.5858713638249459 0.023932856666513624
Ni 0.5185250144459159 7.510196739574414 2.4381400837462146 1.5433982607169292 -0.14104197767739582 -0.49247321327775834
Ni 7.5817248253977265 3.767986759605855 3.881824442485003 0.4803813151102307 -0.1267291605991495 -0.6395264301462406
Ni 7.461679452490582 3.7786993045162873 12.622379038811443 0.3279241536173578 0.04476701980304548 -0.1942825821690912
Ni 7.951744595731223 8.713515556351085 6.928527174241398 0.2864085508720745 0.8409577075449711 0.3134071909481054
Ni 6.802844425934373 0.7938139933986268 0.2953527016281026 -0.14651122832208316 -0.7905275759188772 0.10740834878335048
Ni 1.6218288450647047 6.558429019432948 9.25034830103922 1.496674888518461 0.3102503904866786 -0.7110313801647625
Ni 0.022975660871398115 4.818933364839024 1.3710264553109608 -0.2841084419839881 -0.08186006800060096 0.952214226429818
Ni 6.467385902258924 1.94889932894906 6.855025061008602 0.3301993228047797 0.20122018982918893 1.2078009068250295
Ni 3.54654611300485 4.218319082783413 0.39539291497332674 -0.5390554319126716 0.0424748813347591 0.3150794364442058
Ni 5.827435227369885 5.550783079329749 4.91448223786646 0.23337594862612712 0.7318215774372363 -0.24115173591680403
Ni 5.378274166461759 2.722013514162895 9.258129086392161 0.24193720793257692 -0.0004820818427411052 -0.5258654155849589
P 0.1420533909497952 5.550819118168809 12.44679871588461 0.1130614333040698 -0.8411024606529515 -0.9807452439899753
P 3.978462589423012 6.01813474425315 12.546081212638608 0.05560884761355585 0.704697981747567 -0.5676563834788159
P 2.3642559588193883 8.36887613842523 1.3148779440562832 -0.4041427070614653 0.5880866263087098 0.1349957714833159
P 6.489054254243439 7.609267508148937 5.87012953903268 -1.3069133341481751 0.028889172230524438 -1.118293863802132
P 4.6567946279104016 0.9698502076395632 12.476851503776315 0.21661698400023338 -0.22539473019286344 0.43215127645924933
P 3.903727046923405 6.104186482217434 8.298564363420176 0.04833519677027805 -0.2787687749386296 -1.184935572191082
P 4.738296462443427 0.9857343259550312 3.8974247549428775 -0.016141128536236716 -0.47599527022739313 -0.36732193868868995
P 0.14363369404255358 5.697226901847966 3.52721037487846 0.2941439718431192 -0.9185384314439278 -0.09028685861171548
Ni 1.6203692720827956 1.1163210592870747 2.5545518407051864 -0.5859852636949909 0.31269268137958406 -0.3645189220222561
Ni 1.7631191135974154 6.518011461427735 4.817283686981076 0.6301930685604565 0.3906287317354305 -0.6701665236296007
Ni 5.886448826329791 5.5278443582683865 9.303820027522754 -0.02493378712720222 -0.06628638193206003 -0.424104752005689
Ni 8.864112855070909 2.2272993606835807 10.029941368544973 -0.9775462774367035 0.6653999554788927 0.5393698778292969
Ni 2.3405694318475416 5.274148950709144 6.97055296543964 -0.6088030329204547 -0.5499723359354916 0.361811550393422
Ni 0.544474780510698 0.04614593147371745 9.114988223473746 0.014606951279897423 -0.08286176979223794 -0.35848017202734395
Ni 1.4412652516669204 1.0749304526272563 11.417872742287761 0.8511359336295535 0.02053180140476464 -0.22298817763389983
Ni 3.8936902302453387 6.812719067836673 1.4301679921495285 1.487337156057303 0.4913231588337152 0.853084315605176
Ni 5.498445675305613 7.851295341562674 7.895106857236313 0.7572808980506055 -0.3657553655325185 0.866888825588436
Ni 5.397933353168709 2.8604927532489657 4.819473046453941 -0.5863729860517127 0.19733628139375048 0.5013347774334462
Ni 0.8736301112346444 7.395367988621131 6.930400292901514 0.03777284787339946 0.5225844308408419 -0.08858735942210551
Ni 4.899930655625216 4.480276394197045 7.000552596043732 0.5704899962728691 0.7214772580884349 0.3439210432662464
Ni 8.021272525986735 7.245671660877795 9.103252175534024 0.7388746276292759 -0.41503235739077554 0.6484674413896122
Ni 4.702473856418299 0.2219938427805681 10.28354667900657 -0.6532712905361588 -0.2077399932255777 -0.2582853102732971
Ni 8.245037677707076 7.450435334704022 4.519265913204524 -0.9298610555455985 -0.3116549841436891 1.0063665441025054
Ni 7.162737282492155 6.078103372448132 7.284342236159599 0.08001453015142995 -0.810073616371605 -1.7060817279235005
Ni 2.2902321833912063 5.340433385449301 2.5467719563232203 -0.6638490660520051 -0.5408276933217461 0.32168511468618144
Ni 2.287267988878564 5.325387170141966 11.233682740709616 -0.37036998148639444 -1.1401484977833782 0.9794586639680679
Ni 1.2466104721968776 3.3730911806115493 3.782964501118977 -1.0834266196113016 0.1690952842701862 -0.6548769444603818
Ni 3.6501577753008694 2.5105466162716024 2.7363821992959116 -0.29717144581553334 0.3171350334216538 -0.5997949158845736
Ni 1.0983917368549811 3.397273241620464 8.283940703500814 0.2737443251408447 0.3837911399883068 -0.9290604140211741
Ni 3.6065507800388925 2.6231409592031985 7.1770555132504885 -0.5058226380014708 0.1506386202268954 -0.6446208139500124
Ni 4.014123020672373 6.82131433095236 6.007600591596063 0.1435194926836109 0.7256277899216986 -0.029408535069104194
Ni 0.8820118442289042 7.398341192843538 11.401521921006474 -0.9491456148068235 0.07518239887010922 0.2559222093577592
P 0.23426326553836974 5.616121494544596 7.939242722461487 -0.634648790338965 -0.9351672982498603 -0.20142382119956279
P 8.565567112302135 1.7133765059855612 7.86016269791326 -0.4462866874193669 -0.779270257837503 0.3937505651938638
P 1.8312325194198416 3.2883278311436412 10.534936501836981 -0.24665852466764615 -0.564541234888602 -0.46479837307030925
P 3.9047451441268355 6.182652044559698 3.7754486012331214 0.4731246335478175 0.21811336604010176 -0.09349251003320672
P 7.077982942734012 3.872030887970588 10.333431640032709 -0.9891748628145672 0.029222644310543222 0.862273695413928
P 6.236313875919271 7.596671933897649 10.218048791928885 -0.21751841276858022 0.041850103266566636 -0.3167889629361447
P 2.4498842404247245 8.570414336155636 5.822051024814399 0.46560467102168845 -0.6205030949662024 -0.7358808351082746
P 6.887760940468286 3.989039988686971 1.727684826063153 0.48271819077352346 -0.11976764167965179 -0.9781731123874251
Ni 5.329603714311925 2.742375458231504 0.5416565432962462 -0.11796864079770006 0.08129931040112451 -0.348986887824928
Ni 1.6283518749344714 1.148710965891787 7.009480317449743 -1.4376462165900787 0.5591989967400821 -0.03419824314826368
Ni 6.99487737986284 0.5441801630013867 9.143048964536439 -0.5613353263567946 0.6554873243508711 -0.5433512310745481
Ni 2.6415748253821247 1.5567697308525694 9.207663900057167 0.2968462012656307 -0.2903973603164934 0.42221010608613735
Ni 6.227141991378632 1.8882279433924172 2.619179389819584 0.8151057794788735 0.4682577923738193 -0.20917081213483335
Ni 4.037512227221978 6.697629035300208 10.364209709560484 0.210483874519302 1.171021276102835 0.3498518069283846
Ni 8.155183842222016 7.103930906856841 0.35152373715719226 -0.4069279831160863 0.7216600635232023 0.3524311376197866
Ni 7.540045908025432 3.816738299143573 8.22114572935259 0.7821326669869627 -0.25934691876859206 -0.3402356239948592
Ni 3.0130992172463547 8.189411729618762 12.260471611150237 1.016406444837011 0.36694604340651 0.4932116341056796
Ni 0.078152024442446 4.878145177413758 10.072811369548182 -0.36422350226902434 -0.42664654459093615 0.6723483617722679
Ni 8.656457064410155 2.5121503446097493 5.764624035744085 0.5728880641914005 -0.16496275015905137 0.13638725251420383
Ni 3.7840961206654447 2.5552347767053636 11.224504549372142 -0.23431722949347386 -0.2684421962016409 0.6021680441024403
Ni 1.0138986786800186 3.321861970888492 12.749655604775873 0.1005221631864785 0.5968749140243012 -1.526088822904204
Ni 3.2022220349207666 8.44272872936788 7.924434363491945 -0.8635037111662871 -0.9479168846060448 0.5661836555880313
Ni 5.6707113260099495 7.90474093988789 3.593908355296825 -1.0756973692878442 0.41407642123540944 0.6341960190722626
Ni 2.9938815063178845 8.352685689977758 3.5153157560468773 0.7686965960867148 -0.4436127401316296 0.6075979568687601
Ni 3.4440606644294403 4.084155494674716 9.242647702103184 -0.10874018022089658 1.0133082655276613 -0.10823315867749102
Ni 7.237319659925759 5.998376450738787 11.409275677230122 0.33336075125189685 -0.19238330826384933 -0.04194214875974067
Ni 0.5733418905973454 9.173686482591883 0.3424924040888853 -0.30412859385965685 -0.6957664835858921 0.35109133576244056
Ni 4.4814836953055375 0.32580732257532036 1.5838321960733133 0.22714025212906042 -0.3466865218265255 -0.20280630336938618
Ni 5.893422341687802 5.625933068478541 0.47241962666614035 0.43236467802163603 -0.27074847573731436 0.18874828261442333
Ni 7.864683770273272 8.703487749382782 11.281246800500325 0.37861499510400604 0.12954734677423496 0.4221142039382214
Ni -0.06727730475624642 5.029526320883124 5.604195341728835 0.05988999148741299 -0.07187698864596008 1.0294036284276271
Ni 7.722654705539843 8.932748824059697 2.461335581535876 0.06389397044048352 0.22809567406379427 -0.18481192367449462
P 8.68654048531506 1.6211981653811636 3.4817428745500374 -0.880644998832264 1.4110450690627827 -0.11399808618572624
P 1.8957150122070252 3.3293490397030996 1.5506935825871404 -0.36372702224858006 -0.019242136059063636 0.8358792645807992
P 4.709591527132547 1.017106135356313 8.058449291389522 0.8445834772230165 0.3405420994916845 1.494395348455665
P 8.511517863422672 1.5974395607311982 12.240599795292836 -1.080601491457681 0.36977785642835026 0.40196472557353996
P 6.2545945770321945 7.712527791764127 1.3622699183904825 -0.3437858032399628 -0.19200844142293383 0.37833217375626454
P 1.7276388765433524 3.359396421768945 5.996523153440154 0.4906238187738453 -0.23264704087990257 0.24543262268034508
P 6.8809315804665125 4.026150983208475 6.107422769964977 -0.02605941609121318 0.0043076262364183885 -0.6541588353474347
P 2.375536115445007 8.427186980023478 10.094133748677727 0.5137017836392314 0.8694766409202703 0.5053135595755361
