# total energy = -381172.8436121522 ev
CRYSTAL
PRIMVEC
9.17837830172731 0.00000000000000 0.00000000000000

0.00000000000000 9.17837830172731 0.00000000000000

0.00000000000000 0.00000000000000 13.43348440927023

PRIMCOORD
 96 1
Ni 4.831544134642986 5.684683559342979 5.934765910160703 0.31572478333768855 0.2417736857715191 0.9976911278156947
Ni 4.522902813577191 5.119350537374722 2.09453525796062 -2.323346775568379 -0.6807527837858792 0.27989003302726634
Ni 1.9331591781663173 2.1671802851105753 10.84997004353633 -0.1310583841021227 -1.273438085208865 -0.440564440223609
Ni 5.268994814255107 8.180523208200661 5.040256781757142 0.9989782220582343 0.6089518997934932 0.6548874859833431
Ni 2.0994530329577072 8.353003289845423 13.259896401832732 0.04934126943728922 -1.5827605645646352 1.7791715059306392
Ni 7.5210842753605585 7.871588179035004 2.9151465106007457 0.23966820939274205 0.28828288507665195 1.792491105857681
Ni 1.1056366068012817 4.324484635363246 10.462575484681237 0.9386310884287449 0.9810684316573491 0.24685752805232972
Ni 4.202182746904515 2.8302354989302465 0.8120983069331486 1.7993479808785142 -0.5802596740651232 -0.018436609438632765
Ni 5.85902685174625 2.325314561752636 3.121592098319082 0.764072209940826 -0.6415974537426564 -0.6986574319804418
Ni 0.18743441311686782 2.58869730030511 9.254756912099676 0.7016016022104303 -0.22362735387979552 0.9017907796719438
Ni 1.7735288258905775 6.627183673426401 2.898623594307807 2.1390927812798837 0.01989879580645605 0.4772389128265071
Ni 6.112138985181626 8.811940552638175 8.127244558885447 -0.8044385295730145 1.0292208229928599 0.3414743814979667
Ni 7.357176798880558 3.4887933074707598 4.782723423581009 -0.6464059308748932 -0.35485234546676947 1.4245929829505466
Ni 0.6250594819132842 0.918819898531939 6.743017558823453 -0.875348526320015 0.45641811942641397 -1.0675438869427742
Ni 7.94281239325187 6.769237431600943 8.43327279570027 -0.010127575352305138 0.006810338053614078 -0.6759011121205327
Ni 5.656285657437439 6.718453465458944 8.462584864066635 -0.8370910255007132 -2.187375784655988 -0.776118856692715
Ni 1.8651932881823101 8.405347580267948 7.604628626528881 1.4202038527439151 -1.8260949099550552 -1.0064958705915183
Ni 8.020030088381572 2.4606313903865615 0.17904721119014455 -0.6133240607192598 -0.47007967607390655 0.2674968015692361
Ni 7.020825954268279 3.834900768025375 8.682652082753945 0.7143167357842537 -0.10953747931121134 1.05050801450641
Ni 8.667225064808623 5.964890264990752 10.395864278986334 -0.5900113541352484 -0.2127706136709497 1.0493834139836637
Ni 0.8723763874032321 2.3247087887966678 1.7555015734236512 -0.756728110870929 -0.6650232888657643 0.8516365274150559
Ni 1.2498564622123154 6.510306206437023 9.001630093259307 0.2629325792373214 0.15323723419200708 0.5958449300978899
Ni 7.31861843239537 5.0986257595781135 6.5204382180444975 0.5054529133668779 0.6321424789773435 0.7301475321689231
Ni 7.713958713189583 7.261216855628324 5.748833079704387 -1.1231511918944335 -0.26041161258768053 -0.5333303565034363
P 1.9412086157781976 5.329113190945891 4.704392391185261 -0.8532871756446015 -1.9265849343520176 -0.6405137337601743
Ni 5.878237197152938 4.026949151823533 12.805522628641606 -2.6017409407764096 -1.861467633027394 -2.6801053369189263
P 1.6097498467042677 2.668815362920964 7.335569061108735 0.565543193790555 1.1078916946322017 0.1686481694304386
Ni 3.020558347641708 3.472419080903377 8.767067462005926 -2.029762532883472 -1.9158896594217008 -0.22067855566411673
P 0.9362955304738093 -0.2350839631306387 11.651317716176669 -0.8639066030316604 0.7587502835072804 -0.850509098678832
P 4.112152035918272 8.3240363284964 7.0403814066923065 0.29843282902646023 -0.2705795542596178 0.3179115065763622
P 7.45387101238245 5.841386008998206 2.335639319300645 0.8232348363439111 -1.4399586667733395 -1.4545882437610562
Ni 4.692363208820232 3.9428660298595246 4.283790460289364 1.8675356935983451 1.0137772347442797 0.0902673182276897
Ni 2.504467324291169 5.17953316271235 7.036431950586957 -0.12824868256746944 -1.0043754818144057 0.45210432254240845
Ni 0.5161525184839478 6.07008365663244 12.542347321434661 0.2114945751720035 0.2428808027927688 -1.1055283366063478
Ni 5.239412901571995 2.0277240079442005 8.442044571670252 0.19002046445862758 0.19245735603489433 0.6979151544977787
Ni 3.426013201124965 7.296406757343203 9.144132674123952 0.7154014842080002 1.8067851538828497 -0.9896831699095536
Ni 7.074868244643139 6.851741872528187 12.10160802894188 1.1484675591720348 0.8090271773849614 1.1230316355974337
Ni 4.304099457557103 6.57877690721767 3.8557861674390965 -1.0781406886220142 -1.2337155698082625 -1.3137902637736665
Ni 8.512936528599147 2.8241410558580813 7.1892381787299335 -2.6159861378415137 -0.8769724350766832 -2.148642115531216
Ni 0.7536246956016005 3.4043338720038 5.365212669932535 0.8193290735316018 0.6701356703916653 -0.24742934139539965
Ni 0.3410419136697844 5.002748421728966 1.873111474987064 0.6968234640954968 -3.173017951726948 0.5603215403802996
Ni 2.3160443998506985 5.873923359436195 0.7909485702295498 0.6593524637332322 -0.3211675516198146 -0.9423548171372351
Ni 2.805444699626154 6.477144726286825 11.795458637535864 0.9451709464297916 -0.888590736041902 -0.8100314502797598
Ni 8.997334612298806 6.891933990318865 1.0707964012928017 -0.9931449032059089 2.7515143847895325 -0.248061832773076
Ni 5.3046619916322655 1.0825346290714037 6.279831624798615 -1.1736800538819205 0.941850366696991 -0.2166072138082205
Ni 4.075511950460317 1.458306607712219 4.188627200258009 1.2196248960431513 0.7277610342146176 0.15457703604935316
Ni 7.948870122811552 8.37042385151857 10.45967328151946 0.9457077927698679 -0.6986260645218741 -0.18757637379350922
Ni 3.806952606647751 3.1340398147264166 6.250317632113595 -0.8329024413406624 -0.6686721984722612 0.43797765333303923
Ni 2.714349296777907 3.2628032813821406 3.6613633372211045 -2.2674003421097466 0.736471417504422 -0.9629418972599675
Ni 0.45344400348749486 6.678812050355509 6.762805224213936 0.6715682890731337 -0.3107988067909809 -0.5902574087077834
Ni 2.9534460468229287 0.8998390125782689 8.957756528004404 2.7340288264102592 1.1539026141446773 -0.8744185583065779
Ni 5.855942916697684 6.115590055355021 0.6319772255028785 -0.19880746662263826 1.0946726248387664 0.9798371303534094
Ni 8.194667088884707 3.243482795438003 2.8028160121323773 0.22972601057836567 0.10333392160366074 -0.649098904326024
Ni 8.840338454543714 1.4047324146215168 4.4147668339099955 0.5369232160610173 0.8765350904289484 0.5365972001801662
Ni 2.729108128796041 0.5164673368534888 5.802136510640527 0.1796954283835357 0.5688172365561365 1.3263583302466642
Ni 3.2834270970194215 8.70465449078496 11.066168575845756 -1.3821816078638711 1.2366723384437412 0.8866467249416536
P 4.883457041293836 0.6823766176016202 10.223646698955823 0.2821325492045399 0.06856540777422385 -0.6957711115715823
Ni 6.526019589779714 0.2242571482994253 12.135205482052815 -0.15211726165495093 -0.26780070596290007 -0.17136376858938873
P 8.55594640847289 8.78446966692283 7.827194199740656 0.039109050186319744 -1.5700148348631928 1.3012815897836945
Ni 4.190673060741119 1.8343814728310188 12.010353840152145 -0.501892192598813 -0.2797725336127956 0.09241804602210535
P 6.722712232906962 0.5607089550710326 4.074294897521509 -0.47680491061288205 -0.11524275722610476 0.41414738368266096
P 3.1930567860427117 5.374922476146455 9.65271027714486 -0.9110272106685471 -0.9805290142141114 1.201123494804854
P 6.052543776043725 1.4870349312301046 0.3795002358334561 -0.2229915200680095 0.3144166060492263 0.6352843670404349
Ni 1.7487655617208473 1.4573520563876632 13.077712021000922 -0.010682162304194507 0.7160293475999863 -0.19390771532817574
Ni 5.22754525866189 9.089981161049456 2.433434938177026 -0.9679102970088362 0.37679825361024144 1.4654876642823793
Ni 1.0048947285481469 0.2010156592221123 9.369694069954333 -3.375990862581186 -0.3730231028385253 2.523977925663318
Ni 0.7020605673193381 3.7808492992723948 13.006474039216874 0.7938448132175683 -0.08187729439178157 0.3451032364998056
Ni 7.625782034583728 1.1004967150536726 9.093501986896568 -0.2766584134638461 0.8645534925870401 -0.2537048899914663
Ni 5.4605108521222645 7.759263187593508 10.597514164136587 0.04660792966652619 0.14896817450300795 -0.06714538749824564
Ni 0.5510294375049105 8.45852710309946 4.847271285552857 0.9131727962566403 -0.27917680901032565 0.19789549633133016
Ni 4.444115615788843 9.158598715880034 0.17300875622451614 -0.7725316535620889 -0.5624450144812055 -0.1823385224333376
Ni 8.836914919504682 9.22252611949092 13.826951287536437 0.3827375019128118 -0.16256056847546196 -1.9967302850188515
Ni 2.9185131396954294 3.9059597714360685 11.963632224166378 0.7834081912652766 0.842255343310472 1.219452117910713
Ni 6.379578566863462 5.424494896376519 10.447140206195604 -0.4444241802893314 -0.2572221591161054 -0.5849856187858828
Ni 8.510238085431652 1.3695884047972409 11.37259974346008 1.2608265670924415 0.3128808861309902 0.23656051700169584
Ni 4.689517911602806 3.7972510609741397 10.289941206284045 -0.508374457889047 0.5468412465056777 0.6775895555665491
Ni 6.521035730460158 5.889866202231903 4.1630369642196 -0.28191194855330154 -0.5244770198778644 0.910109069729652
Ni 3.1584543005275587 8.601122385583123 3.861146340261603 -0.7272023334976703 -1.7752654860080135 -1.8004918646749701
Ni 6.205666658231867 2.290078768147153 10.884118199334509 1.6907142443284946 -0.33148744548858394 -0.3602187519850054
Ni 8.038900833797793 0.8543830949353526 2.320822663500351 -1.1676281912608857 1.4001376781216597 -0.8574809020109748
Ni 6.572443826314367 8.26495510853326 0.9007485898500334 1.4492069248444848 0.3245521518213314 -1.8906946482133116
Ni 7.353955188160182 0.2075616784978171 6.17985981246981 1.2159209648290028 1.5652459527196398 -0.6543773791161439
Ni 0.9293474982364165 8.690281150647897 2.3358146263227515 -0.02815126562323539 0.9010184202822934 0.10263432443347485
Ni 2.6627117414706785 6.958073383056847 5.687683053312833 0.7403380995486798 2.692693200886266 -0.18470907954804316
Ni 2.8709874977862886 1.0157527498649708 1.7863978298536534 0.7416550185878904 -0.4572010203390255 -0.16671264297062255
Ni 0.3522422884905115 4.59014361168966 8.049652385928418 -0.008060408410631279 0.8997017583533989 0.3062816356469177
Ni 7.695996627207314 4.896077311209839 13.436439751471541 3.740913962020396 1.1506144303117087 0.32218982223674186
Ni 8.020479828909489 3.7814091803377594 11.369697540298304 0.4023779018515586 0.0613164395212944 -0.5326248457959795
P 2.4219261698514427 3.632499173707032 1.314472244182256 -0.9069211589199735 1.9427641152150412 -0.3195459568559916
Ni 9.096011355474776 6.345306502960656 4.023382434085818 -1.0194714569155796 -1.504788518764531 0.8561853231280029
P 5.011899264715334 5.931838925378002 12.19386908581146 -1.1293310954529003 0.20324081980364353 -1.6509058540823054
Ni 4.878711819805418 4.467557193509188 8.016055850655297 0.46390517183207847 1.3722255250924238 -0.17344841903255934
P 3.5018724962928003 7.608260510751254 1.7661273817740206 0.338903535446997 0.20294000073377308 -0.1984356851055163
P 1.899208357497736 1.1453973408202849 3.708904582373051 -1.9050061797399775 0.46239207762166173 0.5287838747833344
P 6.078536942881634 3.3679507811332257 6.587981902634951 -0.5409855590558489 -1.063980595071548 -0.13548710929743762
Ni 6.37651298857114 3.949382678325243 1.589557414838661 0.47307475414648853 -0.33532790228059667 0.9111416247592244
