# total energy = -340867.47221055825 ev
CRYSTAL
PRIMVEC
9.31149172852662 0.00000000000000 0.00000000000000

0.00000000000000 9.31149172852662 0.00000000000000

0.00000000000000 0.00000000000000 13.62830936470576

PRIMCOORD
 96 1
Ni 4.355059108172147 7.710836873472864 6.021776994363018 0.88208841614701 -0.611876786749772 -0.2234293789363765
Ni 6.577162772495419 4.969570995597252 6.24194255724237 0.6565273355796113 1.6932753201874515 0.5091583872429231
Ni -0.27613321422502035 4.365050338647291 5.535928504269132 2.970773691508619 3.382647191555439 -0.21481232669132683
Ni 3.244645113184366 3.8281683566008224 1.6221642612351677 0.8349215286532201 -0.23307538666657282 1.168384095590304
Ni 5.985221940682383 6.998330848563681 10.591703426700299 2.120124981928129 -1.0221022096702075 -2.261002409003203
Ni 2.817778404263553 5.174246892218074 9.912782089654815 -1.1325850836138236 -0.28485303345949653 0.00697591709720089
Ni 9.15981670264167 3.1155226593178016 3.4135239115399103 1.0267955013808188 1.649883583465378 2.2757240314840934
Ni 5.501005755064074 5.683790334958836 2.4511738066093174 -0.6175270430570139 0.43649386969866116 -1.251036063364581
Ni 8.890342136052043 2.45910905974158 13.14072890497238 -0.10223657477442392 0.6169310613442278 -0.17852506222451833
Ni 1.911807518606867 0.1162604905344894 9.485112730159019 -0.6759468777568036 0.21064816801130817 2.5167824363561433
Ni 5.833044233641115 8.744440374341853 12.004631953883441 -0.5196058078284922 0.79057719820989 1.140663489746584
Ni 5.7759834131828836 0.4157422699192711 2.6537453061309955 -0.254210111762659 1.305045427701501 -1.8138266341106632
Ni 5.628098303764206 3.8877432797881215 0.9680580492747342 0.685432962870368 -1.8275429552554912 -0.0852778354328983
Ni 0.8901897697114161 7.278327400649033 8.90653575107471 0.17084312019922834 0.9467825138912855 0.7368321432779504
Ni 1.1250237252911366 7.095254164515009 12.192008030280807 0.41144541137046553 -0.48737831525335423 0.9910445690334547
Ni 0.8425289000124178 6.703268303087103 3.306814217928399 1.6158012970696884 0.2491987745909966 0.4086691341769091
Ni 8.610932207936804 5.82036198209671 7.799181512223121 0.21058414754259216 -0.805289050498768 0.16695252689557052
Ni 5.753589275911008 8.8283182905768 7.7967968392271425 0.02621085406741292 -0.24669066345716223 -0.06301105361489794
Ni 8.819099913903553 8.733192092502176 4.633856340140819 -1.042246031607934 -1.9315091111265124 0.20068797147480275
Ni 7.434211081342778 7.301000882668583 6.4817600231205965 0.589388632949585 2.0479194062981567 -2.9413466444967535
Ni 3.631444473797122 5.740599745144162 0.11820566112746016 0.12166871535710658 -0.2600429163943521 1.163877465969202
Ni 1.9920818875968183 5.045729685304804 5.406404725115077 1.0437629824730927 -1.0809856142699772 -0.7072266617066917
Ni 5.345261746744166 7.9084453479775325 0.7086948314017498 -0.4008141569088645 0.7916231229759011 0.8411212297060288
Ni 7.280618027579962 1.6522590020512589 4.1534448299858315 0.6529529879647916 0.5771324412900513 0.10071396748231043
P 4.442549883143679 5.420861746956372 6.314213699211458 -0.7284470045380487 -0.05579268148958779 -0.5276381912146654
P 6.777797481766557 9.170087277864488 9.924257571889267 -0.016933799640861155 0.10508535707712871 -0.056309987445638504
P 4.13045661955057 0.3083016242180124 13.272692294922791 2.1571758640338397 1.5341363757990287 0.857587088571536
P 7.645470202517122 -0.2981707213690312 1.2352606119166132 0.4817589121840477 1.9223261590756633 1.5054755175292265
P 0.055568188356493624 8.928174726378705 6.865165345049113 0.0026438653807502855 -1.1971436842214995 -0.12636663505340817
P 6.837297913021143 2.997955766513356 12.4860798330523 -1.3746739866329163 0.7802812156005208 0.734100089058768
P 3.0095299505586537 4.529165377905833 12.076549259172143 -1.5996650536294579 -0.5037282173662873 0.04652719702726181
P 9.09248530696062 3.7430985694424654 1.3094266424240903 0.4118804420253551 1.8098128849655797 0.0010888621888045763
Ni 0.43501705750878494 2.416741773011006 9.733870159111975 0.3598562264392642 0.10861085373188392 0.6840903327995445
Ni 9.0212710192869 8.288791844919016 10.823344471814103 -1.016594906698733 1.0364211973960409 -0.4069058716288992
Ni 0.6949063746565556 8.661996427811632 1.787203000459352 -0.5407207354302365 -0.28073721151891007 -0.22345688974020225
Ni 7.309604700896945 0.9682088954384783 6.484513431183505 -1.2666213193973477 -0.6510855957387497 1.5240226844037947
Ni 2.402420698946913 9.087066018855742 5.20138057870882 1.0559651809662394 2.1599248875338866 0.8182967756123456
Ni 1.3291409324166115 7.2517524036536365 5.551177934044663 -1.5190193176519324 -0.3729706523340351 1.7839686702089665
Ni 2.900864843713423 8.485683334571322 7.509852052117974 1.391437065023868 -3.3865727518620905 1.9366626303029937
Ni 3.930073320552339 1.8135899053246487 4.422005008101406 2.9376851364847667 -1.3933972740740324 -0.07200194425959858
Ni 3.26295150564861 6.736985214131368 4.151496865945384 -0.7792933977659547 -1.296516050074251 0.18522175751840358
Ni 2.9034999958331493 8.92306271749627 11.751676904522101 -1.2437549563221353 0.01801057764480769 -1.1448592729954863
Ni 6.22978826727107 4.7109163822342 8.916226220371525 -0.41083914524503434 -0.4499687642566444 -1.1701357881740881
Ni 2.17637492912902 1.3612562669075454 13.509183696005376 -0.9007646524002746 -0.8053008775733098 -0.522032929212746
Ni 5.753179570281086 6.540224085361312 4.463380620977738 1.2994825889017427 -0.5322965159222832 2.9204461468986604
Ni 5.100611616731178 4.25185053539815 11.609888028646834 0.36018944140896675 0.1841876598269344 0.8624436453328889
Ni 4.427688742567416 9.02890644238999 9.856933625401489 1.2355505661344721 -1.343099811371061 -0.47464235574392444
Ni 7.708015491521356 2.40461821096195 1.9648746403225186 -2.3915727977253134 -1.5064702773423282 -1.2627314974246382
Ni 7.432516389873555 1.213203550640265 11.616048511482207 0.5242800733757099 -0.8055266204308706 -1.3436145462239504
Ni 1.53947821592363 3.704167223108283 13.772905623091237 0.8876887930529227 0.8519556013173715 -1.1725122588260646
Ni 4.169518326767 2.5807823203368345 13.294075204208086 -0.02369811494788822 0.007346927283374443 -0.9614282888289184
Ni 5.775638887994084 3.072559437125523 7.082932267695104 -0.8682273418942015 -1.0995494933150933 -0.12871739467377186
Ni 8.278148810032633 3.393284453421762 8.176972004723387 -0.6600908845611536 -0.8143200503527847 -1.1845295950019148
Ni 6.491217705127684 1.221127629982621 14.052558581136951 -1.705974770031991 0.4486801273522079 -1.8728648191207422
Ni 7.318646159229997 4.475726727675775 10.845830792852711 1.6048931347976167 -0.09622173603891171 0.7398922702605129
Ni 4.770789273152352 1.6614215097749698 10.91047023631534 1.3758548943148952 -0.10292614464228081 1.9932448975734125
P 0.4006418240091674 4.607083939523732 9.201602952297083 1.1235551122010716 0.7305936185674062 1.4699102188301072
P 5.824635956736124 5.877692835811027 0.3044867061139429 -0.048146220687923534 0.7378045344935487 -0.34305998081753175
P 5.738439479095482 2.817247649242972 3.022854695022709 -1.8554003437873918 -0.46956982631702354 -0.4214909685319257
P 2.2829915078246406 4.505737665067564 3.3910226921147606 -0.20021128894870036 0.6504168518064992 -0.6992994364398151
P 1.0373094745214648 0.5030524019539743 3.69947236904904 0.35679635656701775 1.6849739994106079 -1.4138632552378683
P 4.7864232675305125 7.798774600040676 3.130000166440592 0.9508098898831238 0.8875376121870391 -1.2464906100857436
P 3.0451929633450487 7.47649456464905 9.85967306622701 -1.6099530658190275 -0.9295923752652443 -0.596010766251793
P 8.117367284763002 6.440619059832312 4.348861379370417 0.21924362298980307 -0.42515479053675814 1.1803914044638253
Ni 2.857287063076262 8.143113559006967 0.3859194246575827 -1.409421674526747 -0.8984614581883945 1.120439192279909
Ni 0.45232432692551416 4.713160451707182 11.633465656499688 0.3679107213126245 -0.06050422803264418 -0.9694370180660078
Ni 1.7687923192893098 5.775638887994084 7.4851719436609665 0.723093196425303 -1.0434251395176997 1.0879121661864812
Ni 7.164578219396134 8.01388867873292 3.1591376859213196 0.4356405205594303 -0.9231245081527133 -1.2713994575122811
Ni 2.899402939533929 8.737773346364031 2.999876727228195 -0.49714979281782123 0.6771262427768855 -1.7512231003468293
Ni -0.04908925250877201 1.375484226055747 5.582141437026021 2.968415732799404 2.8223161380934423 -0.3676806075796894
Ni 1.947787122107293 2.5815831086135006 4.438440721905392 -1.782514454260943 0.45946333401064093 0.372084650184656
Ni 1.8186646682407284 0.9147488287777653 7.438167534119003 -3.0543605123923396 4.465426921611361 -2.223331633925306
Ni 8.757820987755442 0.4949374370340413 8.722294853895407 -0.5123529829208209 -0.35186883735841334 0.18221356681969908
Ni 4.368449033077326 4.39623452397931 4.286811461718725 0.06646327382955651 -0.6634893687197412 0.1469693989054243
Ni 3.730863269494339 1.5941273600602757 8.702942780925703 1.2280799687890398 0.8137891175499792 -1.6143403962534457
Ni 3.4133879637627094 3.270018927764765 6.432058074465259 0.7720793965160188 -0.24736917758142557 0.2901489917511132
Ni 6.552207975036532 1.760169878077769 8.71013870162579 -0.2547713835827677 -0.7738303177688544 2.0483043004414014
Ni 5.852514562554001 9.359725115568855 4.822717599446652 -1.3350962243402942 -1.5544367779192776 2.5351653097387046
Ni 6.981951934858388 4.305624399325418 3.975200533389933 0.41045116577799634 0.18868091971159764 -0.15581656488340906
Ni 7.693154350945093 7.231593024363154 0.3718870068327531 0.9738778274461808 -1.3556681349543749 -1.5637333727298555
Ni 7.711749399648599 4.949579223155374 13.448320062382141 0.8196005820254335 -1.4885507167494298 -1.0569668827578764
Ni 3.8331406931094216 1.4392865664245145 1.8505611826793178 -0.2838150791132854 0.43142314004397314 -0.4308675246508193
Ni 4.028635459023355 6.573196077078446 11.620586932482754 -0.99510665491797 0.7365151262581637 0.1791513829546076
Ni -0.1944937805681017 9.424346867197466 13.166759179709814 0.3252283519527496 -0.9136733900421425 0.038182167496676175
Ni 0.9034269861545335 1.9024680925429625 1.797410257539364 1.2403826974157928 -1.2545242790234976 0.004681464636069357
Ni 2.6579559626276033 2.6798472793536647 10.504809518339629 -0.38541196342118145 0.39404984160183754 1.2937148331800299
Ni 4.398469281960704 6.224126880384874 8.366160097383998 -0.18209915272902188 0.9886454726736584 -0.19289958577863553
Ni 8.48331821570768 5.696593635893899 2.2892013415654358 -1.4320720649364111 -1.2969114857404567 -1.8485013026747132
P 8.133299246872015 6.420915943629698 11.482954706452876 0.28487463072605135 -0.1868587789011943 0.8602160415539507
P 4.720628267961669 3.3477233250761143 9.721400209575803 -0.2888937791877734 0.4205165204337984 -2.163522632187474
P 4.146295466743692 0.8562754550454609 6.614091216988778 0.3873994261648554 0.10661722034062283 -0.9112167009715338
P 6.673471530001865 6.705987258631132 8.261957988457441 -1.178078182949616 0.362661299988227 1.4308770161870454
P 1.3266268296875443 3.23694450964015 6.810407256460874 -0.7805318981587461 -0.07822375679959431 -0.43270277808734514
P 0.9654526939280936 1.2882727958318887 11.599857689907015 -0.008626308216430305 -0.48106137189639087 -0.3869299427276046
P 0.779893289539769 6.472026720962472 0.7307863451969777 -0.010064840435169763 1.0614138627856367 0.5280187144825359
P 7.718258132269406 3.056255015352944 5.854844297749603 -3.8634265134350367 -3.403639734646706 0.861990102735238
