# total energy = -340892.1438765103 ev
CRYSTAL
PRIMVEC
9.06271105080610 0.00000000000000 0.00000000000000

0.00000000000000 9.06271105080610 0.00000000000000

0.00000000000000 0.00000000000000 13.26419369572997

PRIMCOORD
 96 1
Ni 6.473739228862024 1.8305860769326499 11.438457308431438 -0.23488132952705998 0.39799828472662424 0.15960842782567353
Ni 4.692354610467959 0.39125173833935956 6.123122874533588 0.14831871384446715 0.0341956720451024 -0.32087367452847965
Ni 2.762477470770759 1.3706806769588826 4.9703188350265615 0.6445447092964383 0.261722103868988 -1.125042238269559
Ni 3.361921433485104 4.385255582278882 5.05448060788794 -0.07471702919791648 -0.3269263084804628 0.03215935834136397
Ni 5.192652513795284 4.652270239291653 2.7195845654258948 -0.7381647460464448 0.1017418945261925 0.255993686025643
Ni 7.179108158862973 6.190502318987939 2.5503728740157583 -0.053449378068391826 -0.6110815445419863 -0.04643772263724905
Ni 4.867980888791635 4.645563833080831 11.485160177520939 1.0840701667325718 0.20825318541657037 -0.6746183887533672
Ni 5.672831198490145 7.834922184592607 12.221415733207161 -0.41221005745063194 0.6433828277778533 0.4972595789228082
Ni 1.5576534695743829 6.710973817214306 0.5835370921991623 0.7494562597998641 -0.43871041773400576 -0.8242781900067611
Ni 2.8935877121923306 1.838235005097425 0.2996857305127895 -0.6920844067486145 -0.8258100532702551 0.848399765645313
Ni 0.6891666151040483 9.11047158317987 4.528807113492638 0.5082369038699183 -0.8786405668077254 1.8830507585148086
Ni 8.663453358384196 2.501679833569642 1.6039059219224256 0.37115339661963825 -0.04569930180932775 -0.24657599225616886
Ni 6.804664124521709 0.7745201344745123 4.674726731115702 -0.9190202561763526 -0.4287823599870164 0.29797131600900945
Ni 0.7613302647458223 7.728897527483948 2.6803357762126137 1.1655563963335218 -1.8405499090381203 0.057110114749430674
Ni 7.39673104040415 3.8501115547885676 3.8485128925512857 1.0192040621868061 -0.35267256420663134 -0.8301475043033445
Ni 7.525802171829188 3.8326748986404304 12.756798109999293 1.5119464699655512 -0.27190032995357044 -0.8810854288037923
Ni 8.045439900634749 9.215145896335267 6.490661123019924 1.1461047153668134 -2.68588826214929 0.4314812469754182
Ni 6.800150894396048 0.6737020048903363 0.4379138252289281 -0.33731022281794815 -0.38850268653136316 -0.5019449002136195
Ni 1.9769216729950065 6.6656240108913964 9.337183457678927 -0.6501378871134996 -0.927668161659338 -0.8100952136381596
Ni 9.417153726658542 4.836134522001327 1.3960698620935017 -1.3230858301429793 -0.11195740160661363 -0.43780641786249763
Ni 6.678737753846882 1.8252209519639921 6.911653054090951 -3.312115404083463 1.6079239512041406 0.9846193822334011
Ni 3.3577163355366966 4.321562848698264 0.46233692536074483 0.022903901181367006 0.5797315694757952 0.06330493070623291
Ni 6.149031353013991 5.661058736776824 4.723180515988892 -0.5488793599816288 -0.2957005176969617 1.3521858328327292
Ni 5.389558037771678 2.9526584631141395 9.322738402463482 -0.710782240268434 -0.3801388879477002 -0.11817715726408033
P 0.17596522371865628 5.501681899447747 12.489883142808575 0.41543859169025876 -0.13809909299898795 -0.5779567369635595
P 4.106903473685383 6.259433299581874 12.662543195790626 -0.5212865379650248 -0.6794196667967525 -0.13100413382541956
P 2.4248824197446335 8.495258503158997 1.404611467301204 0.17148589598954983 0.7491053042183486 0.252310580747101
P 6.444149477134545 7.696081450606399 5.837518784521305 0.43160208882399864 1.2976769031515714 -0.3982443392991593
P 4.571439919029055 1.094938629160947 12.439426498783234 1.4927848094354357 -1.810599128312301 0.7113738511058458
P 4.120062530196347 6.081278524862497 8.245871725498482 -0.8078195302301054 -0.1379401988236205 -1.2837263545087505
P 4.731632400356746 1.1535562445279703 3.653728042971287 0.15389569371161238 -0.7932174640462145 0.8413024924788994
P -0.04380733289442125 5.544385394130711 3.4807236069675977 1.4536492768865545 -0.29272703689093454 0.5595795200079524
Ni 1.7978515644549615 1.174128598715222 2.6480235860719845 -0.2690865146538592 -0.7148263284308205 -1.2766851313912528
Ni 1.5483460652790935 6.421547075661855 5.088157642319581 1.2679932600442096 0.9192961355455587 -1.304706299194527
Ni 6.190420754588078 5.515321279646784 9.002806575362888 -0.9744583825399992 1.716664131425037 1.119137699859666
Ni 8.664323378649383 2.2694206736089013 10.414660055100669 -0.14094427575726692 1.2345434650261964 -0.024097921489468176
Ni 2.20465854011899 5.286995336301579 7.144757764996921 1.1047693469531359 -0.1574291607861676 -0.10608217377275923
Ni 0.4996462943995453 9.432922843965072 9.276367228600087 0.8093688769950963 -1.4015867518633605 0.6460642312647583
Ni 1.4213231065616851 0.9565510307295242 11.653800918132044 -0.20156008966711092 0.21388724377389617 -0.22951749411198538
Ni 3.9672017821450827 6.657694138682653 1.609252015197782 0.5387101327581109 0.8528027798090151 -0.08306128739755372
Ni 5.54430382973085 7.791384920488837 7.860201710922968 0.7435722902152614 0.6705434473530452 1.8812530431844374
Ni 5.3481867616197825 2.985438289147306 5.056469872973447 -0.381908064032981 -0.9315703249272214 -0.840593896447649
Ni 0.8407712713974481 7.881604209446585 7.064868154146058 -0.3502004485170549 -1.668938800324616 0.39050531878368877
Ni 5.092944566320333 4.285828578847897 7.088650520603408 -0.33908814065397724 0.8425335366725232 0.38649414074176663
Ni 8.34495343963672 7.361721787441439 9.079367452428297 -0.2869417976677252 -0.6399084960760076 0.18526829448562288
Ni 4.472592929108196 0.4020381770854683 10.260556809358185 0.6221504007616381 -1.0131326591817456 0.6168665266548796
Ni 8.280889134901178 7.112877866175557 4.738805536188997 -0.42311333462669715 0.900933573877971 0.3372374605984837
Ni 7.3987338995563015 6.157758743799155 6.998971369226964 0.7332914771145436 -0.876282093877878 -0.12699295578349742
Ni 2.347296550054299 5.183843558610259 2.608178470468606 -0.2515806445596119 0.28113444695732875 1.262359201686884
Ni 2.2722754276040487 5.260414404657875 11.681271808005347 0.7000941644269685 0.8776776886738238 -0.6709635656095994
Ni 1.0167999340937743 3.073083768153874 3.75172404432026 -0.2283805522940647 1.5459619076790472 0.686025087928412
Ni 3.673461190111076 2.8012386861270917 2.68171512084138 0.8069314711981973 -0.03612271386448618 0.3676991195224506
Ni 1.045981863821946 3.3220455046639996 8.27550407196811 -0.5165415670808717 0.42017430660303123 -0.6155246679150044
Ni 3.5121177444742315 2.4631089351463196 7.005881686437439 0.8518213897323523 0.8138626511003918 -0.03659168308110472
Ni 4.3877387651191055 7.026193034545135 5.985627046873983 -1.9459065174987649 -1.652763219006018 -0.5626409325420955
Ni 0.8690686805226789 7.4038633940364695 11.343246278202175 -0.7283027656507005 0.00380780378186441 0.7245569254550231
P 0.2579129762593541 5.5381774370301535 7.938580567834177 -0.3674733766648897 0.8842571416635545 0.6668474865586966
P 8.467988805472018 1.6593824016236773 8.06949777350941 0.561218341162956 1.1445103742964997 -0.19670096180259672
P 1.7447893909896057 3.257102116952174 10.30542991707746 0.08379482312946859 -0.46873601756181854 0.42003032482599917
P 3.943013406230645 6.082139482416588 3.9103106132417915 -0.07234261542846895 1.057123977161031 -0.19579490504855956
P 6.896831896365034 4.050741853025296 10.443708762975735 0.5510216031356122 -0.4266352317370265 1.2214730049954834
P 6.358914679279434 7.714179684664522 10.069817554011308 0.5584238091369543 0.18372588969916745 0.17623986573476744
P 2.587938717778567 8.416131972582392 5.915326690633485 -0.8751256116759316 0.3228156287461989 -0.771472101949323
P 6.639958413068357 3.7380148812457867 1.5339109790458536 1.2898867176831914 -0.31125826292590264 0.005565667013235576
Ni 5.3028822688523505 3.0026483775180504 -0.009729726632349426 -0.20312100639632757 -0.5242525625718842 0.9654461517390598
Ni 1.295460174864527 1.2231941165873714 7.048287924196464 0.6460372346815647 -0.6833318573669651 -0.41478013217065346
Ni 6.966542270113202 0.7200604909581987 9.264574828922354 -1.1102447682454104 -0.869929926407605 0.12599253954344108
Ni 2.8384048643305797 1.7006086743980415 9.120339969291981 -0.6617639013882023 -0.059281154258820495 0.7560868777425043
Ni 6.6316660324157874 1.7572868695905837 2.5890516187011197 -1.6869318944679272 0.8047943702505365 -0.5998234551296637
Ni 4.24116753856826 6.854998421947258 10.284618307317281 0.26265130055147673 0.3833486531342495 0.521718740406437
Ni 8.119391623175707 6.993993222022093 0.3489451904023872 0.4092252637906952 0.9176850823046969 0.1567629879570784
Ni 7.511963411986046 3.7420477876833753 8.287043622006273 1.516858819665504 -0.31329226263679594 -0.24925199642643528
Ni 3.0799623658755144 8.189392003678936 12.49968537112969 0.38761359905819054 0.8374116420649256 -0.22387597955549185
Ni 0.20047985723253967 4.928012287089589 10.140900928490474 -0.44889687134870426 -0.06569374265338364 0.142446057113774
Ni 8.561606611090657 2.3939785749082776 5.749338605560092 0.47978636183870915 -0.9319649892624788 -0.8372236944238355
Ni 3.6467715059342236 2.6565525034841535 11.40511106295479 -1.1220559019477254 0.6317177327350991 -1.2284118982071617
Ni 1.0877428365509572 3.3183026049814734 12.29696883679873 -1.0787053028762326 -0.15713425525356808 1.828858331632805
Ni 3.0109860717260997 8.433949262596549 8.066195321586134 1.373681797922976 0.35960374410882584 0.07790776822107227
Ni 5.545681361817397 7.809066269836559 3.840581207800324 -0.10859851243670973 0.8097491431526506 -1.050935588962132
Ni 3.1387702981755474 8.360215045121889 3.6055796714620225 0.2337472159226168 -0.6858494815824961 0.2534110129001313
Ni 3.345409173868729 4.413984376452269 9.444012883532885 0.5206568748008259 -0.12656281022461427 -0.44777098527437725
Ni 7.3584682741580805 6.1653079821418775 11.434703533495597 -0.11933492501760737 -0.8157920069126209 -0.7606948088281609
Ni 0.4100106440363604 9.081742789006482 0.5379543742010924 -0.011907550070863365 0.19797365786743323 0.08899770748664672
Ni 4.620260743701621 0.2133235313973735 1.5409282362472585 -0.5483633395771588 -0.016168125119430218 -0.14617415669763859
Ni 6.11022482410218 5.531616034196862 0.2916208239087212 -1.1716619950106273 1.031548699795088 0.6053811517230994
Ni 7.894074499914276 8.7995571536195 11.475357949199823 0.4256846948982991 0.23017415385937776 -0.09029457192119933
Ni 9.219586624772163 4.529715197144427 5.614149237874343 -0.10489098167813549 2.384933695142241 0.6366449948333874
Ni 7.801834226382185 8.631770120393607 2.5874466125660702 -0.8068093437980363 0.5806592234963871 -0.010099036107214866
P 8.604427921017866 1.487390270449378 3.6240168509151265 -0.9221788564099923 0.4493159611639939 -0.7619435936335975
P 1.818142974598246 3.235840996721649 1.7130445265635685 -0.017663478718034094 -0.35159707175426547 -1.260769231491945
P 4.928882307354777 1.0977661950228073 8.197390752492005 -0.2272217560992732 -0.034131137355754126 -0.13972043065249484
P 8.465550936187274 1.7267999094646302 12.796909669308885 0.41550775436529735 -0.4614711084692891 -1.896181896580128
P 6.246011424449136 7.702778794106124 1.2698997044901992 -0.4621470514903912 0.18296792848722035 0.29834721129118946
P 1.7639932758014059 3.073174395264831 5.921017166930478 -0.3575103519149068 0.7040966007181423 0.1670126907095446
P 7.0131336678562235 4.067181610952906 6.120218275627415 -0.17445449169957053 -0.1611040385345935 -0.8230381469520729
P 2.3379891457590096 8.633102338924678 10.225021919151922 0.6485101217020895 -0.05459043365137049 0.24408099374845707
