# total energy = -381175.09634819895 ev
CRYSTAL
PRIMVEC
9.15931408513664 0.00000000000000 0.00000000000000
0.00000000000000 9.15931408513664 0.00000000000000
0.00000000000000 0.00000000000000 13.40558200126200
PRIMCOORD
 96 1
Ni 5.793128704298715 2.161424072933137 8.64033992491551 -0.2238268714851113 -0.6332035732520063 0.8719197031441243
Ni 5.829243879332195 4.424672239411083 0.4625893208295308 -0.3991488533912997 1.0967804152103886 0.7874489369935536
Ni 8.511091013443934 6.788214893998742 9.314949045814776 -0.3592216781790587 -0.7993261480471137 -3.0727372151273147
Ni 0.2618592911747752 7.18094795894561 11.226718613454983 0.31866689668514797 -1.1214558064698816 3.9247398676325376
Ni 8.14938970427019 1.0464607818285534 8.095885571640702 -1.1907781470147878 -0.540487793483824 -1.2518333624548956
Ni 5.338936642528452 0.8497342883156018 2.4140232976714815 -0.5532543491208729 -0.5071848084563201 -0.6978603900004432
Ni 2.1861725393141818 3.6380337173275703 10.717870177356218 -0.7729648844447656 -0.2529795817896675 -0.8778527807991076
Ni 6.995050522354313 2.146494391141463 1.3797425715770189 -0.7978526488253808 1.175950337973336 -0.8330402524701074
Ni 9.035058729133812 8.821436049117118 3.6525521459214247 -0.6036261167052055 0.5932260044178042 1.7039898783914784
Ni 5.6252018417413225 2.376173348569694 12.677377173542453 -0.438075098142852 -1.4112255605047053 -0.2367592632760632
Ni 4.62097465668664 7.610666333754307 1.4932878392253899 2.200718267401165 1.1343426897348787 -0.010188767607543742
Ni 3.722876442748598 1.8238209188476704 4.075296619063753 0.826431746014654 0.539819820882522 0.7736089457866677
Ni 6.010222764314824 6.756944996062069 8.69947154005592 0.5380061647125509 -0.7704922545345568 0.16561709591359863
Ni 0.41492425086396556 1.5259508688188184 0.31217415067551296 -0.16506970805056087 1.443959046181984 1.0596477720241493
Ni 2.4106764843422313 5.280307873725689 4.771260680513502 -0.7192792219958516 2.2122211258344415 -0.38054280825433817
Ni 7.201400707068806 0.4006714423756073 5.8107704589606435 0.7601607907015617 -1.1997289284501726 0.624673424293808
Ni 0.9305588226924538 2.02789043438049 9.305216358776844 0.7762371274381341 -0.6214538889152459 1.081727377532008
Ni 2.8651158475900247 1.0421009483728252 6.755085655323597 0.48897188499271915 -1.7940463661599424 -1.330467467319031
Ni 0.38496047110121573 5.283330447339954 3.2870616285530683 1.8273601498207237 0.4728466972960825 -1.0445407411793817
Ni 2.6306740468908303 7.812326949709697 0.23990624742122665 -0.06374947444281924 0.37982804157550065 -0.3143037346204458
Ni 8.66918077278399 9.283972245925549 10.105663462620557 1.0678099961199674 -0.4802769283218825 1.851358055397218
Ni 7.650518508892696 9.099256360838009 1.377101941355829 -0.6872993266551454 -0.0416385014763928 0.4931550698361313
Ni 4.2117639858850335 2.72516152993556 1.1503237386658944 -0.9356254688332015 0.44746271000533905 -0.02717501775289513
Ni 5.300632391453127 9.211888444882314 7.801552848671938 -0.44706573167723646 -0.8207832894796252 -0.9013482928178863
P 2.8016967575743497 5.02094357967978 7.861757019479714 -0.7647725784419603 0.37738086558658873 -0.41965982886045794
Ni 1.5897271720798156 1.0416979385575897 4.522493712745487 -1.1094744657382893 -0.18388581231579945 1.3113055496785997
P 5.550452680329144 5.873007081541163 11.316777568189114 -0.7196571741605606 -0.6917223954235054 0.04323515653955135
Ni 8.471092289281824 7.8595706912320615 6.96483028180005 -3.092643724243254 1.2374881494768173 1.5027177522784312
P 6.872947707651978 8.711734945547253 9.180263165563117 -0.5510655689996703 -0.44683484661335304 -0.5163698173896977
P 7.764139798847123 4.197383862932317 8.984233695844242 -0.1254081277948808 1.4670694069472023 -1.3058586676314154
P 4.655422836575281 3.7005093980030352 5.154620103530555 -0.11821546670118349 -0.057288292198507784 -0.24013974971252192
Ni 4.014609752409094 5.00917386121211 9.717719802955202 0.0942692402982312 0.04558745882181181 -0.5979817739352347
Ni 0.8040503779644778 4.348833119634973 12.764285324266563 0.29534210591627846 -1.1719676991765042 -0.19100931073445815
Ni 5.607735029976462 2.022733740608274 6.166366169433573 -1.5014928787323947 0.3174911312094919 0.14465026385394444
Ni 6.944509427798204 1.9381932725486721 4.028417418237897 -1.1783265515149965 -0.1821904268912475 -1.6723030888111587
Ni 0.666311698362409 4.067110940157484 8.25704736489053 0.3444293503612327 0.3911990024166037 -0.18937794577862221
Ni 2.5767256875331865 5.892443145812287 11.690887000015119 0.037939712468566915 0.260650468071364 0.9880052679864986
Ni 3.7353697470208953 0.47242276032127384 11.599394612642707 0.5155154398092024 -0.08685469300171493 -0.6057578183362278
Ni 1.429283469046225 0.012525361871235671 12.297007350609327 -0.8609889151642333 -0.13148570144752839 -1.6442243282970714
Ni 4.45592381871979 7.493949195673753 12.334717162207182 1.0698115999310285 -1.3179351391799754 0.9194905109445519
Ni 3.4094263996353065 7.52984454717165 5.591736456243017 -0.6139035873718137 0.8804876473187933 1.561637666543091
Ni 3.1443192157222932 7.380117241497727 7.987649042376659 0.14638627270844465 0.019466079144411636 -0.3502104758193839
Ni 1.3684747835155973 3.5165445766620715 1.5212658797167071 1.0111644797117811 0.027686410171674898 0.060768023216992116
Ni 6.03469645127639 7.1445488451786705 6.455243604994286 -0.22397239592404006 1.063592358494194 -1.6394783289716537
Ni 5.802013238861859 0.06647555309167615 13.052049903178387 -0.8426919166272584 -0.2997749448766515 1.8577557313934459
Ni 4.224568706832739 5.480255697966329 6.353964490631443 -0.22466299423316147 0.22652010204655826 0.17569144943046516
Ni 7.9131709966583665 0.5530283870939411 12.444347739059378 0.6824975343911278 -0.057819739221945575 -0.5272481548650984
Ni 3.3992412424866307 2.9375477025645997 7.891557763453572 0.5120596200501182 -0.0006880272059601054 2.7895160608442864
Ni 6.118833909520756 3.9427274562734755 10.27315342590098 -1.0204765011413264 0.7145249951403178 1.1871135536790072
Ni 7.682539470575942 5.661811619729863 12.34009276358358 0.9046097371779777 -0.3089316716752551 0.5449160044585066
Ni -0.02160407389081066 4.509102795702893 5.562364368163544 0.25611761319801696 -1.370756139635749 -0.23189987830123285
Ni 1.1095226585989062 5.946153363006382 0.9546194245934035 -1.2308025099265254 0.7643604306052062 0.2815684491709538
Ni 8.200022391966124 6.622870957984448 4.80863617715099 -0.16321748533317054 0.31422325909149756 1.2961913197449804
Ni 8.203658639617224 4.238903033215543 1.1203324809611968 0.5003197059053706 0.44606197300307054 0.6113684796547858
Ni 0.7370921290259174 8.630015546194299 1.5740427628159737 1.0981816664332893 -0.8491847234404536 -1.028911776392873
Ni 7.470070864121059 3.5132197456863796 12.404439692105695 1.7136364003423068 -2.2969536302868314 -0.4310421025554706
P 1.6868983341214532 8.100011842589874 10.096051678527193 2.195857596874754 1.236226252045258 -0.3063698244853498
Ni 0.7908884437714498 6.155077314949992 7.117908064528816 2.2111194081298304 -1.2388258944516342 0.794516385363296
P 8.584530392956598 2.054012797858928 5.167368952662967 2.5310893398971186 0.366124318836163 0.4833419404004515
Ni 3.233164561353727 0.6278508230179807 9.033498897962572 0.15644031451033702 0.05561244715798165 1.3268553244877406
P 3.0748366598501224 5.07344476742817 0.5021355748808998 -0.13947926117596623 -0.5741211652675532 -0.42991518803987894
P 8.714418624544162 7.308024281140509 0.09180105625362615 0.7034805644006981 0.7488726193822522 -0.019010479664231777
P 1.3205440934445358 7.157408522010272 3.88000447412048 -0.005175116443036249 0.4047116921910578 0.11403356740935201
Ni 5.317815264484526 3.3736043226492716 3.128836311366069 1.1560410006439188 0.26820205516637685 -0.1537923353645287
Ni 0.7285492368743258 2.1443969082394427 6.940364838221067 0.27017203440855403 -0.5593681753280948 -1.4050623691167867
Ni 2.6230351790293236 3.340813978591484 5.882691224214988 -0.0321506165906156 -0.48327920548331604 0.012003195108463198
Ni 7.796801912509152 5.605866529924008 7.199655857755116 -0.42239111174869187 -0.029398507766775175 2.066588700572886
Ni 7.0702484901516405 7.340484889894921 11.02590340218019 -1.6956967851447506 2.743415924052114 -0.16476091856089045
Ni 9.01881010612864 4.560651414797091 10.737589264429406 0.16315783573982867 0.19946258370813388 -1.8068566305507334
Ni 2.8387278640060907 6.763118373686357 2.304231516893189 -1.9854667962898902 -0.4076455780084012 1.7317747618142303
Ni 6.632405803840357 7.0061516109012505 0.4157778989271459 -1.0549177135383316 -0.06267166799760819 0.854939880756676
Ni 4.723265875244563 6.414029439866682 4.1681839699557175 1.2016685686750468 -1.0218435566921822 -1.4952695235305022
Ni 5.5744042863937 4.218221302242782 7.698369512932108 0.30757618608862514 0.5852237029386179 1.119617210599246
Ni 7.602056578610642 3.1452076691786077 7.039793771159422 0.4703702107311319 -0.39674178661170384 -0.3757875529575399
Ni 2.258750943312479 1.2044681073427665 2.2665491832372835 0.5565052519580029 0.3025982732580595 -1.1407100267138033
Ni 4.372372556570311 7.4386727357886295 10.099497412447455 -1.188462611507734 1.0499786243655014 -0.2787250661848877
Ni 6.488293157637782 8.37379289684443 3.8807014979145573 -0.6599366183714763 -0.11279301013403155 -0.06428940610668928
Ni 3.6507010485655367 8.585629510634513 3.5857514371833656 -0.12702997966901994 0.7709074876951046 -0.6434656172996466
Ni 3.415599777259594 4.5998807565846604 2.697230201945554 -0.2720687372106347 -0.6101829439871169 -0.4880627429148884
Ni 4.164300420827086 3.9180614237182745 11.912977465808746 0.3093839287213252 1.2900366129974945 1.0459152529294051
Ni 1.1285007571708991 7.899175564892919 5.926459922012346 2.07798948621066 2.1379111022669566 -2.513775531209019
Ni 8.951196050308925 2.0051112205057087 2.5824914756852473 0.5811132803146701 -0.27746008342953504 0.8373044270630999
Ni 7.812876508548655 2.3869630204412227 10.104095388066732 0.2698601595950901 -0.7269177123777159 0.44676414127641767
Ni 2.5637194616778634 2.209318125748268 12.600496639766517 -0.7553258312067638 0.449754077142677 0.9824665975564565
Ni 8.051494956423925 7.053083935748206 2.58026576238747 -0.8308113631395885 -1.4363154135937972 -2.0267635981561485
Ni 6.103006614958786 0.7742624570301944 10.884353532029952 -0.5698472204825477 -0.22398962231522068 -1.5346943051850277
Ni 1.7120681289456987 5.994578656032505 9.41889626834076 -0.49961342386696533 -0.060719172256927696 1.2978052011993197
Ni 1.075376736071691 8.9856259115696 8.259849199037815 0.33920872539224156 -0.16453928946838758 -0.9766728736928146
P 5.847067904342377 5.532115733735934 2.4619887931356765 0.7379919679140065 0.48100352207526187 -0.5575367785463108
Ni 1.449791173053316 3.3131253724220175 3.9165345660773716 -0.34042202897405244 -0.9028030229865418 -0.623891551822461
P 4.862927094851584 -0.021353108687686816 5.3675952200486785 0.598516306282466 0.4117436593371747 0.33943832490454445
Ni 6.503992221803996 4.88726339210341 5.622086759055833 -0.9745856521464827 -0.6592249370164324 -2.434484766597491
P 4.13385486114885 2.4841982976807384 10.170385923015958 -0.04295773450844859 -0.6036418004344895 -0.02406835380311339
P 3.814790158564211 0.7109633540276914 0.50889240080588 -0.3337960390171026 -0.8437735797272113 0.036965521480755686
P 0.1835444088291618 2.167368467707859 11.599247147687585 1.1768561376170572 0.5743078273570625 0.15290581899451733
Ni 7.591385977820887 4.335451361906362 3.501135862749106 -1.372296230429359 -0.28150648558476676 -0.2229647805951321
