# total energy = -340873.8313720535 ev
CRYSTAL
PRIMVEC
9.20396354312417 0.00000000000000 0.00000000000000

0.00000000000000 9.20396354312417 0.00000000000000

0.00000000000000 0.00000000000000 13.47093099625813

PRIMCOORD
 96 1
Ni 7.833253869734844 4.589593120173755 8.013761998162266 -0.15930118099789986 -0.9933673036293601 0.2739638973508185
Ni 7.754734858740844 3.7921433311053945 13.309899202588355 0.5307086026098732 0.43876158268691534 0.7892937035117762
Ni 2.2741336624568778 8.948323228653393 6.6877782976267754 -1.3227562147177025 -1.8619414873400189 3.0248355063500294
Ni 0.300630894373372 6.026902438523901 3.6051307618070947 1.3112667260208644 -1.7403979847068674 -1.4791440787235495
Ni 2.932309078724721 4.587807551291697 8.798686113562622 0.4407359328044668 -1.8766602816074325 -0.14068150901418353
Ni 2.121504338894164 6.511583146406221 7.199376916604283 1.3231436799641083 -0.32153290537903334 1.010696281826111
Ni 6.234396587375003 8.034774646398029 0.9490850845936404 -0.2495962671397314 0.30975211069402137 0.7394122453003007
Ni 0.09073082951314708 7.15094566166929 10.636862088709089 -0.8101980577646111 -1.5991081526847233 -0.24147492358417766
Ni 5.783218305939545 8.285637870363859 5.5831618798389115 0.2628649592241796 0.1202782627674832 -1.2170931307602328
Ni 6.829662914421889 6.566935781750017 7.097443022950719 -0.47846095815906636 0.0335796357276583 0.06926217673093234
Ni 1.3465766480443375 1.9716822241408714 7.2771448841922215 0.8843445591710383 -0.20218203952182598 0.6449530004784506
Ni 4.7982745802917925 4.029587176565859 4.161453279298498 1.4212965715874617 1.1456388314739883 -0.9132046779358403
Ni 0.36685156959311577 2.9817895854770065 9.484814886797984 -0.10187404922868262 0.3211169008875373 -0.3190384210919538
Ni 6.604948150218569 6.685087058755054 10.29237062758026 -0.0722251160139982 -0.543915073997818 0.6694041915422794
Ni 2.918539949613594 3.0459872295613053 3.7518290514131167 -1.0305205156408896 -0.7634682578082399 -1.1369790989164612
Ni 5.727488308100056 3.8299532123811364 6.350735604004386 1.4509979553066363 0.32185686437735533 -1.8402218362747405
Ni 4.120135767605476 2.282472453215354 1.2232186889950714 -0.26121791053905985 1.586610791548661 -0.40349170374102766
Ni 6.7926813898440095 4.072569685221583 10.183552169371133 -1.2008136768739188 -0.08356496650684964 -1.641349834962754
Ni 4.6087281598943655 5.40131825633527 10.973999583153567 -1.0491818394958188 -0.4733400919927332 -0.6406127212318837
Ni 1.7881920116011465 0.2817498840401059 13.209957966991313 -1.221664295070683 1.747451292009223 0.26675889496194705
Ni 3.2775773543568794 8.705403025023731 8.877289801019073 0.3340258956397215 -0.06661008382006593 0.3525455517104638
Ni 8.083049433956761 2.7622566526169785 2.216803095397854 -0.14642818168997362 -0.012412257621423785 0.11761948498839744
Ni 8.372191941327118 0.8669249857143713 9.058648375656299 0.4487971125460465 -1.388699354377731 -1.677206182539731
Ni 8.54009064002042 2.567289097830211 6.340902089604435 -1.2714534506786683 0.2006828292684802 0.14088514038455735
P 1.5988572823598404 1.1204076576381048 9.292517401767325 0.5839466359984072 -0.5372811136210682 -0.27654348515253663
P 4.92450693708264 8.215365610495239 10.537783264474157 -0.9576438820858217 -0.40851872464197386 -0.45398302762236004
P 3.628920245773358 8.36368747922907 0.18696194750009731 -0.39195130720159593 2.3366746030255374 -0.521390924753373
P 8.55422792766393 0.9627161542551237 12.380849305326999 -0.24579823354987995 -0.38628022495874764 2.2067657591468253
P 6.520943577092061 5.180229853675924 11.955774384233832 -0.5863717005001321 -0.7638945467123812 1.2854253394777282
P 7.711595882708857 7.7943487168252625 8.96753097968415 1.5781068678427077 1.030413043528748 -1.627367661751049
P 0.7010198654739239 5.217156154473946 9.648270832401753 0.5795598197846211 -0.7409230255178724 -1.3796231031080757
P 9.196885461791828 4.6455900329492215 1.7478804930978615 -0.04338839428796398 0.1860249701459893 0.934554604366526
Ni 6.099466485256606 0.889120343235416 2.218850977234235 0.11251764498545784 0.7627892294633444 0.7002540870436005
Ni 5.085300176100948 0.8006868229643392 13.163281907859455 0.5174553371443927 -0.6360207309858272 -0.3295434343883357
Ni 5.2547727525201875 4.241738530851606 8.411518635756279 -0.28329108828901534 -0.40628674998766157 1.3151164387842575
Ni 0.4857768999124898 7.197941098327989 5.696964284180175 -0.4365830869783578 1.3530337826553214 0.9476564318558065
Ni 2.409339883474562 0.9831305448757652 5.058482588205833 0.5255242301954561 1.782078138054473 -3.034974394556244
Ni 2.5534739489025364 5.444024646091707 4.833423595774736 -0.010050956478098819 -1.0610510801295792 0.6969818440502318
Ni 2.31475995650535 4.959712096741771 2.4875551636793465 -1.1525229601883311 0.7322404101422099 -0.7565319356997229
Ni 8.68085605487709 3.944883102227823 4.433000570009939 -0.6710882641129218 1.1523296132306027 -0.25455978179259386
Ni 5.864719401045847 9.08263666523005 8.520376671007638 -0.457268126131535 -0.11887906842711139 1.049750310404779
Ni 2.5188762508218367 -0.031762877381349856 1.916240310352973 -0.873431254692644 -0.22363686696149226 1.4267683933353106
Ni 2.083206647563015 4.615262973844165 11.484615218849612 1.167014468936287 -1.3447383754157485 -3.3804452988081133
Ni 5.233180254595919 6.235151312366389 4.259360439004122 -0.053937630558720015 0.6535484554569454 0.25845371753036134
Ni 1.1508267563762564 7.047336646693382 1.2898066023508674 0.6587335992023107 -0.23932368156912978 0.4608167627147418
Ni 3.911518735230607 4.606859755342522 13.23459697677105 -0.8217628797840751 -1.0113904796796582 0.7686184345506117
Ni 4.975552117597553 7.233689291822386 12.558908259117743 2.03228632774659 0.13729819436424742 -1.541376859411526
Ni 7.574070262937159 6.615477484244725 4.540605945854863 -1.6099186130366663 0.7929981489465568 1.1465418029042318
Ni 3.827238043204811 1.855463779430844 8.45928628493665 -0.3272032162909333 0.37350209935747286 -0.14121218470667293
Ni 5.603833061035891 3.0446342469547973 12.084394249107183 -0.40159705782147614 0.15670128148120754 0.8658043342750057
Ni 1.5082166516871272 2.8123538249110056 1.6518592254743698 -0.7864073831029166 -1.1210359453236436 0.21005295762947052
Ni 2.797940418368208 1.9341760736543456 11.094429761474057 -1.1523612377994863 0.024602114819396337 0.33784938315086976
Ni 0.9521776162656582 4.398528045830249 7.499254006382602 -0.32560681833809085 0.18439849028615984 -0.8420740805376014
Ni 8.651099641497227 4.630081354772584 11.24837525179004 0.8498521818211234 1.9443278601577352 0.6190234250968824
Ni 2.5603216976048615 8.71651220873839 11.276058012236254 2.4433370747817986 -1.5565003453165258 -1.300750914091205
Ni 4.766290807791012 1.8977283789484212 4.838920202663215 0.23218295675929046 -1.7998190069776616 1.1994648761555085
P 1.8838672102041982 7.397492226842926 4.012962978036101 1.252097928970192 0.563385524017604 -0.7164515227390693
P 0.21605383472900794 0.8466624604883377 1.9100699733502327 0.40931139574659825 0.1701934024303714 -0.7383627209898639
P 8.493067591471792 5.374948901453332 6.051546050285294 0.23586451937593572 -0.22560093266639855 1.4526221211736208
P 2.4233851314849764 2.7520954771232056 13.177735811840815 0.13402389448834984 0.4250537461825195 -0.9359054619674655
P 6.711925815765781 2.7810511456951343 4.286935513079615 0.4781609104201442 0.5196916826740793 0.3057149645101703
P 6.397159474541561 2.5565572766112443 0.8917186220777096 -1.6729962582234412 -0.5081299459784088 -1.2238186224095247
P 6.983525569068086 8.135088642509109 3.151470171467042 -1.8022217028818834 0.8126899709485295 -0.5642090483601638
P 0.15080601843108643 0.5148743095193861 5.904376517757822 0.5601269078709902 -0.8714162811451444 0.05395125740547483
Ni 6.876060093465465 9.051269558271011 11.507353610205922 -0.20258621693878015 -2.023250699906883 0.4913198163996055
Ni 0.4363396517877594 0.09749482214935515 10.86052023792447 0.19601601992043016 1.1579004224501608 -0.07931853252566984
Ni 2.427269204001618 6.451278778801873 9.765414275424392 -0.27067005709089514 2.673087510840196 1.3191016486842508
Ni 8.687740619432653 8.601315403955725 0.2636364842468586 -0.1230429699968139 0.6446084726548382 1.382143041316452
Ni 7.511124357862962 8.885404935469127 6.954583706441121 3.8062678048358576 -1.345309160317554 -0.17100252859522808
Ni 3.3116320186023134 3.477920023716439 6.562471859544872 -0.06243384095518926 0.6411999611939214 -0.3431180877489768
Ni 7.7222908880745855 0.7533250685659185 4.422277952754281 -1.851901586605514 -0.0980176515970699 0.4680595603200842
Ni 3.603710590268427 7.532983770723208 5.438389979753585 -0.26999925627611565 0.06263181589860825 -0.4657746209406495
Ni 3.6589251661625783 6.792202783751911 1.4799568027414023 -0.017375258053653947 -0.7931416165029566 0.5666317988690435
Ni 5.086837237973647 1.1772697429646706 10.556481115937562 0.024379457285628982 0.49969261384433294 0.025856041831155467
Ni 7.95275812934639 6.583723810826685 1.856967707035629 0.73784695769571 0.826229657306177 -1.2975012968056558
Ni 7.608999303697003 6.718340978192557 12.861774796179011 -1.3410557843578388 -0.30195704012963476 -0.482869114529091
Ni 6.839603194796232 5.042253239702056 2.915055329104588 -1.021851270001666 -2.5004461610899646 0.6583394490876855
Ni -0.02798096885744471 8.397235925492478 3.314899425577213 1.0886372172779637 0.556493424883461 -0.12526080358373912
Ni 4.601742351742397 8.34976188274168 3.0241029660001244 0.49951726460873325 -0.2433682839521486 1.1098449617038304
Ni 4.752346803377004 6.573378556066721 8.73689530588378 -0.5319435034582387 0.4533212256686451 -0.6862608580883021
Ni 7.51206316212054 1.9626899519874146 10.947165428124496 -0.9975489458108757 1.9559914125385927 -0.34526007379264406
Ni 0.7483402020374517 8.147486381087107 8.533875203597463 -0.1284104049563143 0.16427472295309128 -0.34825103810016794
Ni 0.41445538822657846 1.9518200713188045 3.86885100212007 1.2600428948488815 -1.4483106382824606 -0.467241178183847
Ni 6.279523619481859 1.4275347093153758 6.583809407685464 -0.9234286696566936 1.6550234757951046 0.7357491946264167
Ni 0.37621015948629355 2.661390418707325 11.864374426588078 2.418334124979558 -0.18650473799588524 1.12134499192363
Ni 1.295365796189852 4.7568567453986965 -0.00768346857083479 -1.2766241962463305 0.3686545414571844 2.1267962233007176
Ni 2.809620247808061 6.598358112488912 12.510156706259577 -2.0533464908509993 0.42095695040532666 -0.06049008696525712
Ni 5.8701129235452605 5.531351849972973 0.6704590257008048 0.7484427309336852 -0.09190125428668688 0.2686851654503824
P 4.3699957595705605 4.816102657222443 2.095443316783097 1.3504241129466161 -0.7541498086207915 0.5486893554580099
P 1.5347056580920893 3.1248375832344504 5.29658175585394 -0.6164793185187899 1.076774661512423 1.3321515398896735
P 0.4125667349554532 6.835332555820588 12.735444877377084 2.830934733000389 -0.4712158465608788 0.07196903413913412
P 4.395269842818658 0.16261562375360453 6.878539641181066 -0.3472117982023762 0.2266777106703451 -0.17086908834115733
P 3.9220112534035243 1.2063634709862432 3.0344749122536867 -0.2757898948159638 -0.6077637930226629 0.223476430124228
P 6.82898182113698 2.241303125331617 8.867294296864872 -1.2273472043880733 1.0100331943208152 -1.2890020010853929
P 4.2826041279461275 5.65692152140553 6.573841515421193 -0.03007547922914175 -0.24566350774422854 -0.027494862986159097
P 4.186441119287668 3.3481993648312627 10.311903278515844 0.28908789747645053 0.28567141559573384 -0.7626388199284092
