# total energy = -381171.3300477695 ev
CRYSTAL
PRIMVEC
9.26077904303273 0.00000000000000 0.00000000000000

0.00000000000000 9.26077904303273 0.00000000000000

0.00000000000000 0.00000000000000 13.55408622336667

PRIMCOORD
 96 1
Ni 2.2465445830779043 8.525871314615337 11.94452490702359 -0.15615106540469237 1.2145855338470308 -0.8072284336133259
Ni 8.934901399266966 5.955023513496874 2.6338711061829487 0.792962410612615 1.7410147923552597 -0.36962333312835693
Ni 6.793772262973828 0.4791869677410914 3.1284994967448188 0.3588146725486272 -1.15919085912681 0.9249944714819166
Ni 3.954232221407928 7.008187077996903 4.261825289911596 -0.6360554408785046 -0.1383124945613747 -2.135388335845103
Ni 5.293933547391521 3.553212710547814 8.149732738559461 0.2089916062444917 -0.2496505174164346 0.13106635452192267
Ni 4.042561531030443 5.9027464163256536 1.7221955746326694 0.20153900662118837 -0.02396036747033938 0.37272665464402904
Ni 4.212589432547467 4.3652441127548 13.22329864221902 0.8627724894272173 -1.3640818129393668 1.0322436689795835
Ni 8.247057042775847 3.639615778148785 1.5752964685425934 1.1169890289477795 1.4309757465484387 0.13044183356404632
Ni 0.9514802116320046 8.90506316949094 9.064525448304218 1.870294744400721 -0.27246108755304693 -0.4712919512144529
Ni 1.8955703216621256 0.32178336008833786 0.5111912937134598 0.42403507511001814 -0.08051615237819681 0.2920888890863034
Ni 7.917308486712848 4.82377306089273 6.136328265540984 -0.9638376696013593 -1.2211888980961614 0.06489747200433339
Ni 3.6350687356844684 3.8431213955690797 10.787127571132782 -0.7787424103584911 -0.6554981229841486 -0.6811366494878592
Ni 4.487393787101725 8.56578527188867 2.4934906623955873 -0.8262643671988545 -0.6477753004185941 0.006120768185757201
Ni 1.6681626337725806 6.826472073445321 8.033628500710918 -1.3362197964217761 0.2655473911523491 -0.47784389340035777
Ni 2.8800189063551653 9.25428714368522 4.842278875467974 1.7071731612154664 -1.4913994990521346 0.3450435869064638
Ni 7.925819142567649 6.39594772085137 0.7384091356345353 -1.7903393496220008 -0.7666320002482022 -1.8517210951635916
Ni 3.1453587448227998 2.4300654395246837 7.174611610424588 -0.7367179862975892 0.3115302856403667 0.6140948774470134
Ni 9.615929822451088 4.678063964897695 4.2043556739832635 -1.3727952815529647 -1.3999972958890534 0.778286296657679
Ni 3.970188543538311 1.5105534368271432 9.168811080057116 0.7003019095624003 1.5076699540773841 -0.05566309789025897
Ni 4.393304272972479 4.366216494544521 3.51388310842621 0.2715318908705582 0.30537146512782243 0.3583752710183635
Ni 3.18500413950659 -0.08926187006275273 7.424900830943123 -1.1861560748617443 0.6514776889708457 0.3580507977994091
Ni 3.064326929012671 3.121567803700946 1.576611499153455 2.5924482026205737 -0.6647728634178551 -1.9727555193708088
Ni 1.5304455900111609 7.322896129045542 4.596353333990551 -1.0762797241538753 0.5375945310964291 0.9196810296888032
Ni 1.8522298761773939 3.1809757006634576 3.237162698707253 -0.5757450740242214 3.1893390574844753 2.3808654386101384
P 7.398658561633275 2.5067354284494896 7.603205090607519 -0.6827165923804693 0.39785044629485034 0.3506349649513123
Ni 4.145624739961977 0.8729701059298872 0.7834257821091677 0.3515649329647494 0.2329910544828826 -0.3765964220120805
P 5.242767743694269 0.39787825464036597 4.851413707823987 -0.311560881767986 0.47235587370259297 0.09623330600313748
Ni 7.984578785003678 6.940342611411189 7.4759731007729835 2.247602590657529 1.0598879130594134 -1.002478264791693
P 5.632507625793612 6.251701827930392 13.850920153200052 0.318892896653025 1.4607750892980584 0.9892890197949286
P 0.2017201392387866 0.4831024250810368 12.474733210310317 0.39565292442289923 0.5196135211379761 -0.4067289797314027
P 2.25284191276372 8.117961784216625 2.478635446882327 0.5528794822799575 -0.21927627599995136 -0.15655498571133036
Ni 3.095433885504811 6.37000827901318 6.290072013352804 -0.3341716771889664 -0.3523272650520706 0.14934484111613636
Ni 0.10143516399217146 9.334402142379325 4.368156627734489 0.25392291953954327 -1.2216889776610314 0.24987728871526
Ni 0.4464890094253884 6.911782369130224 12.283105467970945 -0.07687161364707407 0.25227715640600423 -0.8810165232390698
Ni 4.9602954641696355 5.503023414518502 9.82112831026339 1.1208742229347985 0.014928853395690417 -0.9645388094334421
Ni 2.293117040416091 6.757571878059337 10.315513142338883 0.07301984400115166 -0.37259141461774536 0.3112119830689995
Ni 8.210977047987702 0.34744960894751176 8.35239377293954 -0.8648625391870267 0.7575164111001792 -0.26185605834369097
Ni 8.876484405652077 0.140062799069386 1.0099212832721642 -0.8762191018504264 0.595011121342685 0.22164631889402472
Ni 8.229831993929352 2.59829674992546 9.942504709568015 1.8248918907858893 0.2708567191804045 -0.7103209843612993
Ni 0.5569904760093445 2.3759639689003667 0.3798030662862849 -0.16687950756579 -0.5156383385403119 0.9857311272403411
Ni 0.6739244796517824 7.30999586396857 1.0288956932622642 2.057322959000244 0.9034617396164634 0.889746704023216
Ni 5.938622673976904 6.005115066835958 7.106745844047289 -2.0736831455258224 -0.8918128425236254 0.19618082763306857
Ni 6.565827449905199 8.526278788889126 0.9126016094452524 -0.42375508197575407 -0.2364085648048638 -0.30959630184244746
Ni 8.074426862373949 2.6843664294842413 12.403615058365874 0.019347037068044103 0.4020631988246172 -0.4741556459154931
Ni 2.91163520568954 7.07324405011875 0.05943104890988572 0.008963122730558758 0.4507300679027011 0.6619204815707246
Ni 6.236653062137083 6.839307513069645 2.7487955207932955 -0.5472305115242962 -0.13576093178411458 -0.43171521736309515
Ni 4.02252120538323 7.429913690588611 8.74923018994806 0.18727709738553555 -0.35510817023131747 -0.2998158254169159
Ni 6.190302863493689 3.1876805046230614 5.257006191329476 0.2877228988081238 -0.3325927627376208 -0.7509261594771713
Ni 1.7202174722490073 4.088420908389501 5.863077869694489 0.6389132220422739 0.523770223618827 1.2353507914188402
Ni 6.218168547353423 3.4109764066589268 10.646287792709513 -1.4041439710675754 1.4542452585993406 0.890470469563118
Ni 8.408370551301175 2.2355335169066763 5.691170956128566 0.39614631911955 0.8452617342369637 -0.9658613848996075
Ni 9.306156766582651 1.8910232791978085 3.094546702881427 -2.0645037930193992 0.7304663489609227 -0.6074722299241732
Ni 2.1964437689598704 1.1108952604726392 2.951578797455511 1.0248939134827315 -2.752755713395801 -1.5614237507600723
Ni 5.9344738450074255 4.1409573073713135 1.4299698427181815 -0.9470486230684786 -0.3609615436883009 0.9092564919213695
Ni 6.425165478437765 1.2822844964952735 10.090665133751042 -1.2534940379867703 -1.5787558142806164 -1.168230343621259
Ni 2.356479289990137 2.9733675581684333 12.798296492112794 0.6602248390358565 -1.0148676395949812 -0.7072030075576079
P 8.131232480451587 8.114896466384264 2.6705076737859716 0.5190152254323448 -1.2323659977589034 -0.2672936844194945
Ni 8.89721002894157 6.872368493920178 9.911154194589498 -0.01436166803831075 0.041506089663586584 -0.6000761945704182
P 5.593732744331097 6.016496564165175 4.9942065845277535 1.332784545487982 -1.3524457713623352 -0.7642074499671097
Ni 6.963318603985466 1.7949426975943703 0.9040983622136112 -0.9089721279117313 -0.06976971249497016 0.3008933747518108
P 9.538417102641853 4.863353630123872 12.934298439612725 -1.2571378053869446 -0.7297698371145304 0.9995572344901561
P 6.700275438697364 6.758331261933215 9.09740769612102 -0.6394739796417503 0.4696562153832428 1.5884491303089803
P 1.1268423218240726 0.04902934199355014 6.618812996666073 -0.7689593628297983 0.39356827397972866 0.022893616768721863
Ni 4.731026359711194 1.5764160967176155 3.0347730051504014 0.9236140461946223 0.8184872943565968 -2.0902497916352516
Ni 4.848221517320016 8.359695897141401 12.721986747489131 -0.16576956233106288 0.18706421004378107 0.48035303297545656
Ni 6.106603943346038 8.751788017093975 8.107309110190752 -0.2867790468376158 -1.0686142371888177 0.3359822480351439
Ni 6.697145295412355 4.754659867590902 12.813707354363038 -0.23921338124351063 -0.7733114691509069 -0.14499273479502772
Ni 7.408873200814827 7.684122072758671 11.988657149108523 -0.019907537557204424 -1.4111628255875697 1.0517804534609305
Ni 6.728493032157188 0.638741854343867 12.330477130532493 -0.3737656374315047 0.5159615262076855 0.22574619999501125
Ni 5.75017508312887 8.182787236864728 10.470097768879338 -0.6617003951401185 0.1150175285891761 -0.2473825473178643
Ni 7.820237001761788 0.025310634947504275 6.111469556606226 -0.8699078149204179 -0.6393312834162989 0.25427798888611697
Ni 7.618583540131439 7.303837445967001 4.711508341996746 0.5322286387988254 -0.6214528604739813 0.6616572006070088
Ni 4.154802171901158 4.15715440975439 5.989225422314013 0.5956919494597934 2.1602804711010926 0.4048721290283221
Ni 0.3167843916112742 4.606200320247798 8.18970411266228 1.085360346298905 0.8672140701383386 -0.2799797645275952
Ni 1.596493465480628 1.541651132540333 10.653118543262831 0.007898686021786398 0.10860751129777425 0.04669071918831959
Ni 7.37222829851075 4.683722300835979 8.856239416790075 -0.5616716266502907 -0.10234584665877858 -0.1797530210943485
Ni 4.585178352031913 6.200786065264782 11.970995917573493 -0.09047712024565063 0.5282981933961676 -1.1169820869692442
Ni 2.340569271754503 5.242267661630984 12.338352496951343 -0.3568560061603596 1.0912044637845077 -0.5719904920777955
Ni 4.7195615153714305 8.046070357229878 6.212230535890857 1.5759605109236665 0.17461827097094443 -0.3890603588070461
Ni 4.168156215146667 1.2986482928994445 11.67985462287402 -0.23319108630883065 -0.11870500474309234 -0.3104681629244395
Ni 5.454728452295666 1.3798375419517186 6.99548036319998 -0.11836793311864775 0.36557873074533814 -0.9800757287267766
Ni 7.245577885594256 4.86307580675538 3.528467909194138 -1.7244499460180431 -1.7972507320298532 1.661766450945893
Ni 3.742141861901235 2.3672588366876215 4.727204436238642 -0.14755123955082333 -0.1774238587405396 1.4753162203370271
Ni 8.423456360210285 -0.038585961571940774 10.58506385699496 0.6861119912152636 0.5478753441971467 1.0943486658404442
Ni 1.6605595342548531 1.7740225979469326 5.266317904563429 -2.5489744477076552 0.8754832521256664 1.088889442498086
Ni 8.175350831368096 4.9783817654584555 11.159038601598105 -2.0558823698989754 0.8302331220386154 -0.08692051324264385
Ni 2.0339541415079254 5.745729909232999 3.0786209413215784 1.6917375433866866 0.3696107347228667 0.5675149728049451
Ni 0.8499413269155962 4.258819241064514 10.846196523585732 2.158734209659895 -1.2588951543976836 -1.0196108107069215
P 3.3531613636757687 9.077461830419095 10.088617575525259 -0.8358070165819669 -1.7405643350814022 0.48237109184674987
Ni 0.3433683836643662 2.1792279808923243 7.8301275136800985 1.6916915206400993 -0.28539065113052137 -0.23909691027030433
P 5.184054405152987 2.35876670239072 13.203848228190905 0.9317713851944339 1.0230442618685027 0.5061188290856509
Ni 1.5677665291785687 4.8666504674299755 1.1610812737570104 -0.9895193906381797 -0.8991754535362837 -1.6847433714570403
P 0.2684986901673873 6.057836681396766 5.87877303785849 1.3234185308920496 0.6721802116255199 0.9654749480944662
P 1.8241604551807655 3.354985737128865 9.185075786126525 1.2210410596643875 -0.7882274670307908 -0.6886255016657367
P 7.14598746876887 2.5441489754063946 3.1285272790816676 -0.16386077534412424 2.0569424357323736 0.38523969950937526
Ni 3.165899152533299 4.932383476415152 8.098904953293873 -0.31002516184974993 -1.1694151079579793 1.0745861385015363
