# total energy = -340883.01139675913 ev
CRYSTAL
PRIMVEC
9.13922340210252 0.00000000000000 0.00000000000000
0.00000000000000 9.13922340210252 0.00000000000000
0.00000000000000 0.00000000000000 13.37617725583818
PRIMCOORD
 96 1
Ni 6.669476109047878 2.221754309044634 11.182203376117785 -0.010452048571259418 -0.4521048367630407 2.129525963527055
Ni 4.5884384202407595 0.6563250917320878 6.076382561151427 -0.3192173698719793 -0.9064606743437874 -0.43845562141072225
Ni 2.892555016467713 2.0990967939308005 4.986906725691927 -0.4227214985049172 -1.0747203500865554 0.4169136335738885
Ni 3.662287815471692 4.426920927907344 5.402289905517037 -0.09838223402534024 0.891811814082361 0.3111011685227481
Ni 3.571197177431339 3.5206938298030663 3.192786725226601 -1.1829604507425822 -1.5819812631964496 -0.942056569170526
Ni 5.246910315512094 4.932996275639511 2.9271488042785236 1.593581309329223 0.5571721961180404 -0.06954576940962218
Ni 5.816192531177149 3.3478071437581827 0.41423072377445386 -0.7145545628266726 0.03157623214438433 -0.4379745680092457
Ni 5.806340448523642 8.334158204677074 12.6331300072142 -0.3141507539823493 -0.32227106909663855 -0.07808208901540746
Ni 2.5071174155131786 5.871621920132174 11.906469453421456 -1.5829096885479899 -0.019203569511644345 -0.9800068231620543
Ni 0.9287278657229534 8.04317447591548 11.476666407167123 -1.2166362457284725 -1.0462530958847982 0.9760221274826932
Ni 0.4559064956745055 0.3047949229229841 4.967149552890118 1.3171530095983122 0.704814195610457 -0.08415657734426152
Ni 8.64961677327734 2.606012950201115 1.8639436660245008 1.4750539678145758 1.8830569291623958 -2.398717893410527
Ni 1.6306933243969213 1.1486084376716696 2.750664006043764 -0.8429629109004579 2.583544986593673 1.3659062677426155
Ni 2.187591892570786 6.786759760896162 0.6877804702820312 0.04134153906126429 1.0222803871192847 -0.009645236399247905
Ni 7.801295793626327 4.509521227557059 4.0648596321579475 -0.21486143476170735 -0.6931233895360902 -0.5124663685702336
Ni 7.846525809444699 4.152214155737489 12.659267271760363 0.4166845482822179 0.41204216441420005 0.145835028190665
Ni 8.123362020629642 8.922879548175159 6.937353139689934 0.29411980347340316 0.5213790976788311 0.7444518646067372
Ni 7.006960205658304 1.1764190939932102 0.22630179019765287 -1.1128356689010384 -0.9104528262223158 0.5780305276242884
Ni 2.1635740138941486 7.085502690189135 9.46343078773833 -1.9077235786711404 -1.9464467062729507 1.2070385747377084
Ni 0.13849853075699028 5.499171155402716 1.4966474232028144 -0.2846874544159097 -1.8388439820906073 -1.7926093766030997
Ni 6.085178149598305 2.3024902071532405 7.259706338303009 1.7198384153879605 0.5334244588791394 -1.0610148275750049
Ni 3.7297352829882775 4.517673414687789 0.9494921809258913 -0.5386895639328205 1.4882879500063466 1.192105864687276
Ni 6.015062028895428 5.985578894720833 5.255874065666602 0.4192911326671295 -1.0878586872407265 -1.1969863327080288
Ni 5.292122052883985 3.027111800240977 9.524172807163193 0.44134579847432376 0.8089978668089229 -0.47818250768669907
P 0.3446254856507323 6.276617458821871 12.792039165234712 0.3838351058523648 -0.6937746499668439 -0.5017628661098004
P 4.329478529714684 6.535211780418318 12.826362432037598 0.6577650646414542 -0.5338828865727966 1.6250485266995691
P 2.636940081647744 -0.12346633637063806 1.4866418015988636 1.692767784423414 -2.0200697310757403 -0.7275072663325988
P 6.555126147859868 7.909184323983142 5.975967173638558 -1.0602118720577354 1.1932741739637642 -0.35293867338382445
P 4.715546737072828 1.7137780028783949 12.691570770227047 0.5216146107284049 -0.13512021287632212 0.6670413477370577
P 3.9258721529575773 6.523769472920924 8.259829815982544 1.8634743790447779 -0.0008590055661856174 2.0543091118745846
P 4.765355503734806 1.5266432678012134 3.89161103287273 0.0863939513152125 -0.4510054330512749 -0.12427478552138596
P 0.09958006250866688 6.099983691248288 3.7330372843451527 1.8749044752585904 -1.133953167605944 0.6813107131718782
Ni 1.1563310813100862 7.860782997700237 2.9096124627242115 0.08466334177735096 -0.30612042747870505 0.006628046839478908
Ni 2.140360386862695 6.578924685178729 5.082078026909266 -0.7693095470803654 0.5815313416886954 -0.7879341041600882
Ni 6.1595440091081235 6.037014443119659 9.304454913388161 -0.7495958707015219 -0.36446492885586906 1.5830282164037253
Ni 9.124353724517045 2.737636043314104 10.88240303869586 -0.3264200582680056 0.028813581797582637 -0.787099781184251
Ni 2.232291833441195 5.75134060306093 7.3482699811173 -0.8603204283422989 -2.0788150674357486 -0.1413152859434405
Ni 0.42915233355959326 0.33464910956115174 9.240530616430878 1.262053240410691 -0.38179570682483277 0.8136392222356761
Ni 1.9735055881566927 1.5222655798689038 11.724045074002547 -0.772813703578882 -0.19526937156239274 1.202929180555025
Ni 4.3437814140864255 6.993479851378228 2.0393052537229743 -0.060149415796386725 0.5047803127798856 -1.0357177435711131
Ni 5.563072604301898 8.33562048039559 7.90307383932439 0.7050599930726761 -1.1220708143460612 0.5245955477335997
Ni 6.802086238270866 1.195026552511336 4.8909722993339875 1.097177393538491 -1.2395663721620847 -0.18106402659628815
Ni 1.2298469930585159 7.887542643349094 7.251279060552732 -0.9660853279849555 1.2646022320847898 -0.21240551702204707
Ni 4.9545557032643925 4.60034682812343 7.4732698791477326 -0.21951538859395098 0.5693152592384776 0.3888500425684529
Ni 8.227247571207018 7.4877564619066135 9.697313563614168 1.543848203770154 0.9702353455975873 -1.5641182668731
Ni 4.762138497154069 0.6711251498481253 10.775246560120626 0.421989505434899 -1.148883820773847 -0.06938893211678372
Ni 8.24380784371922 7.708313336375143 4.580992695066537 -1.102415759119295 0.009642408185770491 0.26522548903655613
Ni 7.281292269675288 6.321280842799316 7.397654687820907 0.5286131535334251 0.25255586398868757 -1.1005301120608078
Ni 2.0427900395446645 5.589594630146496 2.7058269768247443 2.119508945610685 -0.19151504672628306 1.3085840369823787
Ni 3.7105520534059857 4.8030547996028155 9.729911345069203 -0.609487460581989 -0.14791916441320332 -0.12883489408824264
Ni 1.3823897681695356 4.05040320883576 4.459617412973378 -0.6594815331119287 -0.6935900447598635 -0.7477030245541831
Ni 0.7994599504391002 9.247797212829582 0.4564904920395881 0.6230711128036946 0.7421540697114961 -1.8798093687593753
Ni 1.2086988304794675 3.098964373359594 8.662024182748956 0.8372054395913904 0.788511573930113 0.3688478884149131
Ni 5.740958445459462 3.2747756108415116 4.725616333239465 -0.5431645689850388 0.7265248478146713 0.13232053864399793
Ni 4.187482418223466 7.077862299559886 6.250085379831708 0.09313024159778155 1.4914774034779215 -0.1748764097283375
Ni 8.087728189214038 7.783629675101997 0.21622579657474833 -0.35314024787166926 0.48065050961121736 0.6052934771052996
P 0.1467722695568229 6.521612616236112 8.261046246595884 0.20676220269334067 -3.455365445155772 -0.2871114904763701
P 8.749746103102776 1.7765096312027637 7.974675997726211 -2.036806327104131 0.4700819900667517 0.32358207459857824
P 1.9907969985281533 3.931794369617571 10.863997557011354 -0.5733153815368061 -1.0997649517600092 -1.1545225071168632
P 4.128379061525666 6.4414159322987095 4.162786409182366 -0.5618708871452903 -0.578751464950713 -1.2762279892491761
P 7.202850316600105 4.112211775612816 10.37515147293261 0.36968863914865363 0.9650283474753509 0.08456538274690598
P 6.414080515585686 8.14851316298813 10.358043760948288 -2.216808230984492 -0.0349160951508947 0.9004864590382233
P 2.458496747872496 8.839959375712018 5.94806512508461 2.0737654208269833 0.7142941100764343 -2.130903303490556
P 7.112335449623918 4.557995667625889 1.758525467709656 1.0880774881197517 -2.4210283839822693 1.0036152066096133
Ni 3.0148195449821955 1.9761194060035414 0.8317872108862092 -0.5361233458675412 0.7384439678497605 -0.7978968717997549
Ni 1.429749223002997 1.3536286326309592 6.9475598242051815 0.6275720859978418 0.062427156086969894 0.2422629667031118
Ni 6.9991187521177585 0.7903837878387315 9.116145788124546 0.19750623131271147 0.4229883790130585 0.2744336378983855
Ni 3.0903278073971046 2.0416476366395737 9.787896974764662 -0.6925981131602394 0.29510067932943373 0.19318009313353182
Ni 6.510499320775385 2.1382857831870496 2.376505120490614 0.43732690712291783 1.52796392843973 2.463153338176777
Ni 4.323556313054691 6.966098738549002 10.72099247527436 0.8643850853299758 1.3924235973068535 -0.5826271458560354
Ni 7.609710256830911 6.680571126062124 11.62257319228305 -1.0390802322854427 -1.6293366125519615 1.3331241882155878
Ni 8.147900835031 4.146785457132497 8.404827248386015 -0.6847377365755563 -0.10396949830513062 -0.6775648729762008
Ni 3.2228648228341665 8.600639675930271 12.624703643386248 0.6380251630103657 0.0568666312800569 0.8878834255622322
Ni 0.2170794000254325 5.243355157671451 10.487109699398522 -0.0324825460087376 0.30054267628061143 -0.2715254631126549
Ni 8.680233171133786 2.8008337720237497 5.997155548799866 -0.4459907534455028 -0.0052715328115844695 -0.3485500573978255
Ni 3.5702466982143033 3.7284740701810564 12.283129744375596 0.3606293571598628 -2.1744647330212743 -1.0775979287446666
Ni 1.2518633818454337 3.4704189627558124 12.973126476293503 -0.7053950078145916 0.880602832740419 1.3840518283033905
Ni 3.195995506506421 -0.4128507010651037 8.423982146376261 0.961019483426274 2.1850101126372885 -0.9940635583654366
Ni 5.805325994743922 8.101400467182168 3.8085985542548584 -0.23162502737329138 0.08578819941041355 0.8856802472633263
Ni 3.4105387720825515 8.766790754446736 3.527886398493521 0.02762187548232662 0.2730663252372136 1.5332341756997334
Ni 3.6140235775373983 2.4883088940837568 7.594846224152188 -1.2086989931592669 1.669374602310454 -1.8562014995324485
Ni 5.460996619926188 4.697725251753405 11.576961156933216 1.1408534942702029 1.02298332672358 -0.036740807064459306
Ni 8.555400520888659 0.09909659759923228 2.2108548714077396 -0.9032097715066573 0.7955062600803912 1.6555682925549808
Ni 4.912743756938054 0.8368613076294624 1.731399339208846 -1.701740163125353 -2.0721741650804635 -0.8779983052380362
Ni 6.306594111051464 5.922024736304798 0.49233452558973 -1.8934539561260035 1.2438806832667222 -2.172716125761284
Ni 8.035872236546137 9.308116086218398 11.433849146284306 0.04387896077113733 0.5887322303125087 0.5357114551411032
Ni 0.0743247330052344 5.294297188015278 6.035973485592541 -0.36229646044964053 0.6350928198549192 0.7651219913615791
Ni 7.557543570572825 6.627463099810244 2.3529898990922162 -1.2270013910128803 1.3704519781317688 1.9908121197622035
P 8.913822577943597 1.9519096036388484 3.7678147705431018 -1.1944859348836783 -0.12546726316759038 2.3593509615771304
P 1.615010417315829 3.607077767874444 1.9075368469604577 1.3591650923640397 -0.3699981999692724 -0.5028872095222308
P 4.825016353050289 1.1267017195636404 8.542347882256248 0.5797048300029177 -0.5670467749192749 0.32020853014065503
P 8.77083943034238 1.9417924835113605 12.926536544056912 1.3384725970116949 -0.04115950495744525 -1.2541136738486403
P 6.626521759816449 8.572033907186785 1.885024198351568 -0.9051370704363573 -0.149518133469207 -1.5306214206672348
P 1.843792592701016 3.628545803266918 6.558807426981234 -0.12594060325958312 0.16069600446289742 -0.47207973722307084
P 6.78910854126903 4.287237039896031 6.367675195658557 1.690089209149986 -0.2070221412229467 0.30663336255938156
P 2.5522834567688646 8.932557985587092 10.590012783477517 0.9746244758042182 0.8538469048028134 -1.4381100436003749
