# total energy = -340890.67418980383 ev
CRYSTAL
PRIMVEC
9.07660392171757 0.00000000000000 0.00000000000000

0.00000000000000 9.07660392171757 0.00000000000000

0.00000000000000 0.00000000000000 13.28452731661715

PRIMCOORD
 96 1
Ni 6.349901472206734 2.1563560692070647 11.539763924964975 0.021650231279924007 -0.2766275602259107 -0.5132405277320968
Ni 4.895657037644361 0.5810587808953143 5.784641428432481 -0.42808224859619826 -1.340830298610594 -0.16408934641516257
Ni 2.9662160712906362 1.8189696176806043 4.494155269976483 0.27858982615860406 -0.8065437488414754 0.44192635356814214
Ni 3.6984983380107077 4.402715744809878 4.610794171145157 -0.3217738177452458 -0.016564075006268247 0.9344517602400745
Ni 3.7291954131247076 3.100940106156721 2.6497847756824764 -0.8189470076018348 -0.6834935797558099 -1.0304559809515415
Ni 5.404908988071941 4.809701596683515 2.373971283485064 -0.18687497685111043 -0.4959210626170427 0.6363421188809879
Ni 4.901338991819808 4.660509454859501 10.975517737870272 1.3681166451303728 -0.7591758010804732 0.4764074180641472
Ni 5.61482361141951 7.928722298235591 12.302960197637374 1.0703258205632857 0.18417711830397313 0.289804721037817
Ni 2.146671332617284 6.546809321858749 0.15613937461297206 -0.15083505250841764 0.9205302650629757 0.05544146879775613
Ni 2.7121709987401506 1.4803669012028497 0.3120826945770788 -0.1522041649418024 1.3980892802330631 0.5969060243725526
Ni 7.825602998894919 -0.37976148549370464 7.3099438736231725 -0.6812958007735428 0.3446712911687096 -1.5534983252654084
Ni 8.96386361443196 2.467039151429744 1.1676433983753132 0.6976927540743274 0.12871482357061056 0.005340438376306931
Ni 7.074632004303846 1.0345694901371774 4.7717622991468485 0.19796208790320746 -1.023636644036863 0.04806651648992367
Ni 0.5282674360466904 7.64221021276885 2.0454980571986825 1.6127835932892869 -1.6069739285860454 0.05928372536198177
Ni 7.837919950677798 3.9829046513229702 3.6412494728816327 1.2346020861782738 1.093686092555781 0.9951812169096473
Ni 7.659936820603753 3.8875549251039967 12.490272261419928 1.0302320378661933 -0.2687687263031242 0.2700738182677929
Ni 8.313416010404916 7.287650826258448 9.174454444786031 0.2378203575507259 -0.2021768973155034 0.35608493232229
Ni 7.158917350107691 0.6668444893592254 0.3626185033033405 -0.4371718696022922 1.097199247915362 -0.6801534596389834
Ni 1.8619836445774833 6.752566860522043 9.14057874291126 0.5932946528722104 0.5688784288113751 -1.292692562563103
Ni 9.37113991763725 5.216841750827093 1.096793241981209 -0.17510446657874357 -1.2900091021936686 0.17093953656777658
Ni 6.499193456676003 2.0696381935006323 6.953586411837761 0.08260491658642548 0.19945255640580487 -0.33285141571564614
Ni 3.7133839687578867 4.716375953181994 0.5698083300958457 0.8874648499675748 -1.3411167195027611 -0.6318306041638796
Ni 6.064169974693808 5.657047973758459 4.667452149346402 0.3913764085347324 0.698683657232687 0.536782833828411
Ni 5.282020844970686 3.088977141934293 8.953931086549863 0.3158278845744561 -0.7460564900896958 0.609581305847376
P 0.3720245881468172 5.555689535615929 12.059734437190937 0.7431148909628685 0.10573481773566952 0.2666953887138632
P 4.28153400328208 6.225470306406076 12.394039381620649 0.14404605461104222 0.6113859631562826 0.6011606858838485
P 2.459487416806785 8.500439438176638 1.2132242889156695 0.3199694175466554 -0.6162006109361065 0.32813524118689935
P 6.350355302412441 7.704784321531687 5.772379843934697 -0.37840673574794187 1.081908897415195 -0.37512009457687007
P 4.918548233220205 1.082965943273738 12.625362991092224 -0.8191568096197958 0.39052948715340485 0.8855231528601717
P 4.00308194226869 6.423185973824248 8.000181494765753 0.19446178805943282 -0.5226114274240354 -0.16591971475568199
P 5.2250106945298125 1.2107009929719401 3.5207983979850233 -1.0574751898528625 0.1057121920278502 0.33902849106063543
P 0.24345358320970317 5.719177328919703 3.536513630348234 0.8880824289469157 0.6036268880361539 -0.48826406029241715
Ni 0.38699190833102354 9.22455276119399 4.873561860249326 0.854378094715935 -1.3507789251828737 -0.1873884261524192
Ni 2.128808575720669 6.317733987226245 4.722423694503241 -1.7633314535745888 0.9571533156026483 -1.4404227508939516
Ni 5.944177268304961 5.65362609400743 9.094069315770028 0.597286547640423 0.5413565692420225 0.33313526550465206
Ni 8.490255488360582 2.3560322831138905 10.29829869000859 0.772597730913334 0.8181851897351456 -0.8625680867258951
Ni 2.411254342544279 5.371870149096495 6.784527398928731 -0.09112760934545595 -0.24390178785811545 0.5506225679249807
Ni 0.7226247599426334 9.33120285953506 9.003017361599097 -0.6003114505096757 -0.5593278090084625 0.08792452902712598
Ni 1.6929409695558588 1.0986866215994173 11.134546195572772 -0.43560246823264337 1.6732343423761764 0.9037854415044694
Ni 4.382302462157192 6.954593914894429 1.345709125546798 0.21800846503112128 0.7761666792115148 0.3496738865896236
Ni 5.680728833892234 7.963739836907918 8.167712915202374 -0.7703459587646797 0.03559023839978386 -0.12435988903602453
Ni 5.701323648627202 3.1742518375865783 4.415936726362526 -0.6582180930184728 -0.6627594325322521 0.9092570061420019
Ni 0.7852333598011042 7.707952056367519 6.847124199201852 0.9357157145541626 -0.887071471183898 -0.3323191973612599
Ni 5.221752193652839 4.625827750539396 7.062360435541538 0.37386205380005294 0.9245928651681237 -1.1568457559334013
Ni 1.1783973589297387 7.556572452951999 11.413428487621173 -0.6025781350566654 -0.03593219512023489 -0.47685093335946904
Ni 4.447327254030845 0.7136107843968873 10.390772040383796 0.48183758794078313 -0.019330582007811868 0.25170457173198585
Ni 8.18551758183266 7.2260025311152525 4.638664791738016 -0.07113034028792267 0.15466188245367557 0.21759503164278654
Ni 7.214702158993156 6.292519180997181 7.127481439418801 0.9128105278212151 -1.0065400935658921 -0.8533509390030013
Ni 2.5014304044181963 5.512566589469681 2.4243600512246766 -0.4482893196716924 0.6352362874113189 0.5011319173940209
Ni 2.7549762637424045 5.206748567052176 11.43716834568169 -3.326587115337077 0.24629574201158874 -1.0422773990665017
Ni 1.2628733134199803 3.754591751436054 3.5962540233066385 0.24010066894447038 -1.165902723929347 0.09183312005291282
Ni 1.5927715665522804 0.9761161596421569 2.5023798172085345 -0.40416276166612325 0.6838095683343319 0.18919102657879677
Ni 1.196223809409897 3.5878273040470767 8.093505322946452 -0.30056273088526947 -1.07248991809414 -0.7040588055016713
Ni 4.06572866386444 2.6969313804325203 6.712685169704952 -0.8065090389487981 -0.6592514193789936 0.2093739292845749
Ni 4.044090039656345 6.938156184843733 5.839466840263082 1.6133986011654664 1.1909488682646974 0.14560542867836213
Ni 0.6379963185032744 0.07093003051030852 0.050570299821895426 0.550799202712161 -1.1214000135312814 0.6168606131176085
P 0.32556689764903574 5.707522969237155 7.813055501367541 -0.41883630451789805 0.5955464250208646 0.2353963214902656
P 8.397356445252424 1.5564469968875176 7.835718874180121 1.4060926101535138 1.7527613913682265 0.5872718437168982
P 2.263514457378526 3.240356745349814 10.134168273133536 -1.3428961800006871 -0.04285694726452619 0.8764888105720454
P 4.2243604739671525 6.305653027150332 3.6794556225792556 -0.6205748287444023 0.6221511720925866 -1.1089535602378127
P 6.872859094846657 3.9842661419400907 10.318065718448352 0.5019094189899936 0.013869816003556757 -0.6076894881413019
P 6.4241753236726895 7.817143603860547 10.277879961393436 0.13624198518559116 -0.22460000220570994 -0.9778154719376901
P 2.581032222499148 8.929327135777681 5.59986718316024 -0.3773446130320146 -1.0148820377726846 -0.9983439309083452
P 7.285454288062828 3.9820242207238996 1.4298664912326333 -0.7083792872538961 1.0797144608670373 -0.9745794814988957
Ni 5.248664324851245 2.6777162095228997 0.8764650307334955 0.3529924094398953 0.02948515394331051 -1.2671368255811855
Ni 1.3679350060410769 1.177671230600608 6.745152182621207 0.8436026013669858 0.6596851644823026 1.3983376487984434
Ni 6.780695256671744 0.9390473084400353 9.26009946588617 -0.4095731340484172 -0.5189879717388352 0.07590667863064347
Ni 2.759605331840613 1.6468681270725167 8.790132873385383 0.5389209632173364 -0.1522630432041958 -0.1408494020506155
Ni 6.961001997399007 2.203726866078728 2.560313965948227 -0.2590921224453086 -1.9628215480865485 -0.6711983073282247
Ni 4.036456615596359 6.934180632241743 10.170528241554344 1.2530906319007644 0.8418462807975114 0.49088350019313526
Ni 8.350285176316527 7.051640966082746 -0.17667882206284502 -0.3478262918579235 1.3764891854647843 1.1351343323982386
Ni 7.741444725548672 4.030139299132922 7.979417855194262 0.4664924729432805 -0.583910126333517 0.9568172724194682
Ni 3.341206893661952 8.68669135459866 12.296557561095264 -0.6017029315405636 -1.43323703177879 0.21335862496393576
Ni 0.4960318765353448 5.076535604430815 9.901861667436402 -0.4904158165280973 -1.4631811276363897 1.2209235602499167
Ni 8.961149709801834 2.513093840704858 5.611716689831241 -0.5879799255275164 1.2742824354870312 0.6603590506208756
Ni 3.4664095708123117 3.007151555845379 11.89831338664395 0.9075143124192822 -1.280372350434853 0.2515353931439733
Ni 1.0616177703972955 3.486096725135867 12.389841452217862 0.4801208623599925 -0.39439462653576596 -0.28470699479993544
Ni 3.1584585464279864 8.514480944741203 7.583020769680172 0.2619306203353683 -0.22079708351985203 1.2545764724176716
Ni 5.9538347750824 8.11617232640068 3.324665690324355 -1.8432616515423286 -1.0412558997805228 0.9569735954916744
Ni 3.1318459431653465 8.48267652392528 3.563880499412758 0.8573510613013299 -0.9919475404636983 -0.23966666673084527
Ni 3.3550033319154355 4.496204767185454 8.808000168584057 0.45213851821445356 0.24955487237883472 0.7042727212846903
Ni 7.4380410798255285 6.017207625007281 11.200956077234242 -0.6650633980750804 -0.33902052064083543 -0.7330999299290277
Ni 7.912484253475406 8.869839072413649 2.637629387452828 0.6133027205630212 1.619980111037726 0.026721732265560436
Ni 4.5226812213863825 0.3235092314963617 1.6372914020716942 0.49430126762543264 0.5746914359487264 -0.6544480844530793
Ni 6.170284553392144 5.572871547203984 0.14162406931364957 0.03043800477488306 0.4116886377295233 -0.13209222468327575
Ni 8.079375773321981 -0.06240891456795989 11.113928689327517 0.38331342902093984 -0.7373877586711043 0.28386855805904015
Ni 0.17500691158502157 4.975267932329427 5.74355254926821 -0.3720903066116108 0.04132868354545786 -0.2188193909681909
Ni 7.438821667779343 6.125555048317693 2.370238983873332 0.1292149031354807 0.744329222985944 -0.14964874550980034
P 8.94217053059918 1.6941753877153813 3.6137900224551442 -0.9642816991173135 1.2918021895383496 -1.6814780704422072
P 1.979961344852992 3.6342813639032125 1.2593860821193301 -0.2394193266067296 -1.0767240107801457 0.2270268664796477
P 4.817362250555845 0.9264217521172755 8.191199536008106 0.18056137592825675 1.646932214146538 -1.04983592814005
P 8.770867781153136 1.5836223496052337 12.333740777509224 -0.5457636971707827 1.9406133874206253 -0.3615544400772935
P 6.612306097146337 7.848521424283106 1.054122310719844 -0.35248924455123165 -1.6140981983356524 1.3398342532459118
P 2.1658592737145628 3.2915306393452988 5.865464049766784 -1.4715791218920977 0.6108707140827608 0.3332244827843487
P 7.155450087336092 4.028514586996492 5.892086637293949 -0.7889064953756865 0.1481536490215126 -0.4017135287946823
P 2.6230568995475867 8.607162149350621 10.05584262559103 -0.8567828475026857 0.1781414536328545 -0.4275744557218442
