# total energy = -381173.4265770032 ev
CRYSTAL
PRIMVEC
9.20012440842889 0.00000000000000 0.00000000000000
0.00000000000000 9.20012440842889 0.00000000000000
0.00000000000000 0.00000000000000 13.46531203456299
PRIMCOORD
 96 1
Ni 6.171231662831472 0.4267164772983931 12.564899326790158 -0.11083897173145427 -1.1126148111394838 0.10675117481532582
Ni 2.32396055509192 9.142770555110538 7.333989350866328 0.9672271548988824 -1.0520272793644139 1.318977978622193
Ni 1.3254618832549867 5.7593329054551345 5.8866037426051046 -0.060970883256417585 1.572342711665421 -0.8560050887963967
Ni 5.76900223591464 4.262932715884623 4.692458911091991 0.1282222002049082 -2.9809069232878795 -0.903596979642747
Ni 1.568381960755262 1.0083980053996622 3.684984598154874 1.493239637584667 -0.6738313740756976 -0.3062268711495823
Ni 1.0899295054302425 7.462312682216647 0.5288084147323068 0.10601686775246259 0.18932678082571266 -0.6987134820293579
Ni 6.192134344852402 7.323749612710828 10.052285626372457 0.6499370839566032 0.715531324917645 0.3462584331501714
Ni 2.4119229418886228 4.106539805816937 11.320839221815534 0.9299993808956757 -0.8481297998133781 1.1077744523280468
Ni 5.613354535901398 8.02313384886798 7.367114397792541 -0.4481725915881701 0.6469188659555697 2.0321747418693903
Ni 1.2285845761773508 0.9756271632524125 0.4394172486583814 0.21657636057028506 -0.40105969726076734 0.04669586139464216
Ni 9.199139715648494 6.065503836341806 3.8815102896977796 0.28041145274837515 -1.3310241111534495 1.2747976845605529
Ni 4.455969720357839 8.06819605685148 11.993202693406015 1.4874155747037223 0.3090702541356483 -1.5256260243351725
Ni 6.816417967745096 5.454643194553221 11.390374679994402 -1.2073561059781273 0.48742870887531536 -0.43026280118728477
Ni 1.188573236340633 1.6424613602414087 11.209360397732873 -0.11112564973393765 -0.05409446785155844 0.41749778821213257
Ni 3.421489363052659 3.256107931711008 4.175767979849899 -0.6816799235858388 -0.4136547603169585 -0.43088038016662566
Ni 6.840237089114896 0.11477338853323114 6.0070775280486215 -0.29984924975801264 1.373449370197196 1.9372511558166117
Ni 5.460448472878577 2.506997024636988 13.487664416822561 0.53288581276685 -2.1336924361999188 0.38989905265825753
Ni 5.193295268422699 3.9049190855314295 2.2551969873274693 -1.0018038644324876 -2.030567288172955 1.604575860667514
Ni 5.759204103717329 0.4329118408868148 9.984151347098425 -2.308529765160205 -1.7050658850644764 -0.6248968531585237
Ni 1.310658883531538 2.7892016321677957 2.1341169137038563 -0.1942733261977106 0.41771041844357093 -0.00574898666863526
Ni 4.201742690303108 4.419528028683145 6.1625347854923955 -4.268787923394951 -1.426919317090878 2.56568353293222
Ni 0.8646405458106492 7.313003867728237 7.529869193695382 -0.5854916118880239 0.2899232488935523 0.6255666255320388
Ni 6.0978054721584805 4.300147217986146 7.092260689440748 1.5167420915819811 -1.5352830878089623 1.1046356495887493
Ni 3.2297219757092357 2.1616979658299766 7.316969121227807 -0.21920454222175154 1.671120381356967 -0.34738894721018887
P 8.42745170396208 2.7152326341711963 9.716515136125778 0.4358333532965268 -0.5724790016784399 -0.12041555967629584
Ni 3.31947838671108 6.58391243075877 7.178519213248773 -0.7876960200073532 0.14220411630629703 -0.3468292180519769
P 7.047810289711821 5.9765110356426625 7.906507555335182 -0.05918679477280129 2.316254130387656 0.7061629963288677
Ni 0.7973213975344403 3.310094260099571 13.097210228778348 -0.7586150434809966 0.8860687409509966 0.14505238438836954
P 2.0395203173977823 5.573471997802485 13.163877088253816 -1.1213424208204688 -0.8776033837924627 -0.6259669462942511
P 3.3664634206375266 4.393997684225364 8.320364099126156 -0.6870728124666361 -0.7262330276058654 -0.7031879728609438
P 8.826378286316626 9.401238842388706 4.9030166319563415 -1.1572962132072586 -0.7764950090852112 -1.0724192127572048
Ni 1.6879743743072269 6.9266262546855515 11.147890688377837 -0.7908839308170315 0.20741860533041695 1.0027346037768732
Ni 8.254167365993677 2.528295311995462 6.737086217393744 0.4696670140165202 0.47867204572860783 0.008761034022081686
Ni 3.4964059738345385 7.046577473078545 0.3305061792201046 -0.3225304934056123 -0.9819248661203734 0.2144030070680501
Ni 8.69715334280167 6.666961951270623 9.961354359519348 -0.6387003347005193 0.7303591339590969 -0.3827549854143086
Ni 4.796769918465803 6.172657682071456 2.45588389501389 0.15248775762049221 0.7663540639964672 -1.0344339917626828
Ni 8.131474510610262 8.82925792516898 0.9487940812179744 -1.1495908741432006 -0.33174352736344803 -0.8305491106171373
Ni 3.888818868305802 1.8885738808144228 11.315735912961214 1.16453309727533 1.233345073842721 0.4883231956651267
Ni 2.3326638725178883 6.637227150085921 2.415892795450256 -0.4427303375266763 0.16847333441547113 1.208313841905706
Ni 6.805598621769474 1.5098415709228787 8.232166189151753 1.171027446750422 -0.23695826666074674 0.07690041000248046
Ni 8.714559977653607 1.1810107343066525 2.7547876478511193 -1.2145461959686632 0.44649648943732784 -0.32077391572582176
Ni 6.815479555083945 8.276542067875235 4.059979817625247 0.11188926737283957 0.0008919156866500768 -1.2432623329564332
Ni 5.609775687615244 6.269746592004059 6.012463280713697 0.5841991183288454 0.7111735621695816 -1.473504621049585
Ni 7.20538081566801 1.9014908550914411 4.778179227638474 1.1517441730407776 1.1812218707849205 -2.42157422918341
Ni 8.018469385934612 4.027805143521552 3.013792302366003 0.882372523046332 -2.1246755774132895 -0.3138859303567369
Ni 5.024785794877212 2.7114973837748506 8.994612676150657 -2.8648730376190468 -0.18805511320214063 0.2885716199616643
Ni 1.1006660502887042 1.2280785693502596 5.9380140362375675 -0.14329426404668225 2.0270225082444897 0.962879162342832
Ni 8.133286935063662 0.456131114163409 10.333832425028048 0.39582518833470537 -0.017466017995247336 -0.14525318754526598
Ni 1.6254411306028878 8.240670783896537 5.315822521571792 -0.8448490721795772 -1.4112828961052017 -0.8931181915986103
Ni 4.732709454156062 4.515936129430206 0.05008363573307071 -1.1774773161408238 2.500020900627088 -0.9962934761372196
Ni 5.921595494717078 6.663364702736212 13.52806032184787 0.5706560895370881 0.47110066113925314 -0.20593790701983242
Ni 9.301969503037547 8.64881589062827 12.28961505262913 0.08514439517882756 -0.5644769573095698 -1.6985743638028616
Ni 0.3142937204801037 2.9621455655434272 4.482064032424724 0.5996643038439802 0.8621965623190893 0.25978272075443
Ni 8.286459801686222 1.4882672798405372 12.636157968218374 0.4874742174012701 1.079449894351741 0.537454920194771
Ni 3.6490636335058784 8.505845961664694 3.502866300997873 0.20739777939481058 0.28164943892053423 -2.0019943616312683
Ni 3.8027977077003037 0.6354774139203632 13.254377789297688 -1.0198013294511725 -0.20940066875745228 1.1259210413300869
P 5.270447509367909 2.1287523213242774 3.8697828914706323 -0.4636763436507241 -0.3710801201795415 -0.26137114828747243
Ni 4.99169294838545 8.522792590310184 1.2631522025669808 -0.08093215686969286 -0.7514848601941186 0.5388250610694204
P 7.30189011778049 7.717478124932528 12.21609410067761 0.38372223442358433 -0.4706455758797056 -1.1800692452377162
Ni 3.363031774337436 7.768069607517516 9.40593734578135 0.7264009206422973 0.6707208534711739 0.24989734331991798
P 2.0257753319491605 8.858495919650721 2.0034898712716527 0.5466113898830586 0.21538748246850647 -0.17225594138635494
P 3.740669269457637 7.793351548623816 5.387740811900053 1.1540777062699608 -0.5593344938766819 2.112260234468072
P 4.665511747518354 4.017169800028508 11.348739518248927 1.1848471262423337 -0.460367076771833 -0.3103936009327622
Ni 6.8515624419176095 4.871750930116585 1.2291973044443376 1.1721767298635166 1.0187854865921486 -0.5328374760274178
Ni 1.4757275106528052 3.216906202797636 9.19841014580507 1.0013014708747725 0.4449461142310724 -1.2391259421905563
Ni 3.4556126234468616 0.9638786047397685 5.307756772747959 1.0081958840017604 -0.21940534537864792 -0.4870726110874773
Ni 0.05100548817078953 5.543037987183983 1.5480800468399518 0.3549893852652661 -0.5417080390441702 -0.10646783924695212
Ni 6.826584104907563 5.747749949176812 3.6995677149116415 0.7874479085522891 3.400231994516737 -0.8523682633747578
Ni 8.076742972167256 8.62903562375107 8.10141862509346 -0.1934271761473314 -0.7028838113569637 0.3041959567624825
Ni 5.562128244751514 2.2020773106318514 6.291693488113622 -1.426347503747808 -0.5014746454454202 -0.012073386224766303
Ni 8.868036448372422 5.755984060272205 12.551017259492014 0.49575291247029457 0.8610691335828655 0.6529735567900818
Ni 7.9686231134040675 4.671105422988744 5.748018592801376 0.6023917300774722 0.6239964528314415 -1.6753092226273338
Ni 1.6137109723385017 5.705935385010823 9.085584423549934 1.466595038413945 0.04594201394775314 -0.5212474571969733
Ni 2.81728961113342 1.263149442529742 9.453402626187327 -0.40769545740973007 -1.270353018525638 0.11050344276890647
Ni 1.3361892279893195 3.801564891067027 6.672909831519976 0.5459570441285113 -2.6756321316389213 0.5021757852775028
Ni 3.7525466297080867 6.038427871030364 11.406519057815848 1.5832444461795896 -0.9326455602692713 -0.23870121749378245
Ni 0.15511133277652597 7.868562563377822 2.665094717705765 -0.4183074285976215 1.4512458096513845 0.7393939904678557
Ni 3.8112342215265325 1.6677157009753223 2.1945764494295346 -0.4488431352926334 -0.630381787532495 0.05524066564085971
Ni 6.710064532814662 4.032313204344727 9.27860946786178 2.257715510721815 1.3691980511200097 1.4577874674246443
Ni 4.906895404289099 5.904372862347721 8.800524097489506 0.17317408232525014 -0.8714147384832477 0.2620866862972583
Ni 3.024881211978603 2.710402569003508 0.14581460734424195 -0.3427421924667968 0.8412670112552737 -0.614855923982754
Ni 1.0737832875839697 8.699968580785123 9.581754477922448 -0.23605683789239992 -0.4775078502171776 0.4186254740586726
Ni 6.2011872669952695 1.004313150286417 2.00151092457152 0.9999092185129359 1.4928233759828549 1.1872755331781681
Ni 9.566473071744293 4.543803305416736 10.668498900379253 -3.1545065231863223 -0.5605742798210539 0.5041082264135254
Ni 7.300362897175087 3.737026020302581 12.726537227623748 1.1615950976929286 -0.5360878646439154 0.3972246397853933
Ni 6.59078492348308 2.176151360836526 10.979682058891365 0.11875796946821483 2.4587750066034233 0.5308566981519631
Ni 0.5147064644674824 1.3707908948382261 8.19811284970093 -0.6990384694689445 -0.22317689660593823 0.7411778218411558
Ni 2.76981697062814 4.535891198665856 1.5371061387789635 0.28738891250747284 0.5362197622360894 0.5140841066793146
P 4.31972508213251 0.41571036880295376 8.173053551598551 1.206040215380181 0.20380569116817804 0.04797447099674963
Ni 8.857842710837566 4.886204325123134 7.857292411319881 0.20881625700889198 0.19111806839818055 1.2759001735961122
P 6.757316370340848 7.414481236870339 2.114942935006753 -0.11716697083201112 -0.36950351972104106 -0.6384468239288166
Ni 3.580945914455279 5.725559249777831 4.470914401992873 -0.03527424982126184 1.5945573000892475 -0.812171636551214
P 1.760388551326037 4.697868584079802 4.0092153727066355 -1.2502793877042144 -0.3957002327210669 -0.9925054698496972
P 2.6565910429733948 9.088296620143142 11.484550830627784 -1.2800576474079117 -0.1575165782936513 -1.0346846743209084
P 7.740634837365047 2.3784712905558316 1.102376353364272 -0.06822602215693412 0.6251778747340523 0.23775607997169373
Ni 8.083063457443831 7.443783632220982 5.930311692316827 1.095449612214107 -1.8119175900134086 -0.10209002189423062
