# total energy = -340866.42590931075 ev
CRYSTAL
PRIMVEC
9.29878351030640 0.00000000000000 0.00000000000000

0.00000000000000 9.29878351030640 0.00000000000000

0.00000000000000 0.00000000000000 13.60970960277530

PRIMCOORD
 96 1
Ni 4.263715359003962 8.956541675497514 1.2965944607336486 1.098376813163231 -1.614339367812181 -2.288651023958407
Ni 1.613487700170398 7.675150725620377 0.8618251935460864 -2.344135430178956 -0.6399920569287494 -1.9878252692197378
Ni 5.510821694490908 2.6037616381913673 8.30664505438615 -0.748996032333994 1.6644308851519334 -0.8539888296973164
Ni 5.794685655296262 8.686821164241245 10.851389174104053 1.3508270048119897 1.7518108545294993 0.8102384240842433
Ni 8.554573866748083 3.388253499604007 11.617043560108057 -0.17906345122649162 -0.6377868217473144 0.45322043842472265
Ni 2.664222327848275 3.149237571129515 8.683497779054628 1.4465597170296247 -0.6446400972237221 -0.11009129493215233
Ni 1.9391124972183185 3.0111971315791015 4.128029371410044 -1.6091629658175641 1.0677076662141483 1.8756683500078084
Ni 4.19595512437925 1.3705104899681542 13.011344987401218 -0.6326579851611813 -0.357152711465172 -1.0135072689123448
Ni 7.841422271568571 7.361251694437938 0.7098170514528183 0.9508281447155689 0.1409717865610927 0.42491130706738434
Ni 8.468336949510594 9.246105790526133 9.904452216111693 -2.1154607436832404 -0.10766057400347266 0.4356703453561013
Ni 2.508737370642315 2.823538383814407 11.50504994273512 -0.014037194819356467 1.0221724007865107 1.097789316090877
Ni 5.79922346159472 7.532777053006272 5.075999424237975 -1.4615986136406183 0.10775699037202087 1.079899837404966
Ni 9.191010498890149 2.0340065817997917 0.6935888146657936 -0.0790033152780962 0.6151572572732567 -0.9267916725916555
Ni 7.316124698605121 3.7833867025555543 5.395133670473757 1.4808662036209788 -0.14657139213605724 1.6753727288754179
Ni 5.534273226221871 5.2371863954238815 5.389825924909906 -1.2000073789225396 -1.3051665266603973 0.2310133619312215
Ni 0.7983907529583457 8.385084941744015 11.508084135758043 0.8127676182640002 0.5540547335349812 0.8445652223905713
Ni 5.142004048557055 0.11703913724494983 3.5639065881229266 0.15378410783441257 0.6942492756104173 0.7069785502516276
Ni 7.212945398015604 1.5929652852099556 6.699556776950585 -0.9837565200124734 1.6466663620796609 -0.3657520230984088
Ni 2.9893635881594744 4.874385062348844 4.718377513515889 0.9897446192751082 2.363129711893272 2.2139645908881094
Ni 1.3158894362854916 8.86402807946605 9.054484831155348 1.041378027180684 0.13703259940768658 0.5016435669231167
Ni 5.991791966993811 5.6561709777925255 13.381243151965975 0.6664242829783491 -0.9163977309518411 -0.3184745781686838
Ni 2.9425163173979394 2.5789152889506326 6.3961551423466885 0.26756133625858436 -0.25130245119756073 -0.1228488517081368
Ni 7.3995068893392775 5.2679653684728445 1.7034050758770056 -0.4611445783678058 -0.2722181183043054 0.6293345772149033
Ni 7.13504019070315 3.3859381025377857 0.2290308948612055 0.6525765784619794 -0.028499135880957368 -0.31855145415320624
P 6.156194457478912 1.8599891492806648 4.946544551399377 -1.4461005180050193 -0.6231657294000301 -0.7592395644388731
P 5.2951457123465975 8.690494183683644 13.081883698505395 2.1504706840995222 -0.34403468602597526 -0.6237020615194743
P 3.390912951655972 1.1007899787118864 2.429265318327219 0.3353255882877515 2.9532670500834235 1.3948342636308753
P 7.344411597703292 2.048373202150441 1.949958598174304 0.6554011923949681 -1.229743986755024 -0.7446902058697884
P 7.0439865036652485 4.375737802605433 7.8048827022042495 -0.3764634959786419 -0.06810698008056656 -0.6669364467280772
P 1.7483200594483363 6.497469106986471 12.739191914407908 -1.5340291607972034 -2.0365178493294347 -0.630561764753785
P 4.178194448088155 4.195313508324754 6.995567738509371 -0.1792172031955365 1.073527615330035 -0.051279109889950394
P 3.9903125295218973 0.8867357043922706 7.980719906634459 -0.6138884178631621 0.7211209031902808 1.5945117915632925
Ni 0.2875741753813465 5.935199571230671 11.025089518109292 -1.1504568216879218 -0.18130313919028776 1.5017638730055944
Ni 7.929732817503921 1.1768633256948393 3.8676346100241097 0.5457279588368408 -0.33979545113364706 0.5934301500088102
Ni 0.7677568409303981 1.595764219012898 10.709045257596824 -1.7198646406402058 -0.5178209480139275 -0.9591436065597997
Ni 0.6146653905712072 1.8583246670523372 5.7134514835271535 -0.9473098471496653 0.30016086746116044 0.33951108712400885
Ni 1.6461264298990574 5.573653573914428 6.886852872162739 -0.3860614240797222 -1.05111967994848 0.17432876475498366
Ni 3.3530855007909617 7.757733220982264 12.644794384859914 1.2931584464559276 1.891493747075839 -0.3615187017433516
Ni 9.04395953822661 9.39409592831292 1.9224527968816043 -0.6335213616027412 -0.9009258605684871 1.4920826411620884
Ni 7.8053429919824735 6.142720520334516 6.400945875553584 1.2340660111691455 0.09704063239578126 -0.197115423632196
Ni 2.6218384731180095 3.286385327473675 0.5749233202044499 0.4616533996834243 -1.1514274131313071 1.2706384109765407
Ni 2.2896580337741614 6.62398835390617 10.638995662499408 2.566207266646174 0.2254204412244763 -1.6472839410590019
Ni 8.800814949923193 5.400045287864834 3.5845387287274706 -0.5078247560331641 1.133159982280687 0.8175293013187017
Ni 2.8394393034258054 7.221686254410173 8.283264193409016 -0.026041418369084187 -0.1715414318178336 0.5955939904293484
Ni 3.8363525727932886 8.882569853562616 9.793819010749955 -1.580500050665233 0.004280629653224886 -0.5710787788968036
Ni 5.147555422245946 1.9888237932665846 1.5573044508767908 1.0581830145531648 -2.268009436448655 3.2402499854017295
Ni 7.216841588259566 7.920024887635909 3.3621973786431307 1.7174822564509584 -0.0009651921267467248 -1.0215532791452728
Ni 7.266339012289667 6.973771390223337 9.775813776455482 -0.06042812337907012 -0.0692709184816807 -1.509937409955322
Ni 5.64459399246142 3.470464043629956 11.751412839972751 1.4178836892511708 -0.1791084455318141 0.43942826973663673
Ni 2.532737530593788 8.555847800073675 2.580563963247183 -1.8114630189744931 -1.270102850188045 4.155499975902373
Ni 1.0242051986420175 6.733090979520519 4.933519745493128 0.37048748090086514 0.19972226512742378 -1.3950954877120618
Ni 3.832986413203039 4.5843467093669 10.909610716718607 -0.743051641825101 0.8526035193140156 -1.7730263122648495
Ni 4.548109350463029 1.8361935625639583 10.423145793105546 -0.8455784941464339 -0.4287347945785326 -0.4499461385488251
Ni 2.728597805315941 0.9070284394027701 4.781390719215679 0.8207976876573283 -1.6417085038537533 -0.8337704457679125
Ni 3.475801545300682 5.153850698606717 13.139507329347428 0.7506363961508943 0.7826939388070714 0.1126423434887802
Ni 7.903640431287791 7.482954171557224 11.95811642601587 -0.5243101552826971 0.42051703465443063 0.4055362449748822
P 2.5394419534240913 0.628448047324432 11.438035470538967 1.2288551563921677 -0.6585947596316013 0.16657920271655183
P 9.187290985530758 -0.10201230327300853 13.483791995041075 -0.16304162187693855 -0.5480224112979724 -2.174381686389165
P 0.7602508629711462 0.002653872781925768 4.550814366553647 -0.985147486822729 -0.4368584521269315 0.4510663681961974
P 0.8481085581549909 3.5821610298124793 13.125271821842697 -0.09929471853728061 -0.9389699598254023 -1.6741162307604975
P 0.19704865924047849 7.385382037356989 2.4315928038118577 -0.8582843717488767 -2.6636037397194774 1.2222672187620045
P 4.6614522213070835 6.758048914162035 9.46327980667594 -0.7440420307628283 0.06819131226425675 -2.458898162444849
P 1.0427190763883882 1.698311202331319 8.515867680851917 1.8820403149724232 1.960333491557372 1.3183614280841165
P 3.2793461484410265 7.294170271001313 4.193532791303946 0.3009743645013913 -0.7533843912096767 0.8473103892358762
Ni 1.2865796710134874 8.183701189683166 6.6522083017638725 -0.13971605977712068 0.773793550993648 0.2795010251189638
Ni 7.292003654469468 0.6788297856557285 12.55882248294928 0.048274004515039444 -0.15114589888061714 0.7257234349592986
Ni 5.442726703663849 6.832113723930917 1.6845694602250474 -0.015378025117967065 0.9422396317156095 0.4846498605785976
Ni 7.750508066281647 8.824126999903179 5.633766489072231 0.8010536722611817 -0.6312996713610741 -0.146954743617405
Ni 5.777399216958491 6.3469032061983075 7.479787005931702 -0.39239533671755 0.28135299072603803 1.8160982037536595
Ni 4.781183356345893 0.3015065425472869 6.188307805945557 0.7432046224631974 0.008331145573514684 -1.481106344656243
Ni 0.269010084204624 6.677037913194489 8.574225915582428 0.11143958142993066 0.6924693008918591 -0.3152241895521862
Ni 9.030299625414244 3.6844848423293373 7.369140782273206 0.7863215082573296 -0.8874244836479427 0.27308817961408455
Ni 8.946006153907037 3.213101615510266 2.890171605891225 0.5426315792997043 0.2843035887139297 0.09999637258999552
Ni 6.1866293755421315 0.3757452395657198 8.437503113639579 -0.2569110556335898 -0.8701932073713208 1.2253252888620383
Ni 0.3688353136223105 5.376565859783676 0.47000142760605745 -0.22716827715351845 0.8682656513313046 0.6416339634075465
Ni 2.9668791299019532 6.181282575088006 1.8325335614183174 0.5596535677789976 -0.07154145968341227 0.7990484689056948
Ni 4.407707019929402 2.898746943941301 3.767180782848686 -1.9867829439981526 -1.3509270207249637 1.5507927534087873
Ni 2.0182823390729645 0.563793606354811 0.47983303129326876 0.18964354073518305 1.4021207699899594 -0.937096139841457
Ni 6.602201304403535 9.228670571653986 1.4409822498318636 0.032831187597407975 0.7225663773875556 -0.5283899817790254
Ni 8.478574910032318 4.692724029876167 9.504028005406411 0.6626625019430716 0.6758445478509845 -0.19932837212311477
Ni 4.689627535004473 4.53704379821884 1.9850847524620565 1.826080768887668 -0.03380872101932887 -1.077258286017061
Ni 6.501421089930825 3.4102823174750028 3.3591213410949137 0.9672371822012116 1.2096526153217877 -1.142361189163981
Ni 5.279077414634027 6.53591957633918 11.309383082707656 0.4184688938761503 -1.1609286677535233 2.7950009952182575
Ni 1.3819665911150798 1.5491029239193326 2.6974580394711163 -0.9279669238466792 -1.4249187417210813 -0.8547871572288956
Ni 3.7314808936252475 6.63651381514392 6.280866966015672 -0.32632775566451544 0.27597090047851824 -1.221040288333439
Ni 8.937637248848405 0.7297378351273788 7.635237557639087 -0.7786364809082461 -2.451592372812055 -1.025478325231292
Ni 7.859731576080175 2.5569887576970203 9.202667453758481 -0.14885993105991782 -2.1219160123902814 0.33323502430730995
Ni 6.05627902986226 4.731992792167942 9.688766005305645 -0.7543097312374235 0.3783409155070129 0.20794105349279027
P 6.279133672790195 5.984371537841826 3.572126712647181 0.6752760769420241 -0.665952228437937 -1.464799379966103
P 7.549310289888767 5.3190621832474845 11.689624284046541 -1.6487918930630958 0.3498070697333782 -0.42241450878745956
P 7.610096436964621 8.214387174898146 7.708620766584859 0.4412390976931304 -1.6972057655901092 0.6212286602783172
P 6.639442931914441 1.5267672461961872 10.719851373784195 0.6023084263350466 0.30505650499056497 -0.9252538957908905
P 4.977211009169219 3.271851329021853 0.17287182240443438 -1.3724204147120493 4.275116436716141 -3.824680245904774
P 0.19257036515577125 4.3137521124711755 5.452022697427309 1.429865029982763 0.8556860148940812 -1.7765448669410693
P 1.5742468342288185 4.478786920227372 9.789300731896635 -0.9508597692844527 1.8437789574983796 1.45151243304921
P 2.819326034934896 4.23152297087843 2.7778367231675647 -0.8477667600470046 0.3200468077518101 -2.265737866805659
