# total energy = -340895.2413091514 ev
CRYSTAL
PRIMVEC
9.06755109834852 0.00000000000000 0.00000000000000
0.00000000000000 9.06755109834852 0.00000000000000
0.00000000000000 0.00000000000000 13.27127759455080
PRIMCOORD
 96 1
Ni 6.497807011094691 2.092736354058873 11.440730333817775 -0.25353931094787946 -0.5747225462969778 0.8790419160112021
Ni 4.730459722892828 0.18490821924692474 5.9341054779129685 -0.8697949434916376 -0.28610053271335245 0.11927707519647844
Ni 2.843701856224448 1.6762002660479087 4.781601617008479 -0.4789468966565493 -0.5744034723946624 0.8351876378304133
Ni 3.0511674219708147 4.505294297691177 4.866311584742706 0.6719027895944171 0.26886437134072405 -0.5006328662704151
Ni 4.896613526508931 4.6527598787983955 2.4642239421928904 0.38467174282104716 -0.8545506157380572 0.6174236847099303
Ni 7.127729775622669 5.9780912608185215 2.5464267320893184 -0.36341489032479996 1.000278943147529 -0.25221827814361075
Ni 5.123773812919682 4.492273294526326 11.363996183899568 0.11982292039761945 0.7387126481301148 0.31222165528043644
Ni 5.578602168594409 7.767536170686639 12.700028182796324 0.960587795205494 0.8382361948487498 -0.7355867009066234
Ni 1.7447600187842847 6.68950410573822 0.42095833260950005 0.6226949604111985 0.10140302312953503 -0.6400524778530395
Ni 2.86956251153514 1.4496747082036892 0.5130647016540125 -0.7256956670451566 1.049471859932412 -0.11787762374579053
Ni 0.5032862547090439 0.1373824644503149 4.838854133709639 -0.3120640466566496 -0.55933063722194 0.4091645857560889
Ni 8.76617275951289 2.4692482721745366 1.4383937680662306 -0.08716682492549503 0.1525965152842146 -0.06513349927453943
Ni 6.9279353579803855 0.5387213370683196 4.788741406626866 -0.3563027047600509 0.6796839762017327 -0.6840108857118606
Ni 0.8049518870143829 7.4891532889567785 2.693405385710498 0.5946817630277242 0.35200819114975507 -0.5193445837473056
Ni 7.901336952511525 3.9437862050843684 3.5582284981405325 0.12846028435764328 -0.26778476512330013 1.127353402901239
Ni 7.822648745363494 3.946724091592315 12.515398337363576 0.45772166872918585 -0.2415857381304291 0.5526516825398676
Ni 7.844809839886401 8.874085683374233 6.99838206806955 -0.7178080367669637 -0.04500973194147087 -0.2827989791439452
Ni 6.864961216629488 0.7617540742864244 0.4372327730553732 0.09001535011788368 0.07590513596874669 -0.581249034561586
Ni 1.8492363408354053 6.582924111866595 9.241891845822368 0.07971371108155947 -0.12379090390643195 -0.7082005955841868
Ni -0.0858425048479395 5.115640219717125 1.2935323875919822 0.9065295799085098 -0.8160246917487172 -0.013817879719698781
Ni 6.335543186836333 2.0195430827868153 6.788033021120938 -0.8040788322407507 -1.1557854329896868 1.3249318822127827
Ni 3.4201804754504543 4.409468419246788 0.4238064503630373 -0.22619948548234592 0.49290798682233167 -0.8213556170433274
Ni 6.04971584577615 5.646291436439542 4.759916568910469 -0.16398958761250465 -0.7961066126685515 0.6849858480306203
Ni 5.322126489960843 2.656402523791889 9.36242136007617 -0.12032968483070888 0.495573706579953 -0.7506153131049719
P 0.38309949388116826 5.651160711299935 12.34616337993451 -0.6930100038866774 -0.8571127200382787 0.08010811830650075
P 4.010795406608217 6.235836396585151 12.551841731388544 -0.6331819759854516 -0.9699687221997618 -0.6972793206859927
P 2.479993320050824 8.546728958960975 1.4040078013519224 0.38229218684527705 -0.5247310448701995 0.30621041608935007
P 6.361521720309382 7.712169704583172 5.822427706896998 -0.4563684971354012 -0.37623749601076495 -0.09033519535114765
P 4.722235454180767 1.1630494226598669 12.634203203426605 1.5709666572535008 -1.0722610899127856 0.6603348822511595
P 3.8558037582121223 6.148461475626585 8.086786504550192 1.0909075013693794 -0.12549400264046776 1.0968827451162078
P 4.785146122675011 1.0523708957586362 3.806188839676528 1.3785188143003033 0.5587259137584055 0.2996170791425485
P 0.459461874210409 5.641902741779522 3.6029795823463036 -1.0290817263118341 -1.3326014829428985 0.5892662484391078
Ni 1.4330085495567566 0.929868282418015 2.6286422165570764 0.18279926411984 1.127115061638188 0.35435689388758973
Ni 1.5953086440189166 6.716072030023048 5.192639142123088 0.057637962228442675 -0.5165269117928524 -1.6040924932731921
Ni 5.967627307021699 5.710163265334533 9.151010502911262 0.3152496434734829 -0.9183355714045022 0.6808545994710661
Ni 8.760895444859726 2.327486180615153 10.437886401350516 0.17946839997439412 -0.0832993715502888 -0.53139020205793
Ni 2.255281272396695 5.051686782863579 7.122416190765702 -0.5753228988851382 0.31626137256744885 0.46704397457137625
Ni 0.765528895747098 8.94669863138546 9.327465044407077 -1.6076686406602247 0.6616119491913702 -0.9061945651665942
Ni 1.533395406129223 1.0314792583687924 11.703886077236541 0.3276714141766034 0.11739657034431393 -0.7526454561611231
Ni 4.05608782360573 6.765508317804918 1.4738288504255064 0.5679222355456928 1.7443559409133509 0.05431429717184839
Ni 5.70089622826317 7.803325794288078 8.061823536783594 -0.8523356103646095 0.7160368037991539 -0.6103824615924327
Ni 5.009395725230666 3.11270889027154 4.989110706999408 0.5250748013628636 -0.40359480497779526 -1.1329170130319457
Ni 0.7395104650498678 7.750262486126026 7.036603608835899 0.6199127696803711 -0.28640649398954543 1.1362692173336302
Ni 5.060237483409857 4.475543663022741 7.106663134499481 0.2687576705595307 0.5422849945935628 0.1516189818622937
Ni 7.9879955369450055 7.453844245555714 9.171766127036848 0.5115376861083771 -0.42525377800846764 -0.3669714973278067
Ni 4.644145705395465 0.4273183128461478 10.535483172495528 -0.011314910792186965 -1.1610932183558453 -0.3398317036882212
Ni 8.05072485442024 7.225396366909999 4.425745579957947 0.6784231072114381 0.004106051748573574 0.7565473623186907
Ni 7.329854553859218 6.192103598351116 7.0086945937655 0.24489037702362984 -0.8295826329388098 -0.024545550549848052
Ni 2.3679002552013224 5.353890120940281 2.395491905988456 -0.9559790927888892 -0.548297776446546 1.130471893925563
Ni 2.26858336964101 5.322987907301137 11.228668426494623 0.28203227618124976 -0.3259492892791741 1.4138275169039263
Ni 1.2175998091777929 3.388824884263787 3.854045560082829 -0.33337669209149684 -0.396670052833504 -0.5262978751366871
Ni 3.5501275481213974 2.489423573039295 2.6735655842309063 0.3740268615126914 1.080637744012255 -0.4932558570800537
Ni 1.0352785622170322 3.155852297693796 8.288828768073092 -0.4650811944180506 0.360715746226082 0.3386564524331974
Ni 3.7322765116140992 2.551626972559403 7.013870351848019 -0.29737353452401044 -0.08450393338135125 0.6569063161855848
Ni 3.888610157550861 6.594077199535652 5.9535082234367485 0.7134132501333778 1.3092715499677063 -0.30060849652154037
Ni 0.7919381378902927 7.561068035544823 11.329716307531378 0.7691012877243013 -1.001837031663268 0.7740501470891443
P 0.13549188007714544 5.8872344002949815 8.137243798569084 0.051054652583970135 -0.8243247269739803 -1.5989765122028656
P 8.608098143793642 1.3803714162893763 8.112798587961755 0.26348356664478495 1.6309967738632039 0.6822424809575283
P 1.8599632536097912 3.132675637464438 10.492377848787264 -0.19586226795138528 0.3080572394901017 -0.9805619243345757
P 4.035631428661508 6.241467345725383 3.696980162784366 -0.16030211145858844 -0.8689287388366003 0.4694114463622884
P 7.012979918344684 3.9619031718833737 10.408184731457212 0.05109861844802813 0.5801174920603042 -0.9200016462530156
P 6.325650488749388 7.876673213926293 10.481057918180717 -1.12699139157613 -0.7828021822501615 -0.20101835823102798
P 2.3918929950162218 8.670990677185983 5.692767168836089 0.7569176011739157 -0.05203244311620717 1.2982165777051253
P 6.900487881253364 4.039167773532185 1.5587111016277928 0.09064809860587614 -0.7546583728260938 -0.6321638191335822
Ni 5.125170215766051 2.9028041533195013 0.5039409318876666 1.202153478731265 -0.030843981964050103 0.3362884664216531
Ni 1.7047993217456379 1.1461384401372718 7.174651631525978 -1.157213423685465 -0.6913809529236867 -1.6855347570100845
Ni 6.8182361265818034 0.6421648650661835 9.360696711885394 0.2883201660724906 0.7793869859210254 -0.8084826177354013
Ni 2.660392246210088 1.3956865098446916 9.23655649884312 1.1480181303394421 0.948051096191064 1.095537801052539
Ni 6.499058333125854 2.1027197276553213 2.6336982829670497 -0.5348920445636014 -0.2731357450225683 0.20148835588891106
Ni 4.083780124208414 6.820666230236525 10.285226927058876 0.6288411825182525 0.8777041710363852 0.7244517673357266
Ni 7.987578429601284 7.07673386907732 0.09307115646564071 0.41320764547721095 0.872663009068052 0.8465205463447293
Ni 7.483667420631754 3.7092267970980477 8.124104917241876 0.739674497822752 0.2640936894249581 0.7409873030969045
Ni 3.353271016987061 8.501699500941024 12.480614305162543 -1.12812704784247 -0.9361885404255231 0.015450787337431455
Ni 9.205196373880979 4.832859575776295 9.981486639096072 -0.36983184959473725 -0.5916545461656262 0.730515199920987
Ni 8.435742135327429 2.278811567113121 5.759362890036597 1.326477886543664 0.5139624934997858 0.39570717469960237
Ni 3.771167237640593 2.581722174163957 11.36298696547878 -0.80941978483769 0.5945568074140858 0.10107212215267755
Ni 1.4339515748556038 3.3953988587028663 12.688827943862323 -1.197482555618157 -0.11342910105613369 -0.2890580726797796
Ni 3.20796351300605 8.304978983070944 8.113926591299993 0.1351173846628447 -0.08936177569428481 -0.7683865210454637
Ni 5.6160420864688305 7.7743912392051815 3.71226805368683 0.22559630468070827 0.748158109813731 -0.8436985035149018
Ni 3.293996436423949 8.455600071908922 3.652534655045625 -0.9089777843386863 -0.7151456594434522 -0.20310352289483088
Ni 3.531647879284374 4.337698753473952 9.39521506484358 -0.1353989204590055 -0.23621393229555446 -0.7558791326070725
Ni 7.49678816685706 6.122519212357339 11.29128258607279 -0.6495704446458038 -0.4473400683845457 -0.5460899701619498
Ni 0.4757009512075755 -0.13418796625047028 0.5865608291278152 -0.3000461962601671 0.5091632723389296 -0.9735127307972782
Ni 4.709885449786251 0.2914093254252816 1.7008467762863353 0.2309837942448667 -0.38535848447542664 -0.4037835239498336
Ni 5.925163965920727 5.52257377127156 0.2449562619061103 0.3263259558923025 -0.4292341028124543 0.20839870985549916
Ni 8.028101314798858 8.824114410086286 11.402720973743667 -0.4665942886284674 1.4594759108706608 0.8075925018209639
Ni 0.093257041260125 4.831989090885052 5.864099450799995 -0.441022353696634 -0.3444416916564068 -0.1000187411874987
Ni 8.029679068664239 8.970183588347135 2.5353842685418564 -0.5001214738516354 -0.09469424365079177 0.002694259002711489
P 8.641947311491682 1.6728996775019438 3.6445851331273627 -1.0144822312311044 0.8917706764317802 -0.4318977656875465
P 1.7883568037540631 3.31742698807992 1.5785119126382974 0.4932311744897053 -0.3690378929385322 0.4329979407302607
P 4.73430436449582 0.8849122715607636 8.167290035398505 0.492566544322513 0.4301548148545108 -0.09715710336898752
P 8.741055643380134 1.6249323329740468 12.614017021500704 -1.3676384199423735 -0.055551254902743034 0.1070692202763769
P 6.4299454597815 7.761977761954012 1.4792829823222038 -0.3688142069635003 0.4871194051650126 0.2940519263499452
P 1.7062864001015121 3.1554351903500755 6.118098781268992 0.02902466936712421 -0.26620276534816095 -0.07991991355509462
P 6.906708221205374 3.918106900792685 5.951052730639366 0.1456833331041491 1.1243763225507861 -0.8069276145434554
P 2.5187117626092586 8.485350706577357 10.310163598927717 1.1263825543475374 0.0829432737624507 0.8755441872705889
