# total energy = -381176.20006777934 ev
CRYSTAL
PRIMVEC
9.15594459196293 0.00000000000000 0.00000000000000

0.00000000000000 9.15594459196293 0.00000000000000

0.00000000000000 0.00000000000000 13.40065040740759

PRIMCOORD
 96 1
Ni 4.969434771801429 1.2949893521372973 3.1682223925190494 -0.9137798337130199 0.8926373953074497 -1.049434064715941
Ni 7.628614106204305 7.0690485451709755 1.1227358174995106 -1.4103151328752936 -1.0120168004097472 -0.4785028671405953
Ni 8.171625719199536 8.179838601605606 2.94471296379273 0.3670247191632453 -0.6541863461512605 1.7814153076594932
Ni 3.059980814141629 3.329110652986654 7.683330031799251 -0.383733547277494 0.037416235864929114 -0.4044949481945614
Ni 5.801444623665286 7.762776164059518 10.733988263035798 -0.15727258060364524 -0.6289008321115943 -0.7550949461428802
Ni 7.89604093933302 0.4067986235246796 0.9588297576550495 0.2134594122078582 -0.382494018443438 -0.5862151203176097
Ni 5.846446091921504 2.261280289137615 7.277518419114454 -2.3268067090925215 -0.2727678201601883 0.6129677058211056
Ni 4.837204618280308 8.905703586430938 -0.18241205529501434 0.09133895402531365 -0.44133320006883353 0.9767492354567049
Ni 0.6548331657547848 0.8917139361375398 2.966997617625652 0.05966347729890369 -1.0367191882524338 0.855443559865972
Ni 0.08887309293505863 0.3912023873033891 7.228405016088374 -0.6026136162802912 -0.16882788954141248 0.47713144071436536
Ni 4.021739558509836 2.4028861300431448 12.267719789115665 -0.47519977090929133 1.004546203064315 0.6133459150961308
Ni 1.760376865869819 5.928181210359606 6.805252044120304 -1.2664035469595867 -0.3637177662771994 0.08262342852918673
Ni 7.012821888698658 5.241586072401194 10.126388784857856 -0.6410076426774574 0.0415881078544316 0.20257207587139306
Ni 2.95016441327386 0.6921207505917026 2.0762569584109274 -0.4025159700913197 -0.8866171572552989 -0.47743303111518415
Ni 8.240460111539365 0.4453405727870505 5.045988541127384 0.45738279733252846 -1.200927576743964 -0.8790303460469764
Ni 6.693361821775418 -0.12732256715584503 7.028681816127635 1.5028519638634505 0.4732531887058816 -0.912428461891448
Ni 2.4347121938597502 2.9537718554901264 3.2792995669735703 0.040565837237504336 -0.8162406644142651 1.1263329320565247
Ni 7.792413957090114 2.297666013420466 6.186222284564731 0.8588140190001017 0.7767222946046688 0.7399963999385448
Ni 1.1399700522296594 8.090247682605177 5.551916746852761 -1.1558422543695515 -1.2048150847238284 -0.9738873405278776
Ni 6.857564534228526 6.006839931374697 12.59977385798935 -0.1306449507137879 -0.049543101035450156 -0.7564851416221874
Ni 3.89050740296225 2.323201943220383 9.831802672931904 0.2352330564395239 0.024336519862835505 0.2637010819722297
Ni 0.23362674763234606 7.6067039305100765 12.879847797547834 -0.05689285653230202 -1.2524020904741722 0.4760454067390382
Ni 7.5753539758184605 1.5252888294615434 8.698456031106424 -0.2519552542902112 -0.21965088573055075 -2.3862483001886066
Ni 5.723857148181421 1.1853102904401973 11.454728665606195 2.844064842624444 0.5300504002005839 -0.24281498255183986
P 4.6721778708031785 4.145088445660961 0.19193790017268883 1.0809509043772996 -0.03730259310520027 -0.5376451818287064
Ni 7.621884486841472 3.892137161120868 8.243678426105399 -0.6255823092613226 -0.2571139156730152 -0.3835319727896491
P 0.44892695633048096 3.9611638282996333 7.154433223171015 1.049682433281321 0.7844014084164813 -0.5973976192969905
Ni 2.381671806146978 0.1030712163989281 6.974877822625937 0.49075443081443865 0.39335590085860644 0.7932339191064467
P 7.481972495707539 7.868747068148526 8.574928603033428 0.910469281282548 0.49440771129630984 2.0898445857770334
P -0.058387459424192704 4.676700907490579 11.016875824404078 -0.01032400763382738 1.0327977417108407 1.1175592996289527
P 1.038870110727082 8.712970950257306 1.0313274434738828 0.6976503308721662 1.5914398375061882 1.112053282209059
Ni 3.6268985987781615 4.487465842196677 11.080823689051464 0.3967369015156974 0.20241652413013525 0.3297678916943159
Ni 5.37330349301848 6.72790720117129 5.683698259083028 1.4425156288672383 0.0780365804894527 -2.5863595732243327
Ni 6.780819405658104 3.6455858819339992 4.349810791434089 -0.7233114830836962 -0.7899678467606652 -1.2471184734777294
Ni 4.6459735570393335 8.891026607058667 6.2342507081425165 -0.9232708039225905 0.5625365457537473 0.877465829773334
Ni 8.309917108119564 5.121450921843748 2.971084831344793 0.8993993966216318 0.09175727250965489 0.023285710000817965
Ni 0.7007044487585805 6.5199756967768385 1.7129115328917794 -0.6212929378573494 0.7425613324522438 -0.6109360201030575
Ni 2.2746021886926093 0.5846125633856607 9.400302226170508 -0.25340844179697003 0.7414950959712584 -1.757575010706786
Ni 4.13055796140407 7.5258569387089755 2.861145740817891 0.48499001752683574 -0.05730474725874002 0.07159082486410896
Ni 2.705783092983578 5.089798820976658 13.412577284632235 -0.03230771099377017 -0.34361945286542755 0.05809818969431285
Ni 3.818972006932578 4.558635000437895 4.561313114265961 -0.22001315416597592 0.9549367675673038 -0.3824685645221413
Ni 2.821193776069974 7.3324284507372814 0.8089918068595571 -0.26295829026893425 1.1934032433424608 -0.20846992941306677
Ni 1.7278824180892858 7.735619632045694 3.1593374637711684 0.16719729591652494 0.41497142224585304 0.6445315966703158
Ni 2.6990260057866116 5.466987119304876 8.92838469266986 -0.6140357420743038 -0.1626598130574876 1.2906871020972996
Ni 3.831625522523645 0.10680317946326887 11.095095060073024 -1.189882374673396 -1.1517791400437711 -0.3619241647118864
Ni 6.783428849900834 4.4219550577870645 1.2245041429660155 2.1736851745427725 0.19061541773014912 -1.4354746628600568
Ni 6.359023344696255 3.777944218681079 11.986573688431482 -1.1656520413711216 -0.8396526155803022 0.36230340242817605
Ni 3.2486665227528517 2.8864115702488236 1.2724684749308228 0.2891413764222053 -0.26106621545254394 -2.1450330580237185
Ni 1.272667158931059 4.389945875076232 1.7389620267844739 0.555599709424598 -2.105990085188644 1.1114966383746405
Ni 6.199352824875258 5.971708571517299 3.247701486180277 -0.9669762152303412 0.7588667544804867 0.2587013147647932
Ni -0.07261396631666732 5.045200214287738 13.551541635488546 -1.548362803811056 0.8095077165658059 -2.614676417891155
Ni 7.325341749530706 1.3290036867399122 2.927760732159691 -0.11538288234839483 1.4871772334406712 0.8906620167486338
Ni 2.598109183178261 0.8602422073812629 13.08334965589094 -1.4403425324753194 -0.9818269070899284 0.09456774537525649
Ni 1.5821106223400978 6.170548222813393 11.418117705083446 -0.04505549757774176 -1.2081346360153644 -0.182797207237311
Ni 0.004318859120337416 2.8376378527715347 4.242552561518666 0.23771005722510674 0.1686376279074773 0.9780944366306897
Ni 7.976274482838462 0.1478959749222181 10.322011952776856 -0.11099066681797012 -0.6107295605192062 0.6624097625023172
P 5.947555189368794 1.5953592743374017 5.042343559537802 1.2010381341798995 -0.23107969639278267 0.4578731067053856
Ni 5.339408185697113 4.210873908411913 6.07616325116211 0.9926813333059289 0.3198519181321846 1.4243674972033018
P 5.654711453721408 8.640529115701211 1.8905103080520442 1.3296154037313812 0.6005976142915269 -0.5125267894945237
Ni 0.9783584721298592 7.665384380165031 8.828174708993226 -0.10073042254254265 0.33366388431461247 -0.8777213974275657
P 1.5191726583943705 1.0639299314020099 5.091322370176624 -0.647807182097794 1.3291873150550269 -0.24619752587082763
P 4.6084433396675655 6.139875808030416 10.052498479848428 -0.41376223242910026 -0.05839335233722847 -0.34751595970635635
P 2.7960515518926443 6.725810489832394 5.072481267149636 0.947258939307072 -0.5108620001975912 -0.9938164753516369
Ni 4.976356666003199 4.457745645663679 8.600952544686459 0.7846824299920099 -0.4499211988481606 0.9205580329771178
Ni 5.733443422294189 1.9832874958120168 0.6168588850645167 0.2690919139704978 0.18873414154703624 0.33168876286611265
Ni 1.6927785260660215 3.593763234867835 9.989286753155833 0.6327723992518586 1.197782860467395 1.5745206931533464
Ni 0.825440461533473 2.0936532533624668 1.026367668223752 1.818418881467036 -1.2713107544532172 -0.8897639304143967
Ni 7.919681588577691 4.730299807830743 6.068190254507479 0.34464558013709673 1.1086296012394905 -1.0045667718896054
Ni 8.235799735681294 2.8316773327644547 13.177717231247273 -1.640376415305891 -0.036624336091253054 -0.10527947536580577
Ni 1.3187764964973492 5.0731899372702935 4.153799411459326 -0.4504223068542952 1.7795036924590772 -0.18340013092863253
Ni -0.05093818280704934 0.7328802696631591 12.381464090264597 0.498193146480671 0.34845338391896113 0.22330416621242188
Ni 1.452242702554501 8.427204759871783 10.978804490699869 0.020722834369648183 0.4678849824154329 1.3122522298625852
Ni 7.091645416718554 8.313368899275737 12.44044027693373 0.3112940012598445 1.101944218799515 1.2527563884897972
Ni 0.638680248095045 2.420969120848034 8.580489923851093 -0.8007379407929759 -1.7880032452896562 -1.919993911398061
Ni 5.588733716131517 0.3790771697221662 9.132074247879551 -1.1793225968796788 0.04973156289717242 -0.1028891207567583
Ni 3.53631883774891 7.625382057721202 8.714684027512797 0.3421369547826301 1.6338144458176571 0.7171909720082551
Ni 4.100727893534535 6.064430823609003 7.161160095750434 -1.1627736913820619 -0.8279163009799806 0.5681369226596603
Ni 5.091611698029503 3.9319563646704703 2.420237560865598 -2.1502737375973675 -0.6514805171843231 1.5950275548574466
Ni 5.897151713732885 8.534448340275667 4.24906518499184 1.3131235767239449 0.15096695010059163 -0.5226967880489902
Ni 6.606728272916752 6.170337636085032 7.628039112876432 -1.6069795850130002 -1.2167231490153236 1.1592397100868745
Ni 3.956787286727615 6.653780672788309 12.24618409156013 0.7757509318303349 0.8650250329068199 -1.550532557768865
Ni 3.8486006440184632 2.0725304889134133 5.450754544926148 0.28652862138970653 -0.13767254698453063 0.5136017677262573
Ni 8.103239968150564 2.7804864458833722 10.424192295755374 0.5319913259770386 1.0127662769812622 2.089008720139299
Ni 3.0582045608676305 5.521767136512802 2.6150293690048105 0.6568201842296817 0.18597843317877003 -0.9248821142737684
Ni 8.322634715323609 7.154967930342157 6.6659525856875605 1.951256983177401 0.4967623275714155 -1.1932790590597708
Ni 2.0001710578597214 3.4424704044577106 5.484778951067945 -1.3166555011366032 -0.8288827786583081 2.4833205571532715
Ni 8.432075722458213 7.113464032965669 10.788957808299248 0.04244171410397852 -1.2949469058149183 -0.7009236023067992
Ni 1.3368137075786821 3.3421212504214632 12.427709851407087 0.3781773933459551 -0.5397524579796963 -0.6866377818117465
P 8.695995828762488 3.1206023240753886 2.227563522738118 -2.278599810369992 -0.14904813581132395 -0.5993951093429934
Ni 3.2393823948155562 9.019063337901995 4.365248629811873 -0.232499973779077 0.45411363966295343 0.8691274851109677
P 0.8341505117373673 1.5722038901624316 10.704158195166263 0.8553854529345268 -0.07215980999370153 -0.17508878284945975
Ni 0.11955100128486262 5.528368572649676 8.96393631038951 0.21575386466898971 -0.6186626993233539 -0.6854270493330971
P 7.883717037751561 6.608632709416709 4.548019598139572 -0.5424816839854011 0.4954724051153983 0.5267601594850864
P 5.969767511238495 2.873803834381314 9.823387444147714 0.73872293254276 0.10852395044503245 0.25094069698276783
P 3.8763797802726576 1.2901733252191343 7.885908055320984 0.45345132348860623 -0.3394606935020476 -0.3564798537678635
Ni 5.030898628648631 6.2701465893833115 0.9383506561192033 0.32871708183229836 -0.2820523307859078 0.28813761774803925
