# total energy = -340862.4144775788 ev
CRYSTAL
PRIMVEC
9.33085690110040 0.00000000000000 0.00000000000000

0.00000000000000 9.33085690110040 0.00000000000000

0.00000000000000 0.00000000000000 13.65665225223240

PRIMCOORD
 96 1
Ni 7.227933632937292 6.938938335227125 2.768858983345281 2.64946498632525 -0.359863939748748 -1.0558888192023492
Ni 4.40346460906208 3.5043619067258955 11.129912274806323 0.2642520693796933 0.9899734474564627 -0.6415632580706112
Ni 5.66405403581353 2.536378819277466 2.3545568100203917 -0.9536378462502222 0.3852237586697753 -0.3546577129574602
Ni 6.595740090196851 1.7927095300000429 7.144545631627199 -0.7079915648971742 -0.3832026144746884 -0.7453813183995421
Ni 8.58618913811869 9.17534876916343 2.5589837530315873 0.2526167991336101 -0.41157139542536864 0.4323541364986748
Ni 8.740278907794064 5.316031737802622 7.550817669564984 -1.2732527086709364 -0.7009601119716896 -0.9082959277803131
Ni 4.148732217628282 3.0539054624453827 8.085352598560942 1.0873627214409143 -1.040946081849588 0.2917703294046201
Ni 0.6576994398827235 2.7883679388035145 10.713383759042015 0.0718834164038633 1.1109132550673448 -0.3772751932466599
Ni 1.4349831408868958 8.291837928588633 13.075220503560454 -1.4514856935763325 -2.6854486035087106 0.4541270093993921
Ni 3.2154412558703607 9.34373341150095 12.937424276080012 0.803983444313467 1.4625987727703584 -0.4628721025818738
Ni 5.7260109251586 5.074502508781969 12.388878132469513 -0.9977932006111976 0.4458742824722966 1.1436711662246561
Ni 1.1167822613017178 8.803672749090813 5.217838465961833 -0.5646651620609758 0.8492250897600858 -1.387313529773798
Ni 3.9635613638552534 8.053210596041822 1.4403399857924688 1.7631005685107055 0.03485361734407546 -1.753660506143728
Ni 5.70670538237924 7.857719814615834 7.362615220408188 0.5703424149514114 0.2667550383072051 0.5244351108963355
Ni 1.8555528507438754 8.198053486599582 9.962459728579987 0.7137798894441773 0.19269749707015846 0.2792863380049964
Ni 3.396497201781768 5.310423892848347 7.290453172949156 0.6552636383758392 0.23110206499028588 -0.8271097459182852
Ni 5.30262329653924 7.755024404355013 10.497677676295831 -0.1814491778498488 1.5517224643119083 0.37658459493753854
Ni 6.421654294336764 0.032044961608098534 12.323489353982708 0.2597829778647462 0.7596365427669757 -0.5923256040907219
Ni 2.7811925099019543 2.538300975784256 12.130876208802807 -1.6151994018196312 -1.764101241861078 0.9446868077045214
Ni 3.2083218121097747 8.56344984002623 7.532886561996547 -0.49236137029024235 -0.8050005727240716 0.8011212922743236
Ni 6.141644611752998 5.145780924099286 4.393236123806046 0.9685875255815191 0.29083907583960233 -0.3647045556705009
Ni 4.056263426452132 0.6131809888655151 2.9143979558224893 -4.087870706789173 -0.5946552806651629 -1.7502512233518632
Ni 0.4237291379793051 4.647167927723909 2.0867089662276443 0.9472527686594848 0.8541379536806709 0.9713162373665918
Ni 6.346522235149038 2.125513200522726 11.15046535314373 0.7888231916332609 0.4088632524655862 0.875990273669072
P 9.3897345356683 7.486799593946372 1.250137934017201 -0.3332273109978261 -0.8852555010210817 -0.5249290198136185
P 8.136189905822802 3.489880416927168 12.399680465420534 0.22262385231594564 2.8288182008780183 -0.7860751965744784
P 7.5750508378357795 3.890948636011377 5.818566493303261 0.49579019346613323 0.5666284564349339 -1.8806897144817998
P 4.782138771756505 6.741329449300937 5.740260076622283 0.10747519746554393 -0.6395660251349243 -0.45115121460051977
P 2.9162473316460122 7.8705030884716685 3.4989845339352987 -0.24861024907737828 0.2501606242836337 0.9054710567370083
P 1.530829702235173 4.257735287105558 4.005031423946402 0.6006449225896945 -0.15085305023054665 -1.888398138869651
P 8.885905590325466 1.0259090466433387 4.403232270727036 0.2694487830892844 -0.058394637888809116 0.2800957212801692
P 6.792695816145004 7.170203621735794 12.418704216323656 1.2694862996499685 -2.180138900587916 -1.614137021993388
Ni 4.589269961099487 1.3816666249655507 0.4468780606865618 1.269253357703556 -2.262984729540554 0.4981795196339162
Ni 8.435253198051543 1.5921520933158657 12.983542969043407 0.5456531397348473 -1.9415608389355596 0.8922126490652053
Ni 0.7492687364605518 0.6259474671790579 11.63859513187164 1.0171140124269966 -0.24377169003815435 -0.5695281465802321
Ni 3.053298956751493 2.796933665372607 2.620711103298662 2.3924068635908347 3.2988510828743896 -0.7100983268275318
Ni 8.00228277946872 5.6798511764251565 0.3435976057025591 0.3218599497011489 0.5976110208593772 -0.6123902360510808
Ni 8.445050597722073 8.426650148055135 13.046746460860842 1.0646827633448954 -0.6728494697784025 -0.07909176122684444
Ni 4.789594126362937 7.458835016029628 12.846211418233054 0.12620388422329878 3.0021203241407006 -0.6908060542568232
Ni 6.753076998048745 0.48392716081209425 9.083093654608664 -2.165007701373433 -1.8162159602784462 1.4536526193206643
Ni 1.8780682082724378 8.686794436449796 1.840043100522584 -1.731334074732386 1.5774275823874961 -0.48092176099473305
Ni 1.8663486520951174 1.1635858391563672 6.6436745678991835 -0.7912497987968824 -0.7286928020002676 2.170624790449894
Ni 3.78024735059121 4.935379433460434 4.657628751314987 -2.2580512967946786 1.6632137249153809 -0.8055693007433481
Ni 6.752675771205094 7.902274655974675 4.927661881777103 -0.20583017779737456 -0.721209606249345 0.4173527779938361
Ni 8.836582681126966 3.267796693538311 4.117057691036299 1.8393098659834324 -0.10068362846500725 -1.1881098561540056
Ni 2.649142224056859 1.678313225275561 4.592554422703322 1.1658199344075535 0.2160739670125698 1.0595220450795624
Ni 6.804751283168171 2.308705912647991 4.32590839327016 0.7461441647074957 -0.4955647077188885 1.339090947321984
Ni 1.140734570781958 3.125846368597565 8.029483160211162 0.41574095342202594 -0.4378915213771362 -0.23150238575249807
Ni 7.998793039014646 9.378817433178279 6.3003055681889375 0.48965194177887933 -0.8633635860439969 -0.6450517308398439
Ni 6.470482668123323 8.187369655530288 0.6359510787855113 -0.47075716175690535 -0.49223101535996516 3.217652045496555
Ni 2.5880810969673806 4.350456011416094 9.326113954550603 -0.22327588407764776 1.2728251342152144 1.9677081867548882
Ni 1.6876067586773216 4.908833145781711 12.159924099197406 0.4572809816473415 -3.3386322194270694 -2.479581916046446
Ni 7.471478327033027 4.986092640326466 11.018719253231263 1.1730200517004183 -0.06680471632937528 -1.4923844886732234
Ni 0.6924176919723526 7.079293083650098 3.347491541715456 0.5384915889894016 -0.0038725955815288146 -0.18240305712268587
Ni 1.2109026141366157 6.425629239345951 8.37643054351536 2.036296220236932 -1.6975366665669671 0.6775584452182976
Ni 0.6139834425528157 8.289803801799893 7.576519514700676 -1.0245149328767582 2.0357336628652423 -0.6525732360278697
P 5.864424855361126 3.4011253067689897 9.594904214883089 0.5554086764597144 2.199764645238644 -1.9733443019947434
P 7.5075234269637505 6.838584970030404 8.425594828147766 -0.9839372685647119 0.9558474523070314 0.7258113666874145
P 3.3337098661789093 6.820053888367857 9.012980663309298 1.1291817143592295 -0.5798099881222144 -0.022000158420175015
P 4.655099156028624 0.7494861454246694 11.508898088118839 -1.6726496735173 0.5526051455726483 -0.3420978740145786
P 1.4500711363795127 1.2089151416320225 9.207505701053478 -0.8816721545451977 -0.2205029493182009 0.22106653513115476
P 7.172032469674294 0.7782905004560294 1.1907115730441764 -0.48052195445315304 2.1006241928910407 -0.6832166719453394
P 0.26610577282275905 4.895434035375155 9.619786810789186 0.24777129811585072 -1.7003908481863104 0.2417862841770094
P 1.3423370634309917 1.3553256161370668 0.2946871203759042 0.08505800611260836 0.010770351142626611 -0.15771172502359287
Ni 6.104619771855222 0.1585396552971614 3.0645529031730425 3.2863056421092116 -1.2835062680781444 -0.30969606064510535
Ni 8.658083389986727 0.9859543177012317 8.356997167997442 3.764292488845337 -0.5578604804343166 -0.46887871378726986
Ni 1.523570295622151 5.928406540638106 0.277325195074041 -0.9102687352359679 2.2200107970821894 2.616743841943145
Ni 7.528228598267472 4.186298247222147 2.1378122029091324 -1.8617707660901095 1.3273749444366365 1.232882789494322
Ni 1.1161570938941696 4.626705358697743 6.042044246702384 0.6358057867615436 -1.0194884261964443 0.1596865893617766
Ni 5.551775835589249 5.8935557903815035 1.1722122162948487 0.3255433120900071 0.8373777035031964 -1.963352223779038
Ni 3.242687357811265 6.383864324179003 11.238222994706879 0.2049194930576471 0.28514459655798635 -1.6151382095643925
Ni 5.139706536303558 7.140820753581032 3.303175570291438 -2.5062892501343033 -0.20581732228156813 1.252544015368675
Ni 5.039950345943898 3.417827540493037 5.580244279774762 0.05422739388499693 -2.4364791713197005 1.4744901248913058
Ni 1.9097184746366662 6.798667564515614 5.957195966298539 0.9391928744694856 0.21718494068856145 -0.16560449750810835
Ni 3.897237633514175 8.764763076113562 5.345486453554969 0.020014752559030045 -0.16089217963410354 -1.1933405084253255
Ni 8.907655817594044 8.286528671052888 10.0831431646359 -1.611363830123625 -0.7255259742365117 -0.4087938326802314
Ni 2.918132164725486 6.030896672048685 2.2514359126881667 0.09635003408665987 -1.1479386832517586 0.5964295989567664
Ni 8.760657499108769 2.3679941769399453 1.714579466513134 -0.41163284479092327 -0.9468228802109177 -0.8882492935420832
Ni 8.644161751597744 5.5812333505986444 4.509044187168767 -0.7436260262713321 -1.2503107551627823 -0.520980833799148
Ni 3.4883688181208576 0.6628108832536918 9.575689181414969 0.5056010089089681 0.5751416361122675 0.8714926429090347
Ni 1.287583595557969 1.6522241495814622 2.7838126144995594 -2.1691003833855675 -1.9882003931709697 -0.38490134233335005
Ni 1.9092332700815542 3.565674966949759 0.5099462550799749 -0.3228894194069278 -1.058140077130371 0.24109928541231382
Ni 8.981649512248623 2.272726128715071 6.31330625100889 -0.23287458350967638 0.22202607083094664 -0.07864721749025809
Ni 6.53339130486496 4.057905657254049 7.490305196857055 -1.825468589224966 1.5332940824033916 2.6442358767158267
Ni 6.755316403687722 3.0104609930492012 13.883079556222144 -1.1276668203765998 0.15124797167612017 0.16291692337361618
Ni 5.69417404165779 5.944875502941426 9.279667748512509 -0.14596589734157442 -1.675382756177747 -0.5556621872314172
Ni 4.2950960378491825 3.470882792423168 0.37224893468192244 -0.21712297710237444 3.1640998233017124 -0.162966545664629
Ni 8.312151203905533 3.087571193884692 8.926383780335685 -1.7071903876066468 1.615430801104147 1.0982207472013408
P 2.8357033754974212 3.0402730806181015 6.360735929356771 0.012670910599449147 1.2879139102275368 -0.18477875644371405
P 4.952632187737397 1.3191218916402487 4.581533747702499 -0.25330945432526053 0.8689979015116388 1.7149594900291045
P 8.039139663943574 0.8515106670794783 10.84245283613022 1.1251219424675591 -0.5741111379652242 -0.11762128476061033
P 0.7781775970883976 6.524060448035883 11.213722963930772 -0.2636941399936943 2.2010941626833445 -0.6963431820249685
P 4.896367121058064 0.5720291109922376 7.953552379678866 0.2981973159768864 0.5843603264970582 -0.5447113446468684
P 8.767049136036686 7.139915660468612 5.788221613809421 0.9017049048263568 2.208075221986868 1.2135216113588907
P 3.6334356492425153 5.993274657313847 13.277407107846987 -1.795088948491844 -3.8242076771437303 2.1975380699009706
P 4.783239812862337 4.715880357413231 2.5655526762392578 -0.6465938785159833 -2.363054378570647 1.9848397042288528
