# total energy = -381163.27527963824 ev
CRYSTAL
PRIMVEC
9.28645405536219 0.00000000000000 0.00000000000000

0.00000000000000 9.28645405536219 0.00000000000000

0.00000000000000 0.00000000000000 13.59166419919191

PRIMCOORD
 96 1
Ni 2.8016303370371305 2.0014630196225514 2.138635090405285 0.04765256888095663 1.6192452897542307 -0.17706544695985635
Ni 1.4078543007253805 7.9132847040343535 9.223493797202712 1.1295275277344226 1.0097994810434545 0.8230736281756986
Ni 9.107680570846991 7.582640505850101 4.300959925216356 0.7626925559844799 0.8525407843968801 -1.049218349160709
Ni 7.431327022765865 4.469932529414682 7.042520833916039 0.054536440484983496 -0.08423499599068074 0.218807563893649
Ni 4.551300440227501 0.38520025872330127 0.7952445680968576 0.14503978598287925 -1.2050439129051826 -1.7061298075526166
Ni 4.341129411065698 6.325301053156467 10.80260052660765 3.5541731967543053 -3.5498388310450095 0.6065456043448457
Ni 7.3258236177505225 1.8563807472385443 7.0803194880339815 0.6269272533249913 1.6719266793083465 3.4129101042050385
Ni 7.932767684733428 4.07751483856587 13.134603736128547 -0.5236354978131756 -0.4150333858320401 -0.5777536198138179
Ni 3.5089238270106002 4.602505948127739 9.037885439131973 -0.8485226643764225 0.4234496349201933 -0.21401914136607011
Ni 2.2961407810825345 7.100961418204574 -0.13388466603179328 1.1322546968575984 -0.6626362766908265 -0.07540094263881852
Ni 8.246928426892486 3.064752727469727 5.205308256582623 -1.188849048312875 0.17602415017953557 -2.882410275171862
Ni 0.24195020373296797 7.792885826644694 0.40366451540774867 -0.18542538888877744 1.182448029882538 -0.06174992751428721
Ni 4.935861790908811 3.907024827767817 10.962425044873344 0.4527393850232461 -0.8491883229848795 -1.2672988050803464
Ni 5.149023058290396 5.633209488542572 1.7730190347307342 3.0762256878965473 -1.1186797863866411 0.6499378552875515
Ni 6.0325270147867185 2.4719054978086494 12.86726901011678 0.8028940679040301 0.027926036986306742 1.4100883615764683
Ni 5.602137013128318 5.3875456318155335 4.899496036658298 0.7855038974520407 -0.083527685511011 -1.0384261436412117
Ni 8.393719406830654 5.1809127416653356 3.861120027867117 -0.7444480079519954 0.4262760486253949 1.543642001296619
Ni 1.5886801349352881 5.159618902417014 4.1347741858930505 -0.0628740138164014 0.7018635976225654 -0.9587232311929295
Ni 2.463714845293595 0.8398427639058695 10.737523842220183 -0.2861254724140169 -0.6978202807911273 -0.420993717180533
Ni 3.2057025277798123 2.070479946484098 8.73642299430748 0.24746507972934156 1.088235353853855 0.07395469711059521
Ni 7.898788549186281 5.726789086495183 1.7048434606105303 0.8293679458248426 0.009156983908919714 -2.323350118002489
Ni 3.253109875953681 6.105657840813989 5.500586851622792 -0.9459199087806741 -0.31367124324276946 0.7412981494691039
Ni 7.04908728560923 2.4147845186475396 10.95679745368953 1.4104889394489966 -0.14697505533237912 -1.3593982914207683
Ni 4.918328965570463 1.2395930389110157 7.272804465364809 0.27726930757496765 3.4613268049455295 -1.5020729196055809
P 4.036134399102058 3.040988691431151 0.810227333139702 1.015329409722748 0.7393109438357461 -1.2757073408590158
Ni 0.3022592225861624 5.580443856353752 12.97236009657014 0.6885326848416141 0.7968997979938082 0.8054446022400257
P 0.31268512460277414 4.763365906025438 5.839943601042446 -0.2706885690336564 0.5596839067963006 0.26043475251613213
Ni 0.6635524338777676 8.421040154789033 11.56329855681193 0.8669199359366877 -0.708037073423129 -0.1452069076883628
P 1.9466079352615242 8.128553996496343 4.493430972866035 0.7602854892048841 -0.719752047867212 -0.19611577872308808
P 8.994255820485456 0.7726784846370139 4.391126751287695 0.7090737422177594 0.9794856605512614 -1.7636932077893819
P 6.877204306696371 0.6169492926288461 1.075133651404659 0.1230933636187751 -0.1484974055141765 -1.0035874386954715
Ni 6.474432219527508 8.955512733985675 3.656741888772084 -2.342971234667526 0.04823440952635564 -1.127275498475452
Ni 3.2671417080968186 7.947746735194634 11.384065349479949 -2.436393296474114 2.927067765980236 0.6133654554801565
Ni 3.691170488697609 4.010318056707669 3.8378918202300367 0.5046741262193243 -0.39184049265534454 -0.04196965956356643
Ni 9.397798683344512 1.3515969617954495 10.256827261418296 0.37148995402345053 -0.19399590416660784 1.1469812044344956
Ni 3.5487998609104223 7.06767876671483 8.822362626473089 0.5935527916296036 -1.4552029945269196 0.20363779813174607
Ni 2.215673656317289 3.9840559645165423 6.917300429558333 0.6809253048080015 -0.6098142477937885 -0.24989580065802125
Ni 4.390904805034736 1.131099395675891 4.446105345488235 -0.13274579910687462 0.9056767449899111 0.4711178875304338
Ni 5.0445133038636145 1.2924143898244274 10.271832313950977 -0.33193533165927996 -0.4451248059007818 -1.122870170318905
Ni 4.043052807405591 1.744116803639347 12.39262162551479 -1.887553788591485 0.6083569465219716 0.09911191310251317
Ni 6.739514051774932 5.460082124780487 11.801682762170996 0.335584498376093 0.5098914087542057 -1.9816409947858968
Ni 4.664186576251311 4.182303186615613 6.905938452968573 0.713941611833022 -0.5597399568452166 1.2121499278223447
Ni 0.8455920076383754 0.8036590241556907 1.6964030024802208 -0.0826537675464899 -0.7900899741608264 0.20697843246920483
Ni 6.102676889048307 3.03120076881112 5.37741968226631 -3.4761589848623555 1.5108815190361464 1.2799679159075825
Ni 2.3854764695120387 5.375649684115097 11.399885752682497 -1.0699177864915896 0.7878549141827206 -1.1391054012308448
Ni 3.093457157088812 5.410975355506556 1.6786519454705535 -3.8341087383075263 -0.9104134883439483 -0.056897741628308456
Ni 2.4807183427483173 1.3359771460014342 6.738855642179333 -1.0572970124037857 -0.5659453143249802 0.027224382933591824
Ni 3.111732898755056 9.158171021781628 2.6382101037444188 0.20346193467551407 -0.2515186809734249 1.779992716280354
Ni 5.99397894382301 8.689780849951344 7.493750567217334 0.9587214314207166 -1.1648043486588455 1.200903665484564
Ni 2.051117689688306 1.7342174435701316 4.420077271940396 -1.2119529813201904 -0.2929666637055664 -0.5194556554038732
Ni 5.832459647684303 5.410288157903253 9.180367504368345 0.47887773398151073 -0.00821904547568262 -0.358782276648795
Ni 0.8123817904906006 3.0865201758770824 8.860691537120067 0.6087472399818549 0.9524322559778952 0.41946031125514216
Ni 6.56935835332443 0.97489195128164 5.331901198856117 0.28100486335799985 -2.5869686675632417 -0.5799624545396785
Ni 6.214420791217977 7.568153637456128 1.3646982912378969 -0.128683713222359 1.925032759373549 -0.16761072930485973
Ni 1.8531583476662952 6.101748243638436 7.519887292278129 -0.40815054266927775 -0.13783298382179487 0.33845899171041066
Ni 5.917653577585786 9.319978197997395 12.161263551326801 -0.32564744176803917 -0.06505970861381052 -0.3400710733925369
P 1.2065332623196399 5.327973028772366 9.4050235446333 0.4349401520582961 -1.0565830170558965 0.47268780312071496
Ni 7.7878711414313955 1.7665993090123022 2.8293634035574917 -0.6451484043187082 -0.3937685629159928 1.6675822862967216
P 5.04361251781604 8.262576102048797 10.114590358570132 0.9399837458018973 1.2215969321678575 -0.16841908413876802
Ni 8.152188022177537 8.539070986383523 2.3297196704580276 2.635916558216854 0.7194183186768771 -1.7058837529800817
P 6.28847097620102 3.3127103383591447 8.761214112169371 -0.33353070117085787 -1.06230886379608 0.2484073890379528
P 0.8385974504112338 4.763728077735288 1.5963683902836028 -0.2655419918357104 -0.21611407622188586 0.07266914552995227
P 6.9879731311856785 6.512590259419071 7.672889052717507 -1.3257368946125812 0.48783802849859204 0.7911893778725922
Ni 5.374748898067523 1.5383289808121308 2.5062895227545003 0.1815059992297132 1.7191943540460586 -0.03485387445439159
Ni 4.128386034118555 6.906781663000735 3.640894554852651 0.20657759748636034 1.0090453764862495 -1.015469277734722
Ni 6.360571005823335 7.65242820840184 5.528667231526445 -0.41147883571156235 -0.43464498941538043 -0.9856776482945862
Ni 6.414525304136788 3.5354366534623916 1.2994238053781269 -0.5140252284169212 0.45333613806698053 0.5309294603714276
Ni 5.018297643942981 7.300044421172529 13.054929674543331 -0.8203107207185808 -0.5987111959020914 -0.452089410144073
Ni 8.68908436589394 2.4559699425752783 0.9474068330857143 0.6085981159985002 0.38839572863985367 -1.495243041167941
Ni 4.888036552300501 6.4081547966250785 7.02335637859255 0.4142201459021253 1.398248688629063 0.6737552694221236
Ni 8.984718632126091 6.189941698213801 10.606160448476185 0.5932447734708816 0.02114372395715068 1.0751890621928581
Ni 8.015305688762684 4.272725390174665 9.678936794728589 0.5076470928047193 -0.37167378789948247 0.13693412615660933
Ni 0.7330931167504808 1.7120228182742359 12.595408995022716 0.574282630546082 -1.6383035919372624 1.17427449293281
Ni 8.400637815134186 6.903800711235052 6.251852630399021 1.6251279737872528 -2.268192241883423 0.8587682533638308
Ni 4.999520433755408 4.833627217736211 13.004232135682292 -1.33080093939905 -0.6143062221268711 1.9277599284967253
Ni 7.43508803667584 7.884700998318551 10.701940936050189 -1.4589552624805004 0.6066993563138906 0.11280123766414768
Ni 3.583800506408427 9.124359042408258 8.23217225132965 -0.8668834262717974 -0.2309735098322216 1.0729964254169133
Ni 2.4076525218997373 0.1858191605787791 13.065340718233385 -0.276472265594969 -0.45670865408363925 1.0064485622933506
Ni 2.219666831579731 4.01445981523569 13.16703389113203 0.9582573473001047 -0.8890296233515333 2.2365103373991095
Ni 8.566233864622225 0.006934195275500101 6.2189748683079795 -0.27857234265710734 -0.2853022051817732 1.8615262541794717
Ni 1.4924817569268436 7.5286583481743525 2.3416945530183026 -0.19925226746954072 -1.0330566517991824 0.2653923536317236
Ni 3.6142507893980675 8.746530370948506 5.693589084446916 0.44525104706600094 -1.5696098861152905 0.7043333993192966
Ni 8.602850353133402 7.536700417423827 8.675545644463444 -1.3335152530064196 0.48920636960102853 -1.0110878608375748
Ni 0.43544647591514324 2.6287722804439086 6.545405802267651 1.1821713791823836 -2.2264881772764173 2.23757554543883
Ni 7.657275737441362 7.141078899910964 13.020215980476976 -0.8709018034025711 0.19688865233337058 -0.20170047189971713
Ni 2.755411654987895 3.0841985623524075 10.663122629272209 -0.7039611035815425 0.46809169910960025 1.6218117649298263
Ni 8.212484968640403 0.2205932165967752 12.45004627172493 -0.8236976349129427 1.0017128473805779 1.0965420739473373
Ni 7.6370312675061935 0.6158182025196243 9.05786524512533 -0.7396289892967971 -0.6256162478230516 -0.05612332535612915
P 0.4828621818977011 0.5801962932424168 8.236969633517038 0.0448022439163551 -0.20767905808065523 -0.6330894162716452
Ni 1.320357330207419 8.093200465742589 6.7121886605895025 0.2650087450400598 1.588449901639929 -0.3368445960354392
P 6.323137309351471 3.487722852303265 3.4432305220709787 0.39616817349642097 0.9904565577404685 -1.3587264621647246
Ni 0.35209869308848124 3.2671231351886214 3.3728392000028244 1.2328210830184512 -0.7862304912054201 -1.9947585060044615
P 7.007753278415912 6.9186033190683816 3.255855880430667 -0.3806711063020863 -1.433625268356144 2.097670509579355
P 3.658296441188207 2.8012310195108863 5.705563038361782 -0.08397865700550053 -0.4876742492272182 -0.8497382819510785
P 3.8116343712659595 7.54196583689779 1.4608186630319127 0.30264198201180137 -0.4488850442741624 -1.0548737476742736
Ni 0.5496057847958856 3.562023771546973 11.654906640559386 -1.332418677508131 1.8072086145735133 -2.4508053581343856
