# total energy = -340891.337174355 ev
CRYSTAL
PRIMVEC
9.07229400281991 0.00000000000000 0.00000000000000

0.00000000000000 9.07229400281991 0.00000000000000

0.00000000000000 0.00000000000000 13.27821931466050

PRIMCOORD
 96 1
Ni 6.310524381299324 2.0643188412656297 11.493268270795996 1.2149740275347012 0.020800995905751272 1.275905315802435
Ni 4.5749582564713585 0.6957741832817468 6.1180320768511685 -0.3969135363028777 -1.2428280736324917 0.3568670619039531
Ni 2.487813523587847 1.1955468988093783 4.648305938725828 -0.45456949625344945 0.8977058109692927 2.121301004514102
Ni 3.182424638783182 4.472695358889181 4.865458552631743 0.5204951524119811 -0.1723482439898451 -0.1767461159472246
Ni 5.050110580634679 4.268278431252416 2.635328116241896 -0.1678904653288076 0.019326468242753813 -0.3796362372796688
Ni 7.026146929319386 5.801777352580751 2.99564606507467 -0.22485068476393533 1.6556402834434973 -3.813181501236555
Ni 5.061822912144489 4.66491912343595 11.477241156276065 0.2684907900513892 -0.5315346980555943 -0.6557871149794771
Ni 5.666409654317474 7.833354284923911 12.4673051329077 -0.3777559895378204 0.202513968939948 -0.3105658648445684
Ni 1.9869593906194956 6.494564936688965 0.2964943607835706 -0.7747898534686463 -0.1016393075100572 0.2653920965214075
Ni 2.7880520200910914 1.6107222875649827 0.3450991757051918 -0.2637252503419458 0.1795542748199811 1.06632749803717
Ni 0.6915900413047329 8.848580268869613 4.607542307478823 -0.6652307768908802 0.7292317052228732 0.3762210409505327
Ni 8.557096536043339 2.355593911330692 1.2536032295845403 -0.5196798555995372 0.8050504521254007 0.9500002494976346
Ni 6.56057494758392 0.6164514882214196 4.759749997801366 0.0991859608735582 0.7399508914125902 -0.7725990164649146
Ni 0.6505959737909974 7.532108763790466 2.450283257910243 0.8996796468662117 -0.5197101946168404 -0.17911538751034958
Ni 7.318011698492223 3.81311237069569 3.8909163637461472 1.2844498629383363 -1.9893095670747483 -0.2198367764891117
Ni 7.741959995512729 3.936677014509499 12.554383732079366 -0.0002784504723672624 -0.6247215039229241 0.16597396503238512
Ni 7.82692202850218 9.090982891341064 6.573488450814799 0.8617669309808385 0.13040146724441415 1.1589813142191652
Ni 7.017745985107081 0.5707071675872061 0.32351346667243147 -0.7262487113351492 0.3537190031932747 -0.3705013648579361
Ni 2.0030899292906374 6.572042327156655 9.149542734431327 -0.1915001343279476 -0.06898552603077795 -0.3733177512608087
Ni 0.1899928874605849 5.221331984650686 1.4215395559555413 -0.8469306372989543 -1.3353011412622489 0.3493424713921338
Ni 6.570173434599706 2.0492679055764147 7.247770369691633 -0.061986726115441634 -0.02763473099813305 -1.0811866745371896
Ni 3.391785966631293 4.419023667787677 0.2922585067309518 -0.23196261321836822 -0.7330783326624729 0.36323362755192923
Ni 5.7144111616903706 5.458327519918536 4.805148664035484 0.16241118738179125 0.42643674257297526 1.8404681479575917
Ni 5.49487979230663 2.7901114308213217 9.450586850638732 -0.22715799274087334 1.3697382398941957 -0.2879103322285816
P 0.27060747718163797 5.53856288775182 12.52032543330246 0.39542872422723513 0.7129543082190882 -1.1250329822981786
P 4.008048751138224 6.31501516681238 12.56734350400947 -0.23674152266425036 -0.3311362327967523 -0.4417602603039231
P 2.478351120981547 8.541111154075649 1.3961779581742269 -0.6371507308252123 0.052105205335671555 1.6367105364185297
P 6.102841427834881 7.745715925214558 5.9160174926565405 0.4581183899469723 0.15882809801622325 -0.4639913037879815
P 4.749563626136598 0.8598711148464333 12.688878675663135 0.5747922231926489 0.8544577989139349 -0.6581653854036665
P 4.000083277036277 6.221089707384747 8.09939476932318 1.1237731417491486 -2.5463591215719954 0.34241180571057156
P 4.390500375559291 0.987555487350099 3.7959775290825375 2.6306216283665016 -1.718059212000351 0.012817206369326312
P -0.08237189306222302 5.641950749785753 3.6332260187129752 1.161717739313722 -0.4696091641953912 -0.18901207779877127
Ni 1.2389759700235266 1.169627354949169 2.431029128426686 0.1376846311693887 -0.7925134960006545 1.080731589277642
Ni 1.5012741331619144 6.572577592500635 4.697262758653322 0.7501296317178049 -0.566480875113476 0.9491229890990042
Ni 6.0128261271064956 5.659904819544015 9.133821356218041 0.44740254619136494 -0.1523175505912151 0.12949052539437053
Ni 8.89216356908118 2.55275300379484 10.42777089152716 -0.463234371017299 0.042427058815959186 -0.13984872870024304
Ni 2.3082274645353986 5.216705114728143 7.052473819178658 -0.2370009469732241 -0.017525410478273044 -0.5629474080389207
Ni 0.883112517527947 9.481726592446845 9.291168501072194 -1.690043186403399 -0.8808265187154508 -0.020803567008912557
Ni 1.4979083121006131 1.014681646307756 11.610687342677393 0.2916859972209299 0.8866711504216858 -1.1582074121676182
Ni 3.9934605024412635 6.871790919785748 1.5278849858223158 1.1123265904751038 0.4770954452701074 0.16654989214051316
Ni 5.931311565824037 8.164520231556471 8.274003767906006 -0.7090760562106047 0.37403637459438804 -1.0210321165344802
Ni 5.073308436305156 2.8099343931365324 4.82106872548662 -0.014133611187904693 0.3731938240884347 0.5626573876023278
Ni 0.5274522844172004 7.676013490675535 7.191736253241442 1.4902293900034334 0.3000816774837929 -0.6072130627255156
Ni 5.061614249383277 4.358320948862699 7.177076333422152 0.47424177787139615 1.3057902762873252 0.019650684351391966
Ni 8.39626290861814 7.3742508487860405 9.309253211863563 0.5382493910716085 -0.2540069946129174 0.2148182402285978
Ni 4.940435618882466 0.40807450426859515 10.315104794454433 -0.3044939476188756 -1.0421748120503664 0.8606464442231501
Ni 7.9990143727389 7.353919838008746 4.607076898798379 -0.6990598096251832 0.035716479565003005 0.8347850030753559
Ni 7.417244449889833 6.54265716700152 7.235208871466626 -0.15346966191778733 -0.8613797228447487 -0.8143185076908878
Ni 2.3810961296684763 5.151629550111663 2.511030431075653 -0.1730331858720117 -0.25248001644542967 0.4251617325152936
Ni 2.549650279258546 5.187020568872137 11.33116724390378 -0.6187321191087086 -0.002913316992053047 0.0815078268675048
Ni 0.9397898596203117 3.329531885438168 3.8789400284819324 0.16694687046861573 0.6253961613924455 -0.9238259050951123
Ni 3.335483310279714 2.5156563937687997 2.9462909714420795 -0.0477196746734662 2.2256155448634765 -1.6418146904143145
Ni 1.4332319284186277 3.2040892767734444 8.195263514118281 -1.5979077046187191 0.8634582026403322 0.6371903258138961
Ni 3.592818928618825 2.6899895946150667 7.326841762209108 -0.45095606787057824 -0.3177181596186335 -1.8654086199530133
Ni 3.9843791361815257 6.85953425063799 5.899367111541158 0.6544637681823632 -0.56137415001453 -0.4379660833688135
Ni 1.221802117546321 7.285578247564589 11.309816507284733 -1.1197143982987425 -0.03112526064989478 0.35017422326480985
P 0.32596389327258635 5.6183264962988835 7.889652405128507 -0.6453160402448241 -0.105421914480941 0.8151751992642284
P 8.824339099393072 1.8233677858287025 7.918147573245599 -1.3508138921858672 -1.1445998486865128 0.689506104498477
P 1.9145534124786727 3.210376376491724 10.618127577975773 -0.15621739986625352 -0.01434521297807852 -0.7911744654742567
P 4.119565388565488 6.058205741523285 3.5808970271184046 -1.0890640204027373 0.2957429408991229 0.03579361265984158
P 7.0725880021301695 4.07467567802285 10.483685253697004 -0.5462298381739238 -0.13389173978585975 -1.0552671264579503
P 6.538202670664328 7.861904794034195 10.300061116600391 0.2659322852955936 -0.370235255680743 0.9826915690830689
P 2.4905170671896473 8.32923680079902 6.067296180076988 -2.62298699463938 1.231317244779415 -2.60715619825471
P 6.9334553018710965 3.9695550078414557 1.2729335663374095 -0.8337799588496092 -0.8223259513763967 2.184066003556464
Ni 5.028445942644416 2.7245459623306907 0.6524703097243258 0.7313137845628824 0.1758246325742198 -0.5305851896581313
Ni 1.7531482305336306 1.052494967557092 7.158115239033688 -0.15287136621215605 -0.34451728208934856 -1.4491971546524718
Ni 7.308168259539361 0.8488845668538839 9.41392571072305 0.11576777649163934 0.060240432848296256 -0.674817906358683
Ni 2.9933035987727075 1.5671662042353134 9.328320452091425 -0.3543170417885898 -0.33407371815852144 0.6110504341937347
Ni 6.2054037111179285 1.9398378957612783 2.6358597526682903 0.9649453008432414 0.11227544706766471 0.03389151054112228
Ni 4.285887753839979 6.866057229999381 10.185735696961324 -0.2670828539602691 1.0560189170223104 1.1082894442912528
Ni 8.115847374430107 7.165842111804336 0.2277082279350905 0.4902656641034782 0.33183762973915104 0.25278546350099046
Ni 7.71741036804135 3.8885031335512523 8.308101984776359 0.8654232967865031 0.5780942909826883 -0.2907532009940154
Ni 2.883392757377385 8.484019208149048 12.580169913218278 2.0163470308085145 -0.5534237848192017 -1.0881322526170873
Ni 0.295570801257855 4.983420147692292 10.067983671891383 -0.31824240755321964 -0.056446255913186666 0.30276899450796885
Ni 8.673285404862975 2.492857719032816 5.714427491819509 -0.462034694282243 -0.8628992448130687 1.2869579740721706
Ni 3.734918269004705 2.5194849018223557 11.513928605844248 0.6589328596973103 0.3010134452694429 0.13123476177898688
Ni 0.9562197839923239 3.251437578980806 12.72646972571031 1.7777941659671381 1.1513291969905461 0.03525805187134573
Ni 3.414094737493125 8.200900130359216 7.897061747610352 0.0676125569426513 1.9479387174374454 1.9339907398977856
Ni 5.674048525836653 7.79076893704858 3.544062606387975 -0.6230587715085204 0.09752631378294817 -0.2848509765769675
Ni 3.1236996799427423 8.073125942145289 3.720224781697741 0.04576949292563085 0.22089298566776794 -0.7860718541403687
Ni 3.409123120399882 4.131785768537382 9.20560316053402 0.6359646809369112 1.3176302063450467 0.623309711177062
Ni 7.343922170058467 6.03723059787442 11.460271430413089 -0.09405223919141865 0.8199350825467169 -0.7026580684994028
Ni 0.615416339479925 0.059299235048472745 0.39790718442115497 -0.8393777646523608 -0.7514738044505251 -0.17689035483457277
Ni 4.647146499557002 0.36082509006546026 1.6074744063252366 -0.14593350144174222 -0.8837200382131618 0.06660519872405948
Ni 5.833485019991123 5.5434891433752345 0.3634832721974313 0.47676942938925637 0.9352904540912861 0.2754811053262933
Ni 8.390120965603312 8.767709840458727 11.343184404490842 -0.690027781329902 0.21291665233051071 0.6015486653508866
Ni -0.31321459856248757 4.996293732829722 5.778096850871294 0.03878560540862997 -0.20392421902391333 0.30196835298354446
Ni 7.872165558509482 8.938287111603163 2.540137071806038 0.042912997313442225 0.5629967732196175 0.5239995660208138
P 8.43859423226243 1.695357717971666 3.691212492824601 -0.827960781064671 -0.7786377664598267 -0.6108709711930769
P 1.6749087673728167 3.168879703892285 1.658794558830813 0.273319064677968 0.9555887993290059 -1.0337436505638777
P 4.847952654195391 1.1755606352027834 8.26008777619191 0.42248624256565953 -1.0095133172616033 -0.6189684034892308
P 8.623868619631418 1.6460316556797658 12.454398887511992 -1.428978770723068 -1.0854415931588015 -0.33994148979320804
P 6.420444294988612 7.741261428877364 1.3978908072749645 -0.8106891384684167 -0.5909382368248919 0.39302628543332957
P 1.707659748589252 3.2704803240149607 5.933093364358915 0.8898971135581513 -0.5954114421048972 0.537296540240036
P 6.718732248289216 3.8509801257088205 5.933345574131164 0.7625208062933062 -0.2785072937471268 1.0367068469572598
P 2.642877172050815 8.566050890187555 10.155766281074795 0.2809472706471871 -0.11746907545346222 0.37496865660067036
