# total energy = -340862.3862280806 ev
CRYSTAL
PRIMVEC
9.31613703775601 0.00000000000000 0.00000000000000
0.00000000000000 9.31613703775601 0.00000000000000
0.00000000000000 0.00000000000000 13.63510824432134
PRIMCOORD
 96 1
Ni 3.229401708258203 3.1902925641421076 7.319244646460614 2.16576566258538 1.7708246766278404 -1.379062345508599
Ni 1.5515188113955718 8.978883751774282 6.617391089068544 1.2216627524087862 1.707880471695136 -1.5970456137287399
Ni 4.429916417018682 1.195838007868083 6.7817072544070065 0.17761386326415862 -0.26897492877665935 -0.028186746846861132
Ni 2.378325991077194 3.001212242803311 3.5467102741249525 0.10014395391145334 -2.07272360982603 -4.306713494796131
Ni 7.559579560029883 4.039141724523749 3.1129909838139254 -1.1024334997311078 -1.146002128350678 0.19407406570271094
Ni 6.383240227396433 2.5028641136460266 5.657260669404684 -0.5312045684096852 -0.670879233425909 -0.7899202813521814
Ni 5.867722457313478 5.958675905147074 2.308969212583743 -1.0961983174546734 -0.25268364781580355 -0.8430994364783221
Ni 0.16942327177115468 7.079276788698438 1.5613566523166287 0.9300240634860241 -0.4140900480821643 0.3295892000246066
Ni 6.662733660609146 2.072747373604102 11.065367769732644 -0.39138000807915824 -0.1279211240247216 0.8018532853443415
Ni 5.966715731581612 8.526091533700301 6.003660737017819 -0.58715948650875 0.5316879358040069 -0.06503322625124928
Ni 3.9372790799869732 4.829103581437588 1.0737099700021642 0.7373517632268463 -0.6896979087943089 0.924171461359989
Ni 0.15654837011121098 3.4108707454753104 0.40336358874173617 -0.5136166801245928 -0.20610785693879344 -0.14142147250400158
Ni 6.133465271966078 7.674801545362867 3.8219480958483305 0.031040671355888477 0.9239845421601636 0.11008769538772654
Ni 4.000861716621644 3.6022521527113622 4.960806745154512 2.4976948235970724 -0.83971586471807 -0.29071874821165417
Ni 8.075609717660809 6.492397407388879 3.122780380821355 -0.6715518340129015 0.18338778963345834 0.9420961641592097
Ni 6.253578229347883 4.586297096659648 10.88028500288175 -0.06669107356964643 -0.7419828342409543 -0.09980405407353135
Ni 8.286396638759134 3.111096081500153 6.743242786987632 1.533538851424346 -0.6789064746057598 -0.5788437675542031
Ni 6.003467892977038 0.33745471263927346 2.055315017608381 0.4570346699644904 0.6285465340959692 1.0051563258444882
Ni 3.9253357920506144 8.728186498757578 2.115950960035353 -0.5229834660514735 0.5957888800489739 0.7719166456859093
Ni 8.808799034259382 3.8093871480132346 8.911429328504392 0.09385529268926417 0.4146672607418729 1.3998368590517891
Ni 4.92747267451092 0.7410763583824427 9.450875597077626 4.33973391558621 -2.0168406826154817 -0.579521510347518
Ni 6.580770285208144 1.0042889101617862 13.567669188689626 -0.09797008618858612 0.36686865320135525 -1.3302059861275284
Ni 4.790041018007671 1.6267093550261111 3.869234945230054 -0.4476414016750484 -0.527205217442305 -0.0895612932996006
Ni 2.117995852158622 4.756735827389511 4.638841042283562 -1.2485891444859851 3.5798999120964474 1.3232742920047016
P 5.3333674577396355 3.8914064202376517 3.0771303767519704 -0.30643975849133676 -1.4465928842604057 0.04107851520786474
P 1.9885574414037324 7.913080387444183 10.269186459600153 -0.006967175346452517 -0.13028602471247241 0.6151125200782503
P 9.341383967758413 1.1153465821503452 7.246351462272436 -1.1280380876730896 -0.11868932101380851 -0.5501710822098589
P 2.052494091253366 3.7315415052704783 1.3595598036508978 0.9716396821442815 -0.44333274699736547 0.3589080035933818
P 7.939752488350419 0.25999941604669913 11.861767077476454 -0.926906600902965 0.5754033744140865 -0.40222929208883623
P 0.1940942663991307 0.869364226188705 0.6568808364997315 0.40013255746080767 0.7808854248434229 1.348202165594633
P 5.411772068716543 6.581953434637097 11.010663411883739 -0.013533772820376691 -0.893979511157641 0.8516923203536557
P 0.9088721009784946 4.999896325382411 7.415453327308954 0.18776200744175406 -0.5803879721128714 -0.2858609058987206
Ni 5.092563942467404 4.325529099290992 8.839191068763894 0.4853134623045255 -0.09256639867451155 -1.3278485416389454
Ni 2.750691996394089 6.792377026383225 0.8215808266923106 -2.791010128891309 -2.0090654095454368 2.528545490429342
Ni 2.4535072185704974 6.817996403781811 5.955283899579501 1.5881411121502584 -0.31525195746632806 0.015983519912449895
Ni 0.3363023064631989 4.69568718008299 2.6979384376823687 2.4039565161016467 0.5169467729390903 -1.3405251086653494
Ni 7.830930689298465 1.9425357234586371 1.7050021723561886 1.0894900521965625 0.0203569663897972 0.04065711139972998
Ni 3.1472706423869563 5.555212633736915 8.196268600684634 -0.38449253693070556 0.8391057419378969 -0.45896248311482246
Ni 2.8079303435711465 0.24161681405292135 8.933000844274 1.0301939855394064 0.10133694577829 -1.279422584927074
Ni 2.0589222259461017 7.969610708191317 3.198169358175018 -0.8333829805215067 0.17773059134768102 -0.19366603163101484
Ni 8.302373814118617 5.559246521160037 11.433024467676818 2.1492743497985756 -0.9226054024244498 0.9497194850324225
Ni 5.760214233611777 5.515246404995121 13.043630879490763 -0.47944851888331624 -0.41784411580795777 0.11533814515338846
Ni 2.340064615449561 4.928702404626052 12.871419287844917 0.7673488238095687 -2.5313757607892855 1.4308135099389616
Ni 8.817472358025958 8.00124831024426 10.757923129971212 0.869497723966193 -0.5499522813308335 -0.4734298234930621
Ni 3.657450265833769 4.991558382556327 10.754132393729945 1.424739792941056 -0.8799268897193168 -0.15471844672322385
Ni 8.496046991114687 9.126050771688993 2.6141500309968637 -0.2560494789642429 -0.7000926217650717 -1.1745529434051771
Ni 1.4883181363875706 5.807214145966637 11.025062433595465 -1.0110994308018006 1.4331164470405255 0.30695757866801976
Ni 3.554423104142512 0.4293080993298528 11.219730574048326 -0.9752220001789011 0.03054470555607643 1.7395024694757912
Ni 2.2873073302829465 2.10787852712049 13.47155553244109 0.398257709035598 0.02692227831214073 0.4087107860481219
Ni 0.31734955687058714 7.083823063669533 6.6839306676618735 -0.12278791656321433 -2.0027389531067765 -0.24733241080621918
Ni 0.6739181882766525 0.9625526153451816 12.213375797418154 0.052553862837315946 0.5084811586702405 -1.9508299229423112
Ni 8.628503830333992 5.05257908145114 4.956266059865759 0.07638824625275231 0.9402308288156969 2.0727837736400043
Ni 8.870611604819242 8.122283565212415 4.799571426399945 -0.9021939286476333 -0.5823916328064614 0.11569887092691686
Ni 9.191142622555871 1.0493231175598816 4.466398410434268 0.5310667572802402 2.056386049008271 0.8117816002016471
Ni 5.944645802469885 8.526007688465178 11.776561686317377 -1.060599080193825 1.4899985049395499 1.2616467490008918
Ni 7.530569108677449 7.077031599624599 12.832341818595426 -0.03467364012278545 1.4744988666420542 1.4455891255862394
P 7.084232973707911 6.7067524090485335 5.853565655169882 0.7729448298401075 0.2747701953021977 -0.09745972221107087
P 4.4423348279540695 0.47261323165697455 13.529381727877732 0.46778368095087824 0.7531252240110191 -0.18100746232673987
P 3.8172779162519985 6.234536044837807 3.2044279391700616 -0.5967980380397786 1.533516739937159 -0.20666398655257956
P 3.9155631640902087 8.377694783670458 7.002091660085704 -0.29900978457585276 -0.5725689902890848 0.5583477044833803
P 0.9327596084649357 6.528096845276653 4.245441062315566 -0.638009736391398 0.1934857972994087 -0.13516443585069626
P 6.890233731908586 0.6616972794506656 4.139523103240025 -0.2631580649845662 -0.16215587683787558 0.49787895767436186
P 7.626422844697102 3.8346525121968575 12.76079854269272 -0.7797921917792442 -0.17083746377227355 -0.08649499566945104
P 4.729709713268312 2.9364185083279795 11.561344941963405 -1.0978147700121739 0.5135374901472253 -0.653007752462127
Ni 7.2529482190491406 5.035055427310507 7.842246069585126 -0.8603481962564409 0.7101034690338546 -1.4487533822468341
Ni 6.199330362223533 4.9912695823020155 4.922983227976964 -1.0506262852518293 -0.31799506742910394 0.37335863180107315
Ni 7.7091780917631505 5.315256886953145 1.0202185732213649 1.9050645437817386 0.27555695286955123 -1.2444653521255988
Ni 7.746256317961831 7.684592805597744 7.6818566560915755 -0.3614713934451839 -0.22923030188886973 0.6065815997891038
Ni 6.253522332524468 3.5484235117626253 1.0997392574391271 -0.595335080341007 -0.21029001334094108 -0.9653597626728406
Ni 3.4833875577191615 6.919616828750454 12.189050431481627 -0.4185645389137501 0.8575444082590586 -1.4792104131851107
Ni 5.403657713184119 6.593076902496702 7.634078846277522 -0.8148509831555901 0.49806150599881327 -0.6058408649683372
Ni 1.4305115048391257 2.467742276266875 8.23165128990639 -2.823962158337298 -4.809318397191253 -2.637056328248252
Ni 4.727035981881623 7.483662357694948 0.38815778954538305 3.8368603329107343 0.6826343170793083 -0.23980139253649668
Ni 1.7808262133187656 4.078204287953665 9.411879178222085 1.1336736886923122 4.73480371381213 2.4801534722791994
Ni 0.7038770223996966 6.504517701932719 8.966992634206445 -0.4632012037865184 0.20274999621015408 -0.06575879156336417
Ni 4.258294536859867 2.2528748870592477 1.3703423008876698 -0.4758561735463676 -0.606340430312575 0.4644175926921228
Ni 2.664834475628502 8.763541239567626 0.041718594155856575 -1.3536647313711008 2.3937003855912775 -0.8388337192234327
Ni 3.7808238712481206 2.4768534584835358 9.31620151719619 -1.6698006341042788 1.590913275578757 2.459290255676945
Ni 0.3545889522434474 8.216246125373189 13.262788349895498 -0.5074612020461583 1.0322269568090352 -1.46044624520373
Ni 8.336107547049627 1.435076412084692 9.625105064048755 0.9946055469118356 -0.29140137610097555 -0.6466524996680606
Ni 3.9056414779340294 8.396774232729477 4.68749084254289 -0.5676615256851385 0.7660383325282614 -0.03903988751128115
Ni 7.156554147069809 0.6663273996568826 7.262727368305612 0.489223338881893 2.0491494220505158 1.291415238512576
Ni 1.6720509949529896 1.152014898310648 2.3107280992938715 0.12166563003331306 -1.129972585691641 -0.5261556931318679
Ni 6.519451469921785 8.011477428929222 9.639135166725945 0.17683070524123096 -0.12310236247983959 -0.7673855905847752
Ni 4.069270112344486 7.4703123330359755 9.669992076478525 -0.7173565510518419 0.5662078239577475 -0.6775175646780331
Ni 0.23866266693543356 3.4646621218751044 11.513172127930552 0.3863797266510894 -0.47074122091730536 -0.46763250008499463
Ni 1.8650254616563713 2.623172709909784 5.676950325452651 -2.138903033866581 -0.9617028826465436 1.6382061471274496
Ni 0.7202082109741403 9.034715362228727 8.789286384818896 -3.21844471660118 -0.6388093494745579 0.37914155703143737
P 7.822946759687342 6.139958619619465 9.54555736303301 -0.19981996704755264 1.0469848318445 -1.2714215689994683
P 4.483838219339778 4.7612448378116605 6.528108024641336 0.7496107830998574 1.8070916293796748 2.0594950269508985
P 2.373686554733741 0.9522489675623322 4.576310197542817 0.971352489921166 -2.184814451686715 -1.6154991924482371
P 0.7898649690865853 6.1679815604248995 13.35087149584673 -1.0558535950890395 -0.11027898546292621 -0.24105557665857194
P 7.001561571876984 8.032187202004515 1.1125536042070376 0.360717803108611 -1.3069994661040782 0.6262034877850893
P 6.237284305322383 2.455957362663526 8.730560250525272 0.8610688764725494 -0.7226090577000329 0.1497132801991486
P 0.20276665855198275 3.271007577153506 4.276733967290784 -0.4675044591475626 -1.3686141535920817 0.19205626394173375
P 1.7021980150481977 2.2443599376256813 10.30384714818613 0.006536258456621001 -2.4990893899517546 2.519335284684984
