# total energy = -340868.635785387 ev
CRYSTAL
PRIMVEC
9.28500731529508 0.00000000000000 0.00000000000000
0.00000000000000 9.28500731529508 0.00000000000000
0.00000000000000 0.00000000000000 13.58954674885821
PRIMCOORD
 96 1
Ni 0.9093253356871183 0.12922408949041062 2.1903090877064986 -0.5078856911780866 0.43945783742299155 -0.3008733201471528
Ni 1.845432346511735 7.539119545267487 0.9327040556388269 -0.5538629292391494 -0.6469255508237891 0.059808230406884086
Ni 4.686635303937722 2.9453528846265566 3.205882762250363 1.575073737443339 -0.4109489313500213 -0.5510874233765412
Ni 7.700687957785729 7.4196772109973494 8.516623761264944 0.5684454550390146 -1.127336947841007 -0.7566350369364905
Ni 0.3277013346390341 0.12757228668672146 13.30549813789509 -2.7636754456320984 0.2151378283515456 0.45286408352656843
Ni 5.768821478055655 6.266460730818583 6.7035877338220775 0.9670186384325024 0.7118032253337806 0.4081546564343358
Ni 8.547657041258033 2.439366410275565 6.359731414932686 -1.4074552948289953 0.5559529789989587 0.7439859807139123
Ni 3.9223677807378166 6.903950763959061 5.2991078133330625 -0.7247515579643324 -0.11629742374286424 0.5894554816317784
Ni 7.307941432809629 3.590568043864109 3.4017899173705373 0.4950108920979475 0.6844909106720728 0.052031928895574904
Ni 1.5388506895414553 2.568827267452845 6.162533643793889 2.2610849414146803 1.032462469858609 0.17652063019997985
Ni 2.3703230957829695 3.938254428276389 8.119509568841652 -1.0029521191043178 -0.4389631571747601 -0.26757804842913274
Ni 9.208424587770342 2.4413998268804438 2.040810256214201 0.7019942096631587 -0.029526548704207213 1.0308925542683278
Ni 0.4392282001618699 1.0625298136041057 4.831749754969636 0.0986966799419655 -0.03943840850128047 -4.581238921077375
Ni 4.802066515042071 4.876402283711748 4.791497391200365 0.3052521659411388 -1.0941278080788897 0.5890207080872049
Ni 6.558325651173645 6.481631490642601 12.051794665906733 0.4296709332395568 0.45261417229929146 0.7062514422776159
Ni 4.732577520197721 9.249547885226999 6.099396522462771 1.2983135082943058 -0.5089652973955106 1.8119484432513437
Ni 0.8079339841637603 4.8077303695122815 6.275122714155073 -1.867233331866578 -0.57045605771114 0.3525586643365864
Ni 0.3633427637691142 3.3498542288801754 12.941610344195809 -0.2773438695666449 -0.8854773872239008 1.2511857015685677
Ni 1.5952942490896649 5.141266402756365 0.3801950520698216 -0.6785791731733282 -0.35255532190247674 -1.2204219380231498
Ni 0.027529118227420046 6.782632858208625 12.90398099499676 0.24827292034261755 -0.7376641522609425 -0.2539766555956142
Ni 6.787981022429675 4.525048321404823 10.66479098621088 -0.515664563792557 0.7703066208863121 -1.5577195624356075
Ni 3.3068924999725318 5.444329041949252 1.7387550403164254 2.1776469874039983 1.8194617209092538 0.8941047238815957
Ni 8.3235633893916 9.318711904814862 6.209308725211231 -1.4838687378927282 -1.4934828639437245 1.7837588681910053
Ni 2.345597121267937 4.66231786974513 10.329441591035597 -0.09344648728661972 0.03725657035861325 1.250418741495556
P 6.367425900505576 3.1482767197846613 1.5057487099156417 1.2933103986527599 -0.8180162682574492 -0.3131706494572671
P 4.549161485436193 0.25584559142672303 4.046219564988123 0.07652451472030047 0.25247436001847484 -1.2895455322936888
P 1.5752757732900369 1.952265640830159 11.700396135564633 -0.5278194539875362 -0.7547275355011324 1.054218887699094
P 8.312746355854232 4.736681493436792 12.156311350896768 0.03629446355566008 0.7342726100808903 0.6989297118052221
P 2.4771563901013933 3.598209604895229 1.935532200623253 -0.5017242995623811 -3.2550034895618203 -1.3795971349661464
P 9.122519699969711 6.644332674054885 1.7866582501241441 0.2556363026862243 -0.7029717430850797 -2.1397281008710376
P 0.22325892970762512 6.044159085366497 8.239029897173346 1.1905945702490721 1.153525947531549 -0.526677627073609
P 7.935199387874416 0.1381311970203658 1.8382308948279729 0.3578656783717966 0.6122544818041649 -1.2057008297628913
Ni 2.87756304612327 2.253675548718624 10.008361395122312 -1.0526890813181289 1.309662614758538 -1.089717080605704
Ni 2.2345577186298327 6.802586338956956 9.650331512546401 -0.5481159994530431 0.3204571558163513 0.1847083082170948
Ni 2.563209838019276 1.3918040284845392 3.313267586004083 0.9886225898555233 -0.376871530050338 -0.4276814136133537
Ni 6.355067555751725 1.554356651779572 7.200068217670445 -0.16503088439282546 0.161702848460857 -0.8884799214956506
Ni 7.1132162591223365 1.4756290746436502 4.368088058023573 0.12288407582144642 -1.1208335995048502 0.7060460111350293
Ni 0.3647410858727432 3.467745966926501 10.62138636245368 -0.3794765717733529 -1.4068413153940804 -1.1385685548907682
Ni 4.2544182128093855 7.496148531352516 8.68525620735849 2.2477375735734966 -1.3143404798501814 -0.08728740966375935
Ni 7.7457945233861905 4.873106106110232 8.055461588291635 0.32276806333771507 1.4101223001381975 0.45709149134435473
Ni 6.003927148613348 1.0626969437360134 2.2877459546087704 -0.394374829041424 -0.5708782328502232 0.19551979701030198
Ni 3.5046910110854625 7.681644407755563 2.641481521295382 0.8661696880342243 1.2934199276474305 1.1470891907672696
Ni 7.636315001979225 6.157101914506885 3.316012234170303 -0.11217697381658745 -0.8205560039601675 -1.5658699594568841
Ni 0.806672151667856 4.702159836190495 2.6655900428230885 -0.758259459913791 0.5975531710382483 1.381519291689524
Ni 3.893333562822493 2.3029882226387657 5.510751198873091 1.0094932626569453 -0.7361207190332225 -0.4972657495703952
Ni 7.535869792702613 8.164548353888618 13.624879177467312 0.05019538990746839 -0.05731580300233355 0.20530515853183998
Ni 8.495512440102784 7.897260847931337 10.657072359618937 1.7668399809484796 -0.7995835154735584 0.5542048859596004
Ni 5.743231997859099 3.8168715274746554 7.47491650509509 0.07819753154734921 0.3226181680234121 -1.9003733089536559
Ni 4.414928134492212 4.188903201101511 9.282720430908507 -0.24884087703094565 1.9643945490006234 1.646978751113757
Ni 8.29841030453947 8.696848539007766 3.7536638400878424 -0.15878130393868783 -0.9479698493311675 0.6951154802654544
Ni 6.284315799910737 8.49870648262369 10.055979555205056 -2.179856593460807 -0.11577034759480061 -0.6053613542287575
Ni 4.337658303506819 7.6934270820550665 0.15285071913778256 -0.6904666686395335 -0.7716387094341742 -0.46944101404864313
Ni 2.9981010112581368 9.11660515030164 7.921048108205486 -1.1150159643818087 1.1721085956297426 -0.8368714532907394
Ni 6.015097012429188 7.6510967336457405 4.247711652016217 -0.6659871954409304 0.4382417056277033 0.602217409283137
Ni 5.662396724059673 0.298649475209787 13.082928155731217 0.9180257534735673 -0.15907852346413248 0.6255956789977613
Ni 4.56190980049783 2.297389363219853 0.7371608728059188 -1.314943403541503 -0.17092590972102176 -1.0040756911858
P 5.372425945199567 3.4564832530373786 11.69680840873301 -1.926281029958354 -2.387706629901688 0.40939109994459816
P 3.9024514400187984 5.088611126198066 7.240007676692755 2.2201961736201183 0.27576418378435086 -0.5767637450967228
P 4.082432022068888 0.5556937610825824 9.671205137520957 1.0305966202944639 -0.735827613272836 -0.7520723572664726
P 3.5958047879972215 0.24442781791521898 1.1797279616030143 -0.2818970361549661 -0.10348587380049275 -0.40898692252764407
P 0.15848579008527533 3.2796967135081947 4.513618477383792 -0.07990860070118495 0.701003049394483 -0.8920552975517346
P 1.344979736528359 7.829563859501332 11.220046494947571 -0.8452537638171636 -0.33319182977420037 1.2058568957247813
P 6.487536755303345 8.818983525403086 7.616615001930955 -0.8121662372345754 -0.8430007061169288 -0.3543512374606349
P 7.464087401048194 0.04025329227000375 11.674399043546368 -0.9599195654938759 2.148604834535377 2.6761383818513784
Ni 0.7395239071709492 7.4944215199894675 5.832932596655503 -1.3164238447417718 0.16911533887484423 -0.03986829694984747
Ni 0.9803110737127756 7.366826949285159 3.367204193573675 1.2406079260527214 -0.7940489588085744 1.0520874431783882
Ni 7.521598736439149 4.609393327974313 5.697797671499952 -0.1853243445345389 -0.8613396136354327 -0.26659048770488275
Ni 3.9634817931871456 2.2520042473995456 7.791798020694557 0.04045116603651098 -1.607231038902174 0.6542339115597442
Ni 7.909619192685188 1.7498153410457933 0.20970746151209763 -1.28549295949087 -0.17191269911432328 0.4104696777207576
Ni 2.233016407413349 6.286934171977293 7.437762548271243 0.1294403888827255 2.0390575850321526 -1.0156795939733152
Ni 8.807247276140222 5.585080468037639 10.19328810057614 0.6749570030397085 1.0545364189395128 -0.10838459665369075
Ni 5.958059212411973 7.926712891176429 1.81340278523233 0.5142579132530176 -0.42665965721705873 0.4385844336791027
Ni 7.396836092969944 2.3692088949035837 11.466845703734416 0.2757346160979961 -0.43961158939203643 1.1450179100605378
Ni 8.181651337387185 4.51768531059355 1.1678942197632063 0.034630445589675846 0.556329645612087 -0.9726077024845056
Ni 2.7361709545292356 3.690205457503167 3.9968892495540573 -2.4812150807744944 1.9301888496531916 1.6299547057519348
Ni 2.785641473573957 6.446562017963939 12.08908418383757 -0.8642110216459568 -0.820469100673316 0.4618909696155271
Ni 4.210722968322813 1.2755835917572915 11.691521525560326 0.04660870099747457 0.7999043891480869 0.3354626280862481
Ni 1.2351659548575784 0.3825450874245925 10.158431254565294 0.3134845811532601 0.6006500647960172 0.39047780797986303
Ni 3.097599149787272 3.338127264624642 12.368879523166688 0.9051686950052411 0.92234572100516 0.03471863442810795
Ni 0.7178796265881507 8.373730283985937 8.23213949323508 -0.7220619269473113 -0.27097267593297847 -0.4025036287961455
Ni 5.819861163338844 2.4126905842216075 9.674683301266105 -0.02875084688044726 -1.6449434658512831 -0.5159743817234921
Ni 0.7205871347250579 2.2095903339242664 8.415626094052302 -0.7719091894867416 -0.5914429443754524 0.2553390831607796
Ni 8.081233983132558 0.7940835387322641 9.745825027414877 0.23742080811946206 1.1922382765000823 -1.8236870718445108
Ni 5.807419253519038 5.162529069537974 1.0773273297830794 -0.41520359286131714 0.7833475132306703 -1.4491290204186977
Ni 2.315105157202084 9.067255336352185 12.748367057678099 2.8512148234056642 0.3836021639059523 -1.1859670987793898
Ni 2.673692140217687 8.783505512401982 5.114113327325737 -0.898957938208839 0.6499355412947065 -1.2902304741758555
Ni 3.974456671849094 8.145671933990359 11.137326364660517 1.2401124744735417 0.06483293731498513 -0.5442701433443917
Ni 1.8580228164487929 1.8794247583403247 0.5243271493264118 1.077058511301429 -0.005795780746170664 0.7782086493422081
P 7.650047527817653 2.8699122000848223 8.377710766627542 1.0027487448442602 -1.9097308389091558 1.6011197837981135
P 5.20615003396592 5.8462584391729555 2.933819977024182 -0.10232039273748184 2.035962748156913 1.1690554106257156
P 5.988541891470498 3.073968806136969 5.182509476807556 -0.5727967900291748 -0.3189553744598443 0.5102775884490308
P 1.9829618750572329 5.912804086694261 4.929798503854838 0.8511315627541793 0.49072306335587096 -1.4972909248359052
P 1.3900491620995068 0.4831286433103959 6.5027613818194165 -0.0940085304376768 -1.343521729399828 2.838624645445479
P 5.315388145182352 6.290481044776671 10.31688454712492 -0.7187935406086847 0.6026349564365299 -0.5118338771925571
P 4.007251317732344 5.184525251898511 13.261074020333252 0.3608463582666753 0.4415077779734848 0.3628662169101815
P 7.851355771700649 6.599058978322517 5.351659097809285 0.29886631701945304 2.657418951065004 0.7959140370417711
