# total energy = -381168.91711789777 ev
CRYSTAL
PRIMVEC
9.27342826534207 0.00000000000000 0.00000000000000

0.00000000000000 9.27342826534207 0.00000000000000

0.00000000000000 0.00000000000000 13.57259963883241

PRIMCOORD
 96 1
Ni 4.676515755558902 1.9574445404629235 4.391604505401576 1.0964065768107376 0.6507906902061502 0.4609203781721417
Ni 5.224686655241225 6.50990037086365 13.229864296568685 1.024584609772429 0.6193157595263206 1.0442144681882146
Ni 3.201539874552133 7.108351799340085 4.050606632927822 0.21004267321682538 -0.4298707079551887 0.38507694867926584
Ni 6.239477925241167 5.624417786497256 1.9163966369855614 0.6075465348055343 -0.4997298948401716 -2.145337990858647
Ni 5.709112008090142 7.551436208374144 10.41885723964092 1.6599317117299992 -0.24866372802313305 -1.4262485162760985
Ni 1.2351835693951592 2.4137806786830382 7.363624244982682 -0.7082124226587286 0.0004406870818444023 0.08823460406837708
Ni 7.7175789516193145 5.988928436683564 8.710297607337488 -0.25563013203863716 -0.16208542861125633 -0.08069098739316426
Ni 6.010600438858378 8.817184997781364 4.126083994032241 -0.7606148475198449 -1.1610266267839682 0.44813479637169923
Ni 8.501155831279236 2.9965785600173738 5.348716905428516 -2.039415225481888 0.4322273811128234 0.395742398812912
Ni 0.18436503005454485 4.199731707713001 9.474624704321123 -0.5185645110481715 -0.024087637076823033 0.8391936736660128
Ni 3.8813285435400315 4.622757691114146 11.76512349848889 -1.0157109614318829 0.9824825383960564 -0.6100664730139106
Ni 6.350137746358861 0.7647045255195852 2.0616639655556255 0.09884940346974588 -1.4392883801791923 -1.0879018817738362
Ni 8.467734395319445 3.1155473729830074 12.242716189291421 -1.9376424777177594 -0.2533642188225959 -0.2333286403279594
Ni 2.6341266109362467 0.8321010211147473 0.7098484871520657 1.5211785300867802 -0.8784289650175517 1.3641823430729731
Ni 1.0566607992336963 4.162174322686045 11.969689764973735 2.257945367344434 0.05099757409378959 -0.3777714161567881
Ni 4.388881826822832 -0.016493719755294678 10.926309442554139 -1.8165185791205296 1.3376120487836125 -0.06024120417924464
Ni 3.655872952237477 3.9712437053230842 3.4301215385689074 -0.5487618605671583 1.0864106419402901 1.689758822393761
Ni 7.684509905938791 1.0382808641414922 4.187160648171632 -0.951952231017683 2.164387294180614 -0.7462022716389407
Ni 6.226031454058677 -0.1819186996421718 12.338837129360904 -0.5935209099504036 -0.1994317304701985 0.7690575789705594
Ni 6.81481069671212 6.473437250388097 3.9675834831329264 -0.11478535797371199 1.4872157999880904 1.495140968372438
Ni 8.630334688915159 8.104624032821796 7.727152839101248 0.5090349742911814 -0.24293788128294938 0.05032471639648107
Ni 1.4981687254394647 0.1696137874959329 7.99260565444325 -0.8806825369384188 0.16017227074894352 -0.38558165622982626
Ni 0.4651514592587872 7.290213003726165 0.42841384530254334 -1.1916345814778124 -0.09116051946592042 -0.3939359417317926
Ni 2.951166581134163 2.8483242601591168 5.757564744146276 0.6218323553005872 -0.24542105271611922 0.47947448702524526
P 0.9068550548038318 7.393658097547323 6.204265790257006 1.4624653325162875 0.3852558974592914 0.20285026923344418
Ni 3.8481945838606952 4.891455279053909 1.2503150225182413 0.8249099100534889 1.4154804791263171 0.9071011361412635
P 2.7845230727553005 1.3375807658069234 9.780944591286657 0.6449745977450053 -0.16532219038099916 -0.040788751881587815
Ni 8.416758359395205 1.173283434813695 8.578873652685509 1.2559075325242695 -1.2667809849036633 -0.3941514001767083
P 8.40793932898517 1.155459905425594 6.259629085158099 1.2555478351920053 0.3607293730728368 1.9275087317178674
P 6.765809901037445 7.403339556798717 6.890809224492715 -0.8074642037732158 -2.146853399061909 -0.3225657175189218
P 9.606529949907152 0.6671165290769516 11.89520280602262 -1.1077834511891114 -1.2471143597126715 1.4922693032515977
Ni 2.5531324872756462 4.448723260299115 7.5905441106298674 2.011846571835 0.4239651411040311 1.3087501302465976
Ni 8.212195802281718 8.461669573144723 5.417910591447931 0.24307517819176203 -2.467407228357125 -0.35268413417085714
Ni 5.03546234870418 4.178579017528683 9.696292100121578 -0.20621532905093515 -0.39915862358331256 -1.4783421516475441
Ni 6.479047674571135 0.2294904600001422 6.70514962383329 -0.3342164143839728 0.6393019728402604 0.31842109922292905
Ni 6.331210678990956 5.360662935895608 11.048327358778257 0.9951843022334408 0.4349244683290122 0.6792887976458429
Ni 2.0665835193227364 5.396764392663495 5.546903980515821 0.3778763171657686 1.0450418491855165 -0.8604314999988666
Ni 0.4323902914011998 4.719655744483692 7.115041650589084 -1.553751578926795 0.7225406663559427 -0.289842773364604
Ni 6.005945177800716 1.589864385475647 9.223002280097443 0.6820216231959738 -0.15311947766722017 -0.27790616982801813
Ni 4.733213496807003 8.928141568607915 8.319840831826015 -0.4042959448098779 -0.4241001240199986 0.7903779377148904
Ni 8.165346441996242 4.711411666634565 3.238164352681876 0.8250621193606372 -1.5063633194508186 -0.37400706401834943
Ni 2.408133160786392 7.486874599841388 1.7900498843835217 -1.0537434907245722 0.2644078782312672 -0.7052870214818175
Ni 4.455372308463146 2.2472762717302013 2.1198361819195988 -0.42348665880571584 0.16619996500026216 -0.6793384199368558
Ni 8.381194761474617 5.487968560994385 12.221053460545008 0.5728908924048778 -0.0902925150386703 0.7317562714169398
Ni 1.1001809987229563 6.340827224243537 9.130247594537785 0.0648103116071658 -0.09102347966742388 -0.9072214637692118
Ni 4.141457483636608 2.395335829592022 8.315347855765383 -1.7625624366190484 0.13173818377796667 -1.1934148133066866
Ni 1.9145178403913734 8.55419984173706 12.407962192010146 0.3785396617813804 -1.143706647448282 0.25038996668562036
Ni 2.9020266840334625 7.1312757143491305 7.605596739611536 -1.1553671145053457 0.0274732657196043 -0.5617091647564455
Ni 5.108490597367705 6.336107049187063 8.219607126260371 1.1730077104052443 0.452885166572491 -0.03016546783978676
Ni 0.7805908357145673 2.0504941210457566 0.04273195807511407 0.1273433971443807 1.378500302357542 1.123394418253491
Ni 8.939065667265137 6.025762494295186 5.163410622391197 -0.06043609379887011 -0.5589714541103084 -0.4746166447123117
Ni 2.5613301979827643 3.646970460971828 9.998174651596885 0.3291479987221299 0.0052306522713200234 -0.24056192485160502
Ni 3.8537215471881185 9.371170337071565 3.725095385884937 -1.4430303637201276 -1.9501141278222092 -0.8376517831001896
Ni 1.500320160828663 5.324218362276858 2.9464760810485746 0.3805258389734737 -0.27896752121299695 0.004033032418793055
Ni 2.3259705851471755 8.432105883400046 9.727183744813379 1.6059722267944083 -1.201625631252253 1.6944904235414753
Ni 4.580915982165597 7.79822068500065 1.9168992568049346 1.9233710554004104 -0.0484426688824198 0.3143898665763489
P 5.2628004459722835 4.309686748272164 7.428962966815503 -0.061762268809461375 -0.6616011505580928 -0.28983788826859763
Ni 8.087588744847842 0.9510549965949378 0.28160249090359346 -0.7835413744090313 -0.38970287748705146 -0.7186408170809043
P 4.235397313346006 8.678964547453765 13.509799425045648 0.07598201195326915 0.09884657525626848 -0.7647034157669217
Ni 0.5834127096373696 0.2996411638306143 1.9481562745757635 0.4897545287950146 -0.3356929989294993 0.0768538730352612
P 8.97066951125819 6.347930670399253 2.235257908521575 -0.21856022376953327 1.4052639436046315 -0.2583557584999164
P 7.211824713446448 3.2755696534830436 9.892171946222536 0.7706267232298922 0.8329384367849203 0.9117504619878168
P 4.3904954033647305 0.9600131284309968 6.595822394376923 0.36542600721755775 0.8732006267390768 -0.45664231962207813
Ni 5.9592163720844615 2.629054045600507 6.151875556501502 0.3405336148512523 -0.5682168839679762 1.9907732961044682
Ni 0.6468791262758836 0.7286104874944205 4.601993557579861 0.33243978209952424 0.25703266881311865 0.15690722684442654
Ni 7.350082257487653 3.2507910527936548 0.7333835210927845 -0.4418785310493422 -0.15958117413216388 1.2459154543085638
Ni 7.813494021578278 7.593889963597207 11.633143138132807 0.24065525589635975 0.04668480565104863 0.10224840184896583
Ni 4.421348099657244 7.9125991509074325 5.942301638679729 1.3897097979201163 1.9247095717061753 0.27244077583807275
Ni 2.5611354559863284 0.17976077285309214 5.936383336673753 -0.6384645645406295 -0.4594504784948345 -1.1278354847439802
Ni 4.582260629283846 5.712997574590461 5.82664900371055 -0.15996786804762128 -1.9925077622970717 -0.6761011439464808
Ni 8.054937003445394 8.405407683031502 2.9982551958724044 0.18369555068186427 -1.4323366314517074 -1.5455389612090158
Ni 1.0414152829412726 3.482098177417693 4.537646165243183 1.9486249448711923 1.2645834630317125 -1.231622948945292
Ni 1.539769325249569 6.425864562687286 11.422700300069794 -1.0441435057409632 0.007543359564896685 -0.5129214538297812
Ni 8.14098514558493 3.17117866996491 7.850676760097805 -1.2187602340500105 1.2172484253911746 -0.57261115638093
Ni 6.246544277683276 4.135559583173116 4.441429708861164 -2.040469377778015 0.39311318872018103 -2.008026426757961
Ni 7.645005100947474 1.2507629291100444 11.043034085846557 0.027361936952720614 -0.3961144374403501 -0.33676489183743935
Ni 8.930107535429078 2.4612328118146265 2.5339633834264563 0.33334558174324525 -0.1384302510861616 -0.07088197172254243
Ni 5.698354831144149 4.212974163470653 12.984444868602912 1.013349403178242 -0.7778209269854861 1.0095703957517839
Ni 7.258266042882249 4.684620731982004 6.274259773147489 -0.28206827162550774 2.4575545039327613 2.2215776273486774
Ni 3.499077824821238 3.1733208319257074 13.457871008024552 -1.1263463017929631 -1.2058327273550653 0.08047167229350657
Ni 2.3410584531567697 1.855195718905587 3.500033915289455 -0.07557474921252146 -0.34207344853454635 -0.41618883959272196
Ni 5.020402300979791 2.256011841284619 11.276550141115885 -0.2755222429768739 0.9422733131670225 0.7276407065866695
Ni 2.441600963888191 1.4630595255105623 12.071253280172186 1.45735140832849 1.3743785668796846 -1.560569630289893
Ni 7.221765828693089 8.031141386166587 0.6445450043471713 0.007948051202483087 -0.8444240688270168 0.49690219558338933
Ni 3.82748701823966 6.994418457996583 11.58375285846526 -1.6068039786670842 0.34048013590549747 -0.865742884909451
Ni 5.242148520921659 1.5767888514292252 13.628518782787275 0.43334941053240844 -0.7471852043775004 -0.8425782738675295
Ni 2.1455838558769673 5.625066926485376 13.487350309570772 0.40134406127040556 0.4142831379295769 -0.04800763822753022
Ni -0.022083742395849964 8.382956712870945 9.926103420744418 -0.05451715721127384 0.4539799422985666 1.5541768393896718
P 4.764706059659235 5.923133462173379 3.3392669784887605 -0.30954333711732496 -0.8738310612342242 0.5607331739964214
Ni 9.53048783701307 4.573487966015821 0.8468040418456702 -0.40882442880785075 -0.484586868551146 0.061614687488003576
P 3.424602921327045 5.978097072310359 9.526350033260222 -1.1595857805723837 -0.2674322668798878 0.9677385473176623
Ni 0.7806149466284119 2.0245192480925462 10.416550010654571 -0.42401604894662454 0.6855404349825097 -1.635491319299448
P 7.080540787563334 8.998647444746172 9.35938010020162 -0.6316547407076476 -1.470783879684312 0.9284248373197043
P 2.1100202579563807 3.0283215054364527 1.7785267222515475 -0.1611958269174514 1.1177073951710428 -1.0219206897870206
P 6.526499807702724 2.518403497911214 3.114341827290784 0.589222796795682 1.435795022313953 -0.5907652015821374
Ni 0.9666065360246179 7.709696537477854 3.7230997440928872 -0.37335323248443447 0.19358092811637628 0.49952446369758485
