# total energy = -340884.786307708 ev
CRYSTAL
PRIMVEC
9.13912452731109 0.00000000000000 0.00000000000000
0.00000000000000 9.13912452731109 0.00000000000000
0.00000000000000 0.00000000000000 13.37603254258685
PRIMCOORD
 96 1
Ni 6.031831166954839 2.2560385252728965 11.36778107959558 1.9871884069666876 -0.25985574008421053 1.411991492136452
Ni 4.635747680364888 0.4918146620758774 6.115535492364987 -0.6548430058986529 0.6652909407048543 -0.43842219706962554
Ni 3.003116239916849 2.0700756243300233 4.784753790525729 0.39132035848581637 -0.6529421893315142 0.1359113413190498
Ni 3.6118367520163672 4.665641755899788 5.027849926933727 0.9746093062955665 -0.20267389155658 -1.460972550020845
Ni 3.9692404854138967 2.880597139757612 2.711790202921775 0.08757125945276531 0.2395566235155423 0.9906491333672487
Ni 5.480851642085373 4.677083939504097 2.654821471693772 0.12843688731887556 0.03080053032062437 -0.6272890075397842
Ni 5.4991116124059864 3.160373151481819 0.5629974733037055 -0.6230633994942109 -0.643346318112963 -0.04225376646288852
Ni 5.946033068171092 8.209821570837322 12.520528070808849 -0.8944004007451435 -0.2512044921671158 -0.2923627115729804
Ni 2.4247558986907447 5.998217467836111 11.5426600506061 -0.18517110678612625 -1.1841668123458573 0.41574660984898076
Ni 1.062267832970953 0.4016471479716667 0.5541837018436453 -0.09404144055814126 -0.5985677283456917 -0.21498304794123624
Ni 8.146021344206588 9.11804946399148 6.827086689177445 0.5884774339892251 1.7798986139046509 1.5623696596131094
Ni 9.064311413198082 2.536883814538401 1.2460720727578052 -0.30243140866289203 0.3503850537240353 1.0513179120022151
Ni 0.857721436707791 0.44702564178195014 5.019744437605723 0.5460262068035499 0.32383455692901647 -0.3333360686615485
Ni 1.9106436011853205 7.151657204670151 0.3586941777465139 -0.4847480767193587 -2.2908997107832674 -0.32667588303255357
Ni 7.953487412903093 4.230783944190343 3.866904227324752 -0.5825101606621967 -0.306734149803304 -0.28157153449474737
Ni 7.477403011545855 3.8658495723823103 12.735092775112781 1.8397958044809153 -1.1014559663091867 -1.4719509034092197
Ni 8.275056639980738 7.693387935763612 9.312273219375198 0.14853545784096353 -0.6715091537004242 -0.0037057309863613593
Ni 6.970035387762459 1.2502778977535745 0.149796644411458 0.1759796700948453 -0.6213507876784783 0.03527862069663601
Ni 1.8279436655340497 6.869550716253373 9.306816248264868 -0.4049649458524445 -0.0667905752619882 -0.49550248702238536
Ni 0.09914670371382206 5.3062760900011 1.4333089676259503 0.010807117917833 -0.4667205297936866 -0.4116896661707877
Ni 6.476805989247327 2.0627826031509193 6.761530836771641 0.1117997929828268 0.3956369835832993 0.16995660382921698
Ni 3.5132621574827603 4.419625669282863 0.1312003543171707 -0.26573790989660045 3.06880985504845 1.084428578513255
Ni 6.130488013607007 5.838191401612909 4.767739482845105 0.6494498599075396 0.887629400569897 0.4434253067111718
Ni 5.222278398701418 3.5972141531610204 9.738487247336275 0.2576247938711627 -0.9059737074050397 -1.6199315171879778
P 0.33627316413912495 6.1682600142752255 12.552483018869923 0.2907550007662283 -1.5833835428606151 0.7524346257018977
P 4.167385839028131 6.410337138325491 12.86138907533884 0.38884824279624003 0.2777539605208701 -0.6651163628002028
P 2.435119665629472 8.321245774115065 1.9539438581332875 1.0265970122167674 2.4039616583079693 1.503714826084378
P 6.416213595240484 8.090016790590608 5.909678545679415 -1.027313835778134 0.7947860940849151 -1.715967876688961
P 4.604510153560154 1.1480202361332774 12.87223721586465 0.662891330124426 0.7735618945988161 0.25870002921321256
P 4.070392312995758 6.350018918047186 8.302382621591669 0.7097599696515067 2.6252403094499304 -0.7690277541738885
P 5.1036160089902785 1.2110253589512527 4.025637107461684 -1.0155723789714897 -0.0664892419714855 -0.9000246889104563
P -0.07616546178778764 6.11912808212126 3.8726554782370455 0.7758807725399798 0.5123159590352983 -1.6536600197886746
Ni 0.49909397456855464 7.611026147710871 2.3109500396244376 -0.9840779079076344 -0.45469008099171365 1.0753255877707222
Ni 2.150335413797308 6.486968695451794 4.632989492655798 -0.8857910618095778 0.22493193162383196 0.25960994262199166
Ni 6.296134641265233 6.002540273622723 9.223162188038286 -0.3409372780475742 1.0804611092250747 0.5227813773429965
Ni 8.725542354216834 2.763588931541984 10.575612753556308 -0.21272330537278206 -0.6293237785816258 0.10563763003617291
Ni 2.6358970870376677 5.4649587049544674 6.87791575671106 -1.8073363984006292 0.7771948633657131 1.4709227192550216
Ni 0.5953518010960173 0.4491614551272592 9.351933363120612 0.18988342466013103 0.8746221896769518 -0.4062589820735196
Ni 2.129562184298431 1.5470069850256993 12.047953093176893 -0.3292480146351039 -1.0900484958031937 -1.6600147583621088
Ni 4.436926031553595 7.541459133656559 1.3603156958773446 0.04984571987753351 -2.25218301093936 0.08027472579135207
Ni 5.6449537577395015 8.471630064218022 7.889237541357557 0.5406502872036172 -0.5116811536647768 1.5939150385195584
Ni 7.228663465892121 1.1031471358959317 4.696646235035265 -0.4324497815362746 -0.8030966708331395 -0.03578975600509965
Ni 0.8268604418235816 7.346174325943402 6.425324388239793 0.39868708326353275 1.0687690175991271 1.5334712314112042
Ni 5.426044313750675 5.078949512546166 7.1537025406850425 -0.7154621622426065 0.4062147590991455 -0.4365069823247837
Ni 0.9767530470400279 7.952034292141843 11.66171999222362 -0.6128856876302606 2.0712218284695236 -1.5510151538322385
Ni 4.427138029444797 0.7273490870508044 10.692920725048474 0.3744248682820584 -1.047614495008699 -0.5919643640965611
Ni 8.375075216151311 7.922569755448319 4.86118428691777 -1.5091272553492008 -0.6761445955899065 -2.2142918923205412
Ni 7.538845344111166 6.8265328582458 7.060672652854898 0.23671221208821167 -2.212709635435086 0.9458990828450679
Ni 2.356166770934884 5.900355724996703 2.4306387529927367 1.1509890400423082 -0.4479859294986607 -0.3766344743388675
Ni 3.369869297457516 4.782421486008301 9.348936644267694 -1.065562080626055 -0.8118242805141245 0.5029694848233919
Ni 1.3092618058863295 3.9329581620040672 3.9133593099757604 -0.18449207844123067 -0.09438442571985681 -0.009883834772615237
Ni 1.9107715489253048 1.41558637781327 2.668745841453776 -1.0456203473968058 -0.28796458250528467 0.756068108689427
Ni 1.0370164325726259 3.43961909399752 8.703088439762022 -0.47136162811012366 0.3620686607095506 -1.485407543134758
Ni 5.38417798540296 3.179949155699415 4.604405053630881 1.301355123334107 0.5735303257610896 1.0270788369491923
Ni 4.317450259781127 7.177703708881238 5.758702954235244 0.11492239777220851 -0.37555126857701776 0.6648623378078679
Ni 8.240373663320712 7.791076035241613 0.0454369842057048 0.11227030486134212 0.8793090536296599 1.1726068754224
P 0.29001183092294996 5.863323993395537 7.9746161543366405 0.28549169548475994 0.24057632302930826 1.4631168500573577
P 8.452840024688902 1.998827011407346 7.948907797724084 1.0721934698996438 -0.9324876945351683 1.6913192249023452
P 1.9512944260031846 3.926204349157754 10.728072538784298 -0.28855053691574173 -1.0728228759535265 0.6724180386679387
P 4.4169387667431925 6.388613439901017 3.5073427466836304 -1.0262252306996456 0.22511370861733487 0.5050952729171431
P 7.224989537929716 4.390435306317877 10.423647394952118 -0.2470364768323552 -0.00017406368401905506 0.6593393511071096
P 6.294809468243968 8.252428168252088 10.110300637993321 0.21503601266635872 -0.5217033137874694 0.6066417636030778
P 2.5211736598931878 8.559210292237266 6.255662943283347 0.5248392883132896 0.12056596921123107 -1.4187280395293373
P 7.412076551159593 4.079476602534642 1.4861303642536052 -1.1197519364048973 1.1650102940220646 0.6030825854969097
Ni 3.065938580249133 2.3127833479559268 0.7888782412968184 -0.4847357354241845 -2.053786149491579 -1.650895312559344
Ni 2.100636855937698 1.3049572783482868 7.134400710195985 -0.5854738712762111 1.5047085574562151 0.26693193020470163
Ni 6.906436221865985 1.1321272990023723 9.25154648024137 -0.8870383039531174 0.4346635013581417 -0.8955424847693867
Ni 2.9374699101806265 2.223969338158264 9.550233167935254 0.1054316846729539 -0.5637141110016163 -0.6156054005542688
Ni 6.806271419706859 2.3541104679708504 2.5558255635306457 -0.40705885226699573 -0.5586845189975088 0.34365519119936944
Ni 4.2702284046026415 7.162825214545922 10.403904144760114 0.46968424040770074 0.5579386419704196 -0.05651721836043815
Ni 7.595736392782748 6.3690008791862835 11.673610906830303 -1.054970164042822 0.2897548416364881 -1.4297791551371763
Ni 7.164780987142825 3.8197609686151144 8.289621662353092 1.2870201947686737 0.058528849473828234 -0.2188618141703521
Ni 3.2332850850242925 8.50794894412499 12.567464785309657 1.5243085910753296 0.7614635686733853 -0.8214481767571337
Ni 0.14238572852908254 5.212060857751244 10.38247655396246 0.5950859404446784 0.3091304179496224 -0.4402754482282804
Ni 8.947723604699545 2.463149359810315 5.965643801060969 0.5040660603216802 1.1416579924493693 -0.7830160980331805
Ni 3.881724231264646 3.1061415879770515 11.77973624584784 -0.3592810706620844 -0.17068294047228025 -0.8174837927927469
Ni 1.1734726972658651 3.522044855920253 12.918972869631196 0.21880730678333285 1.8848343327777926 -1.1840128032664963
Ni 3.2285144621477353 8.57588005493236 8.314768876734576 1.101584007246619 0.0035787184901938367 -0.7030902709408149
Ni 5.809960646697805 8.345272531859257 3.518605803451961 -0.2032765581375854 -0.6903414559155788 0.8789925508305056
Ni 3.161963359107338 8.602109341629138 4.104221695447603 0.45838629889637833 1.1236990939781033 -1.0055293929131908
Ni 3.758245523055527 3.333696643539102 7.231003081708977 -0.15820383416866302 -0.31414689732760737 -0.17304012785054715
Ni 5.52375983060153 5.031215866407742 11.641615746622374 -1.5014779663340592 -0.02446121836615787 -0.8673020018664547
Ni 8.29404774024412 0.3797909322450655 2.221973353414509 -0.3815370538468075 -0.19704291852304776 0.3395020882629443
Ni 4.523181086551572 0.6047952582192859 1.863482064227113 0.10296136875559041 1.4471274166076369 0.016025171783662726
Ni 6.24416044145876 5.576766751452162 0.2861697430737077 -0.5032546201639785 1.9920117964972597 1.9822200072178184
Ni 7.951577335927614 0.27979154823549107 11.176517486567644 0.3027345417256077 -0.18585579155797669 1.290266212509797
Ni 9.117510255658692 5.347895661993132 5.820727449017483 -0.38252384324010896 -2.8302672746197195 0.5574624736649496
Ni 7.115621637616006 6.508930011107667 2.535614390175271 1.2503932875742594 -0.24048299198455358 -0.11013268969304904
P 8.859759533460348 2.0732743178296307 3.6336792590565414 0.8707470229922617 -0.452523155247382 -0.2238574676127306
P 1.9073717946914366 3.8440893174606976 1.7848307606339167 0.28012683162842084 -0.24576763742226065 -0.6571711398111972
P 4.84704423382465 1.8124528498716665 8.195507874382795 -0.04442223486911704 -1.3928218611865368 1.36027349493687
P 9.061514841166996 1.7259875950151442 12.530185383440378 -0.643358145187505 -0.672846641564925 -0.057455928124623634
P 6.532115969417676 8.327926473967102 1.397607892520621 0.578647592382997 0.6244191421911568 -0.5480650916104496
P 1.937165339859206 3.4717248376092913 6.023213886666897 -0.5669115348929914 -0.09854241375228835 0.7884920335460872
P 6.893943038968949 4.1645527104999065 5.929956434642067 1.152292332234764 -0.6584397221109757 -0.014230798887401298
P 2.5130032827827624 8.934024057396941 10.255751628807456 -1.1449716302036343 0.11429299171832576 1.6320686667711444
