# total energy = -340866.3906870315 ev
CRYSTAL
PRIMVEC
9.35204783061194 0.00000000000000 0.00000000000000
0.00000000000000 9.35204783061194 0.00000000000000
0.00000000000000 0.00000000000000 13.68766731958296
PRIMCOORD
 96 1
Ni 2.4524716447685213 1.0577259503543124 9.675469597045257 -0.613516379235724 0.017548807517040743 1.1315705263063802
Ni 6.2783569630782425 3.3942134991705943 6.299529999139835 0.4736514525855649 0.1544381964786437 0.629362088018729
Ni 8.571703515714256 -0.02323890340523453 11.944268894798554 -0.37925725667369525 2.168983655302045 -0.8554661855737912
Ni 7.102057271027392 8.06964818535625 7.982989305472181 0.4080479556531424 0.46783587434505236 0.01603956996136592
Ni 2.298723980080986 4.3780208642639415 3.0379500464958844 0.620984148367679 -0.9460628621164416 1.5683587873170084
Ni 5.042221998171369 4.886501051412723 4.498205900056669 0.07183867920885692 1.2561325040508817 0.5878048334022328
Ni 7.13599585224096 3.3695989095442207 4.060473953988254 -0.24569281832026724 0.5565546171386996 -0.7455404696852257
Ni 1.092253710574895 0.2540904608107045 2.0807445811716185 -0.4121887172943933 1.8407034038968493 -0.08553160331491722
Ni 5.469161681158921 2.8924574343399603 13.322795332833959 -0.5445357383009526 0.41426771131060913 -1.1341747966984466
Ni 7.715981796336268 5.833713853737071 3.5111468279674676 -0.41263326103097975 0.7651376750908628 -1.338854662941462
Ni 2.9902050372179483 1.3555699664716248 0.4064699209152841 -1.271278872774017 0.48076235259873323 0.9165558537962603
Ni 2.6782300769800234 5.9774174191621725 11.82038231851414 0.42911120408134484 -0.6103685776353617 0.504333455050454
Ni 9.496817429251704 6.219878608620142 11.542686354027172 -0.5069660075772946 -0.49991244316462286 -1.2575957188599698
Ni 2.098936184416764 4.462535319603433 0.750780521385789 0.5575218661479753 -0.6604760358147141 -1.4357929654314239
Ni 5.589672168212666 8.252826744251308 12.020359025542517 1.015668795340038 1.058969772120518 0.40841433785362563
Ni 4.026047195883159 8.060155856909908 10.336282484059966 -1.1541872352646314 1.575017430284107 -1.1992087942806444
Ni 3.649234488730473 1.4872187423722592 11.879389063669006 0.7121747497405863 0.2298445384341009 -0.5989012004257105
Ni 4.40419724586129 2.7275247205668847 4.142544719255796 0.7528218338379873 -1.0431266344406744 -0.5239427446409494
Ni 4.096608396008916 6.335675663617774 6.718605545190906 -0.5021942972202641 -0.8658020202821605 -0.33495534943252636
Ni 8.342063983694645 1.5600431380487696 4.963600268106792 0.3704095764750782 0.17612030943776766 0.5861467289735195
Ni 2.8494754229711097 8.310192205029493 1.1979832861907667 0.04556406178304411 -0.6934056966631994 -1.128934374235114
Ni 7.290192415219554 2.8750532735137133 1.3038157343316723 -1.0031758050793498 1.2044744135549579 -1.6037160837703799
Ni 7.026717174511408 9.007808205477586 4.891014349647407 -0.9794278107301324 0.16020415242814343 -0.08095838212193798
Ni 9.139251236328152 7.555079815134989 1.941951776009743 -0.5421962915344984 0.2459306453626861 0.4482571808821764
P 4.6467800119397555 0.8913417987734807 9.987110689179206 -0.38933803794846494 -0.26295726182766965 -0.3069979449876519
P 0.3358441916601871 1.3296741463061876 9.15239553941321 0.8962351399610371 0.18750258313278031 0.572151443135692
P 5.76304978108628 5.743672338188921 2.6241855283508997 -0.48261894619149787 0.3745086862451163 -1.383414708940024
P 2.248475427625626 6.406021766645733 5.367660166321956 -0.25259648741863594 -0.05415308900363577 -0.2733314059731422
P 3.740557234817685 6.976197412671866 13.375957983362106 -0.22976432001546881 -0.03531744435437143 -0.08611652928410976
P 1.4745093095066655 3.7725599421510636 8.236239017191924 0.5155648049898991 -1.0010860124298566 -1.383806545061804
P 1.3009353036307136 6.205308118256203 1.9895162907664827 0.830660439384021 -0.9511521037138909 -0.2774721676143931
P 1.697078693442106 6.960682365487157 10.129982857561076 -0.9134946983724331 0.0901557323504899 0.6586587801003173
Ni 0.9047545056283993 7.074880220322893 13.430790909614903 1.252069903945734 0.8812060135420565 1.4793988750468328
Ni 0.06389506050353873 8.481783576786603 9.767615323332743 0.14418232307859039 -1.4028818165257002 -1.5846670375587288
Ni 5.198943614037167 1.3099880858337265 1.240541649797431 0.5872330200591628 -1.5520227691611463 1.7985784497023414
Ni 3.3054532141615076 5.9445823795807895 9.39138244313934 2.536565532520341 -2.198585794439194 -0.20924717389872352
Ni 4.450770443558609 1.7498710028801314 6.528715956844524 -0.996530274738374 -0.12540144292666144 -1.012995619383249
Ni 8.529469668163838 3.9014405119235045 7.937423323315424 -0.4976534719271171 -0.5972654645945004 0.05453258383024157
Ni 2.049931454309545 1.603876185761086 7.415252673494132 -2.039031359779908 1.8872110605400854 -1.298589130553196
Ni 5.511919243382243 4.647668456474142 8.75872483102173 0.021222142603569902 0.4867381105661939 -0.5910426236132402
Ni 8.312128078909682 0.06327501973901417 0.6664979968300103 -0.7321730472393841 -0.4993192896653142 -0.16133132405405118
Ni 1.4376622414489473 8.414121511457264 5.9053383816897735 -0.8839126138399422 0.16925546399713431 -0.33661628207471705
Ni 2.239226252420275 1.8223119645996964 4.335829100928308 -0.48201165162480214 0.005938476971622031 0.22317226862024792
Ni 6.943072459610841 4.784891052822086 11.959024555707558 0.9877070200197893 -0.0057906385398480914 -0.0927502325505435
Ni 8.280452693246867 1.6216263723533573 2.6800453094444916 0.9068568813409414 -2.0425180327769272 0.7843093629233072
Ni 8.422126864314473 7.244077467861024 5.435426974585875 1.5835087555845697 1.2094482126204653 -0.9324231598458199
Ni 0.9701346713115232 4.021389876113427 12.366492340115673 1.09782299754229 0.6883421660973629 -0.5944567915011116
Ni 9.148341426722087 4.435442437328508 1.799298445544764 0.6353833545121444 0.2455598922868287 -0.33443778636615945
Ni 4.78668664598632 7.5757197844759485 3.594230420004211 0.5905368876214151 -0.5676203880345578 0.4646819020971029
Ni 1.8038697264753765 8.724515975628753 11.214880247391251 1.0149018352670263 -0.026616059925631583 1.4672537550438667
Ni 4.690033232692787 4.191746777570126 11.324080367919867 1.423116655515336 0.4309883664993997 -1.7101692677293128
Ni 7.588139303861901 6.062595869890522 9.553115821383852 1.0790763130624061 -0.5924292195481216 -0.6662939280480719
Ni 3.451840817285229 6.028797569392909 2.013387392598291 2.0500184549190306 1.1527651581061245 -0.601405454904803
Ni 0.6241126461063579 5.217610301307016 9.444901406686016 -0.1250533155586233 -0.3157880324754561 0.047385431262499035
Ni 0.3975274928754897 3.3635107264717394 3.787555015481964 -0.7542171715236172 -1.0872951014277727 -0.4488120249443819
Ni 1.8616466773536968 7.824895744204336 3.5363459205769914 0.22143368866258636 -0.9551848790223679 0.5364601603816697
P 0.014191732430859754 8.166376415031626 7.459149315131015 -1.142193296127549 -0.6132682677806599 0.3946681919121267
P 6.498485462556053 1.1521348721925524 6.849760532971375 0.84992545826122 -0.31508766397432186 -0.14330249157679836
P 6.615769493142815 1.005803381355213 13.27269828355183 0.4553102310742158 -1.1538771602233806 1.1652928582594897
P 8.77271642963116 4.859174367944537 4.961286571498295 -0.21865895413092665 -0.999343318707137 1.4786522266887954
P 6.063315977565762 0.8163524040473858 3.348345445872147 -0.6926935010875231 0.8696537899280828 -1.0318685450283518
P 7.301770250309771 7.999274026185102 10.403858510550185 -0.769950523098474 -0.2431955058197102 1.3390711498276422
P 7.469368297686007 3.8642848262906835 9.838256951068981 -0.42868388673593916 0.1846239760334046 1.0238099363899336
P 3.260741073962535 9.321784503929813 5.303135713006162 0.795225752725495 1.4199595979435933 -0.4195127617596323
Ni 8.401982553503224 2.7115794791865775 11.689966142504371 -0.7636466923676333 -1.061006857155205 -2.2112998995717534
Ni 1.3288418140581835 1.6463905947434176 11.745647299486311 -0.4516299540091512 0.747560585439048 -1.1610808770606713
Ni 7.714756678083587 0.6248673563582 9.645493478455052 -0.7896978809287303 1.1888557331810945 -0.21533220375053883
Ni 7.942142366600177 7.387752977142934 12.70000600148145 -1.9141773047162842 -1.4663854935063003 1.1441272799254683
Ni 3.8253896597800106 2.6058732836900322 8.645746483210038 -0.20376121108348777 1.6411063514933801 -0.07376135015286651
Ni 6.969304953494572 8.094749081464604 2.33485561648733 -0.7505260958252752 0.5588099888317796 0.9513467362232003
Ni 6.137917262311046 2.2982470256467367 9.035584722441603 0.2629716600053729 -0.2680153930768675 -1.114620528715603
Ni 0.4591827379476011 5.618794444845086 6.701810202671906 0.9259208399509279 -0.5139974605027793 -0.21144983797699712
Ni 0.5911270385565157 3.0727275063908683 6.006531278951636 -0.6081695131015139 -0.17067497005248028 1.587976047327304
Ni 4.980292738100757 8.607297409376104 6.5755968369121724 1.1028266214044684 1.6016597154619834 -1.654942486045524
Ni 3.5528990450597733 0.18265577942692912 3.034665607332973 0.9149098335524048 1.3417862347659602 0.2849144828250513
Ni 8.796227477625349 1.0262750138370265 7.198207544153029 -0.4074558305950982 -0.31828328809348405 0.46258413902780976
Ni 2.555241297277726 4.26488914286947 5.695438216814686 0.29081079370482815 0.40195701226405617 -0.6685241029301713
Ni 5.535495755710544 6.345289568684611 10.60814744678704 0.09890596773929418 -0.4407408179004732 0.11202116496501353
Ni 6.169358846780602 1.5601553626215345 11.34559755933794 0.22006380489825325 0.3601806996582184 -0.44924731270958757
Ni 7.440713623440106 5.932639814629088 6.8668289552841015 -1.8292995329352817 -1.8760002794259303 0.8022996288531409
Ni 7.342900556228006 5.652471168722204 0.8151516011188044 0.06183425969797739 0.3525337246359219 0.271257554163249
Ni 0.18712699344682637 1.9858699273564056 0.09043430155282624 0.7047712581876636 0.2415109190284357 1.9013698685389708
Ni 1.8509853429410577 6.942202719171915 8.026461364142104 -0.6256136767198902 1.8928502611037334 -1.8112771282159321
Ni 3.0687622381531847 9.124316016102727 7.859964987988508 1.3425840480769071 -2.197431883340409 0.13464558723274878
Ni 2.528082950668687 3.484329831100588 10.581497851574534 -0.5042362673509574 0.3628248221492848 -0.853498006103827
Ni 5.209689116879379 5.245292362588956 13.682972617483834 -1.4702609173013066 1.3658713007396217 -0.8647722934660654
Ni 5.415331294422823 7.732946410919188 0.6407910880287271 0.5368854208445464 0.31605234188043635 0.8863677602486542
Ni 5.040865951250463 3.8129981965372504 1.778890406987517 -0.3739427864393172 -0.05210083446029737 1.5996339432812063
P 4.900089576764972 7.530006975169825 8.34690366839512 -0.2198362622684795 -1.0323516553123577 2.253979183607834
P 9.1802319094827 9.051407451996642 3.956379116315653 0.32523452260033664 -0.5683420966919309 -0.15132047678526842
P 8.54485378668032 3.847554012901024 13.408807986219859 -2.1285520296495597 2.461096455647749 1.3044728430274823
P 4.283134987991452 4.14791372985781 6.876410128183881 1.646184794457552 -1.3968160699475944 1.099055327287494
P 3.347144642943565 3.6189899663704064 12.703427915745996 -1.4517474318781511 -0.8530886864805501 1.2738659167749027
P 1.0479904686669814 9.40105246049256 13.07975712203102 0.5972132712003263 -1.199678534828211 2.7721408027906325
P 1.7033726215646554 2.495678105282902 1.944893930225722 -0.21224919394984093 -0.09700695094436841 0.7444819465137243
P 6.05645157453166 7.104647788248708 5.454357389601721 0.3391598744321772 -1.4622077079795268 -0.22569992013810808
