# total energy = -340871.23496507225 ev
CRYSTAL
PRIMVEC
9.23212666808636 0.00000000000000 0.00000000000000
0.00000000000000 9.23212666808636 0.00000000000000
0.00000000000000 0.00000000000000 13.51215057641202
PRIMCOORD
 96 1
Ni 5.009988936910915 8.550324864569577 2.052076490356434 -0.9039574483059593 0.8415801716203183 -0.3338513177350702
Ni 3.358426104151343 8.350301608575386 13.137782445036564 -1.0235793084363662 1.1214277814454234 -0.5086930175707303
Ni 6.650925591896588 6.234224323431997 6.347021523626377 1.201209369650441 2.013064503402501 -0.0563899487539545
Ni -0.25317168590432537 7.578929730606093 10.317878290131688 0.19210305801926916 0.4571912501470127 -0.7112252413431235
Ni 4.907438474085129 4.786128329906985 0.686875762019821 0.8156634517545565 0.5981468387581892 0.18877090832224264
Ni 3.781636021904031 5.7156926980203036 12.306745178955056 -0.4451906261417107 1.092060898247532 -0.7025727078744481
Ni 8.635740500333366 4.833784567673163 1.4413546946453406 -0.6799883948160289 -1.2100423945610388 -0.4236908043967219
Ni 5.000729113881183 1.5425683455322383 6.235722697587257 -0.7146440372166853 -0.24460447035209487 1.4849468014482556
Ni 3.131398877706537 3.561874479132604 1.2347553948385088 0.9424620321390607 -2.029860234803601 0.015880418675682326
Ni 9.017710508341473 6.325631609391495 7.582356696018492 0.17583543120749717 -0.20262581192746393 0.09781967665365089
Ni 5.3377294329782 6.994813077474343 8.773466288907489 0.5904134746696735 -0.019424684383514933 0.6913187322271835
Ni 1.395888317320491 8.797662769643903 4.192131454834637 0.3507990013330023 -0.2240559567767819 -0.32178667326105226
Ni 7.364495124911591 8.12537930700673 11.963712588305071 -0.19418128070453652 -0.14479244585876352 -0.3581587841321832
Ni 6.077407420158789 6.262373077587185 2.2746215193127703 -0.5821314371665394 1.832491300399702 -1.7707076914340023
Ni 1.0400452277312675 2.6753872139671717 10.885442663393043 0.07913855530437984 -0.8696735874224248 -0.9938061909389917
Ni 7.293010768262323 8.265652239323527 2.676770186539309 0.9525554118193208 -0.3607088042475465 -0.20399595280211322
Ni 7.908996722589124 3.826411836155476 10.51429086139315 -0.12050786227978602 0.06563075062593213 -0.2345648267279057
Ni 7.924968301693246 6.0326223737806925 3.829397505914016 0.2187851952961458 -1.044553339584872 0.6956230160294923
Ni 2.9740834395942404 5.814605702946075 9.489474949783364 1.564250935796222 -1.3393663124705577 -0.25327320177068635
Ni 6.844227859689738 4.578922479379263 12.868134182700372 0.3430234711526415 -0.47358948899937797 1.3130392445402548
Ni 0.111640414725162 1.5257381786496842 5.262387893814654 1.7478086753486417 -0.45146694606872567 -0.3561075580301093
Ni 2.663819359274994 2.8227596516776527 8.979485811160714 -0.29265761710557986 0.281234977090935 1.8883811695887864
Ni 3.568715484980093 1.5117976674085125 2.845347895951676 0.5818000219690497 -0.4194253442521486 -0.6252480658503555
Ni 2.9431188868108693 1.1133390812038921 7.39448384190808 -0.45538067930083503 -2.4246718942721275 -0.6599427890190634
P 4.740761659549953 5.576804584700972 7.269887983855278 -1.3767732923641063 1.5979701824255383 -0.9930086347383608
P 7.384251875942125 6.675852333851001 0.5461763054518031 2.0122697754153474 -0.3942444741111468 -0.2187188608345846
P 4.256536616768852 4.451740702651857 2.8541848875808475 -0.3613181556967713 0.21263074565897574 1.1399996309103397
P 6.707555456766355 2.257651947317805 5.3852001049987175 1.2404454323329284 1.3978226568352379 -2.727423662388916
P 4.358727026655296 1.1129328676313017 0.3752407108930819 -0.9159184773225774 -0.8807943799259348 -0.44415241468518346
P 0.30060635263090874 -0.2620613006554011 1.965721024099697 -0.09453226415163075 0.39076165776886895 0.2769918855438649
P 7.383762573229687 5.993718192078509 10.517331000698924 -0.9339763632655528 0.05883943873571156 -1.3963090484041887
P 1.3445946216542983 7.196101134819554 8.949989166514658 0.510158032152031 -0.1390606855813089 -0.9879893271468986
Ni 3.3400634042449253 6.75573792575157 3.5121724021008336 0.5553428562187855 -0.477724594213674 -0.3779292818908911
Ni 1.8532294072974251 1.626682251438408 -0.17811357302892722 1.5267112869795514 0.7971124282252466 2.7114897647674785
Ni 0.1898272953221715 6.779630669521208 2.24046357392124 0.20769911268531327 1.8033815275179392 1.2696953303369811
Ni 5.534346034238623 4.6243445424961935 11.071423854752913 -0.5135084366815027 2.178911455938718 -0.9130853787491566
Ni 8.601821667022064 6.064897888548333 12.169596398296544 0.6211255590415495 -0.9910839069118221 1.7601898226218136
Ni 3.2224276464733945 3.2864155162830384 6.845066136789538 1.9809915341273558 0.10459119104952955 -1.2276171702200083
Ni 8.242848886498564 2.948131931581701 6.810069914298206 1.5905142403681254 1.9506088080704407 0.47416670165908664
Ni 2.800870279391018 7.777734345882513 10.564596719507815 0.2284941950537936 0.3526748781994765 2.2325528954132583
Ni 3.2388423676567077 1.4925209869637663 11.422118187309554 0.17372558395334595 -0.585631737010314 -1.011500265784645
Ni 5.839467820013939 0.8590558472509329 3.7706876429100533 0.9897474474885858 0.28970959022084947 0.5272378704524532
Ni 4.8427304983968025 4.1852092062726305 8.766345549622512 -1.0026554137995054 -0.31031801049982044 1.1126528634662707
Ni 5.996063152247554 4.046995038198735 6.486778380063452 -0.337224090862045 -1.1075697925164087 -0.9755968670198166
Ni 4.2909447527925915 9.173705752342851 9.383594458875 -0.02498263808726665 0.03845676131430151 0.26629686772386396
Ni 0.5145821216309168 7.635319560182966 13.508110741339296 0.25233937710250737 1.7791751054750646 -0.2740924525088828
Ni 1.2001856965983977 6.343938916538014 4.683082101880105 -1.194847946208787 -0.6999586672903687 0.2103769166277925
Ni 5.805253558649845 2.4795091828387323 10.60555227975158 0.40381180608460776 -2.2068426351313475 -1.7877661895781858
Ni 8.985675028866728 3.5593725728105126 12.580379873578623 -0.26105361704705365 -0.28849962907314824 1.920354122950957
Ni 2.468735291038436 8.301869872170624 1.8409359074505747 -1.0040224693503612 0.8182268416063585 0.651885980152858
Ni 1.313260783804936 3.821306470118147 5.722287206086243 -0.30113043046328136 -0.9530745175475844 -1.8564596382898417
Ni 1.4612056133677034 0.23736813150522737 9.603207364407366 0.01009106568741488 0.36596748154332454 -0.09827861856794042
Ni 1.9071634911854556 5.880098409399633 0.9648043187482036 0.9985609320151577 -0.5521911979636813 -1.1420143473475233
Ni 5.21839496390311 0.10588141412102756 11.799877422352697 0.24596072726967316 0.2583339041230454 0.08533311415086595
Ni 6.537038077544869 2.7196829576328287 8.362561872766296 1.0833237754848504 -0.5746487556362491 -0.26075305508749935
Ni 0.3825645569643545 8.258460412663347 6.725267291743963 1.6886329363194337 1.6049988071375454 -0.21570989880493172
P 3.462970706333482 3.661230626137565 10.893469074302365 0.07151934819622521 0.4429661076865662 0.05705329336956626
P 7.25533445940456 0.9937091840760082 11.247730700596481 0.9047316074678224 -0.25914148762600525 0.2751592032105003
P 8.812452636536856 4.99280794921567 5.563330295855615 -1.0133925977113516 0.6621925042851886 0.21412661347821185
P 7.703074137665721 2.2737712404483257 0.46634241346047234 -1.825758866771875 2.144494154801113 1.196222972179443
P 2.6816835243423234 7.536452715890443 5.566748952354029 0.5296624207335459 0.26942435760925215 -0.13165745113870228
P 0.0008715127557394847 3.9496053341701765 8.743469262997015 -0.06890993559783616 -0.9136340521637748 -0.5350442538707496
P 1.4165405846360546 0.23870955950744083 11.83498166072583 0.22413617519541396 -1.3549559393786987 -1.3412110789887806
P 2.455902634995238 1.8843324419805432 4.7282253547722135 0.33253722690933696 0.11622646129561275 1.27042526652447
Ni 2.075575945530791 3.9075437651537666 12.6478861068545 0.6987602761068934 0.8206573054247221 -0.5160000927551048
Ni 6.679249756458121 0.47047286692358514 9.231744439739376 -1.85657662348368 -2.2539077069399505 -0.7801755432605919
Ni 1.773076083724012 4.635783147415275 2.962430649336885 0.6345024945690879 1.2321667372639038 2.7817443873186676
Ni 6.936678375960661 -0.014420581826960542 0.4611668832606042 -0.6626175076377492 0.8385568114129622 0.6681250677195397
Ni 8.505309015025237 1.609778227542656 9.295562438418663 2.7356092835235017 1.4318069842004824 -0.11824040640184796
Ni 8.427066741668328 3.4226632413805307 3.8177631799099605 0.35535268214195576 -0.08969061978861328 0.7090966250358949
Ni 5.57138532635755 5.613068378181319 4.380301583423173 -0.8509801247779796 -0.18291984885810433 0.6511107925497303
Ni 5.353654851449075 8.542219057371067 6.789274549019571 0.8317091923635096 -0.4828166640246007 -0.37132051832512175
Ni 0.8721396171390049 5.222457099629015 10.454931979885707 -0.4627350627833773 -0.5388538574248268 -1.0424774308924498
Ni 1.184546474053666 1.6620320643804258 3.009655746788518 -1.4457238513918909 0.3154674159112438 -1.3034294893646325
Ni 3.53655075573225 5.154905628932554 5.485365909510866 -1.0918516104502034 1.2540000310889112 0.16948403506817264
Ni 5.601906737061731 2.327428360536863 1.6715337691283823 0.27636993568914986 -0.847062020670496 -0.9414898980337785
Ni 8.945856866626215 1.0264555373027873 12.96292227343902 -1.0857904918577883 -1.878972731790693 -1.5473749859764898
Ni 4.565720538270074 3.1086601497681228 4.628641174239002 -0.1358259806940951 0.23803195934089977 -1.6356885229119187
Ni 3.1983410280441116 7.73919021711967 7.6173667666997975 -0.7062283023491643 -0.5426493199115171 0.44141084738430436
Ni 1.732297780311922 4.8577696327092985 7.696264521048841 -0.677099246193692 0.4667722089672283 0.9596326303810764
Ni 6.434672257252078 4.156931202344346 2.7455338354648857 1.2028379063927994 -1.5892212325883146 0.2638319511231392
Ni 4.90401335509806 2.8112379576187236 12.526871390729148 -0.7242972440357333 0.4496252648742966 3.113901605180766
Ni 7.607290823674226 0.7218793702124721 6.438053062031229 -0.2518765785334759 -2.177269549459921 1.6249490250072274
Ni 3.8711599540269734 9.234434681445123 4.750142423438797 -0.8468715019262446 -0.6149770229416506 0.20778035954520988
Ni 5.4819444833744555 7.302999929297388 13.401202714734811 0.018410641296703778 -0.41864424311174997 -0.5743139980046497
Ni 7.876471940401939 1.2802743952852624 2.3978122476894757 0.7744620378155823 0.9122734243708224 -0.04076715461503302
Ni 7.287877705845044 5.133514791485008 8.318714810455818 -1.183386482536407 -1.279150819322926 1.8031742966031397
Ni 8.343340585081448 8.169010337553603 4.836592980600027 -0.3438696212030207 0.43090480564665795 -9.667347886434964e-05
P 6.219102099979653 7.71711620230004 4.521557737228173 -0.6148530957692766 0.3371744685710322 0.27461001557524967
P 1.1213525671359035 3.371544956120684 1.568490310739498 -2.631338451927868 -1.402877702760642 -2.1552817323349207
P 1.631353707523198 6.072532857287704 12.208025125476263 0.15473387334219157 1.0165314004506494 1.134097149382976
P 3.920662617123108 6.7189571331788365 1.2375278024714387 -0.3822963006103352 0.3396416991646022 0.2140211982485991
P 5.23619450408389 7.157557006056711 11.09115106297817 -0.8192606821875116 0.09126619180584927 -0.09218304719316382
P 7.439376904167978 8.13551618206819 7.759744623892747 -0.3327043486148205 -0.7518399295406923 -0.16643830626331335
P 0.8424998745298776 0.9870528207615148 7.646742470486742 -1.8522432862156488 0.7655338820880171 -0.42818920648770775
P 4.6795895883684935 1.797716629752282 8.470996893118654 -0.22048006650006544 0.32037359496360956 0.09883757639520396
