# total energy = -340875.6896325596 ev
CRYSTAL
PRIMVEC
9.25556411989658 0.00000000000000 0.00000000000000

0.00000000000000 9.25556411989658 0.00000000000000

0.00000000000000 0.00000000000000 13.54645365622572

PRIMCOORD
 96 1
Ni 3.976319832917862 0.17306331062732608 3.83695140269885 0.4818928666587507 0.23756144746238442 0.668587609178255
Ni 0.5048965645383277 4.284076588434098 13.478531561626324 0.8235371980756786 -0.06165119715289382 -0.7808350312214617
Ni 5.688312233479724 3.501629726750795 13.317287606109948 -1.1714498789998211 -0.7271228864099865 2.04281473808174
Ni 5.267628342717826 4.244981086485266 10.91483846799339 0.4391734734133533 -0.3548562021215114 -0.20040309324453226
Ni 2.8617740826393887 3.4726875784094133 5.029540993408843 1.043487617324519 -0.1569535067013297 0.4324137860920165
Ni 3.010659083668956 1.2352660703349605 10.507252125718185 -0.418710320462995 0.9457342751324291 -0.9580220913608468
Ni 6.630500872657079 6.027047361397176 5.118744267244648 0.42543632633291895 0.8606577570770596 -0.18176362376647406
Ni 6.153496875512926 2.3714698401589507 2.444295393658948 -2.3951042079173397 -0.09795543090056678 -1.2633405917635467
Ni 7.466481915986223 1.4172859901563877 5.526885017797964 -0.8972859498230547 0.6535772518123517 0.33589765874113764
Ni 7.414613735843882 4.189151524990155 12.194639535186113 2.437661878773892 1.3671797351384003 -1.8159732481400208
Ni 5.388968785556171 7.25733393834945 3.114966512246783 -1.270286941174393 -0.6914660564383253 0.42663600306797494
Ni 3.0636934648637486 4.185930588750053 13.416949667162179 0.5599042503372229 0.3594715894063358 -0.23632937482749622
Ni 0.7363041733746608 3.935132573525746 10.79645517782376 -0.20120759142369862 -0.9160832850352157 0.39308104993066495
Ni 3.6154639072594765 5.263407805575622 9.53133898832801 -0.06720195176779394 1.1590692459472813 0.1185679649445958
Ni 8.450949971096875 5.971264077721607 0.9465692975751712 0.176716805371186 -0.3092026659484546 -0.38060760005400257
Ni 8.986689776803358 8.01870588101346 10.579197475090497 -0.6173246972382208 -0.319980730400565 0.21170720540344184
Ni 4.438700039086837 1.6664550261328264 6.410764529909163 1.7484558220143374 -0.3409635032998192 -0.9321390529464979
Ni 1.367379989562615 7.983636549364757 3.3446868317826257 -0.47991748809993473 -1.5372844345097072 -0.051111988184466814
Ni 5.419826835626578 5.769113306399539 12.891117017063184 0.11275367225566388 1.4043411746800458 0.2017480373082009
Ni 4.528988065012699 7.026074418535649 10.906628782806694 0.25701415687035734 -0.2558705301842174 0.35022538821771937
Ni 7.345650529162835 4.672652927997962 3.327171602642482 -1.2002801729679522 -0.1012040197448515 -2.5671894280537852
Ni 8.684125392639702 2.1282891540312088 12.71146374493312 0.525173788834573 -0.6831624216686363 -1.1631552430911969
Ni 9.21191466894892 5.380546222399581 7.366791162685876 1.3653010300584485 0.1843018168072955 -0.8746941805654678
Ni 5.16363282664371 0.08306498385179403 11.02799143899842 0.10110091850808395 0.49959028393851374 -0.33094134317712687
P 2.461193276686405 7.289543300750474 8.479741253746552 1.0563462184547423 0.2754772486715513 -0.5323453668823477
P 1.353792821745171 3.761812883778159 6.469515147373746 -0.1923082320515398 1.057412454935727 0.15468913614718519
P 6.252596198279529 4.9845561761451345 1.2937852987018352 0.15472744558428836 1.329233337801614 0.34582571648812704
P 4.908577252021566 4.997375132158186 5.943601048312358 -0.8162818020648458 0.8159997520480529 1.1144603489886549
P 1.4625919754877152 2.888078395266893 1.3238094224641013 -1.0564791444881807 -0.2931345567419984 -0.7137765470100675
P 3.118727047862742 6.787354914211726 3.1518129121658873 0.6518196456912967 -0.611828707120656 0.09134949554827494
P 3.2343197855140082 7.006008355982368 13.170634121538681 -1.2672705229455723 -1.2503601203434789 -0.1754209693778979
P 1.7699137195002586 9.224206057819197 5.133821580851334 0.66571825805026 0.8230692573003244 -0.19968986922759155
Ni 6.6371833897989 0.9465665209059988 13.079412209214466 -0.8076727202395961 -0.06869781958703007 0.3210647074933632
Ni 8.268837495636367 1.3491928064827257 1.4966117261892122 -0.3709417948294644 -1.0601411667208 0.7042567804450903
Ni 1.6361430543330107 5.391023520743822 4.2928573419139395 0.6777605339267747 1.6411289772011994 1.4747431214423763
Ni 3.6329569230462404 6.8288568627767265 5.323376455250542 1.0375751084948261 1.288766745146135 -1.6807141956929894
Ni 1.9926858872101094 3.843872713389507 8.797757801855182 -0.7882248959276297 -1.4637598829579954 -1.1797990222954648
Ni 4.767726080464438 8.352998338254906 13.194164541662856 2.773339965305056 0.17085828970787992 0.822380458763416
Ni 5.904003894799695 3.338907657678258 4.898424823970507 0.1413415111956856 -1.1956079643032635 0.7757853846126961
Ni 8.184935808807257 7.034728370789948 3.135204728288761 0.4126042075652572 -0.12964890534910575 0.6054760254297509
Ni 3.2224171303278824 8.774320862926482 6.883765495662958 -0.38219294226325146 -0.07844538589209715 -1.6228013825366052
Ni 1.352358209339378 7.31148824277715 6.378158103816469 -0.5822113984748554 0.17463986823749922 -0.16413125539669152
Ni 2.85507305436975 3.8652067881982326 2.564262310813296 -0.46152124498093416 1.712420782767651 -0.10124772849859338
Ni 1.1674968313980902 0.6841064951571829 0.7253474368199672 -1.4052305192635348 0.027778455664848933 0.3908755576389139
Ni 2.9534411875875946 8.69368639015702 1.6500254746391312 1.5480082486851146 -1.352255252618084 -0.6549682186226075
Ni 6.75911618872738 7.448442821928867 1.2658982846460045 -0.924131352150673 1.2131256614720527 -0.9241421507839503
Ni 6.515093246283978 7.69284524249251 9.583777311207106 0.5033091275509978 -0.6862721709422116 -0.29700766654415944
Ni 1.0177603184889552 9.124810557007526 8.752783165711774 0.5870484148521825 0.4057303632635593 0.22333244834719598
Ni 4.090764880644494 6.006518520648476 1.4424398361900852 1.7181769685251376 -0.4797935609275608 -0.5432859250542514
Ni 1.9132546377487303 2.2408368111566306 12.584560708185862 -0.5385193569035435 1.048350344733459 -0.5773671830086766
Ni 7.351666645703257 3.0869804636571336 9.4692286011647 0.027479693477507512 -0.90937733376995 -0.3614585379293775
Ni 2.7841754348318606 0.08040123255897359 12.804337775414973 0.037513166454109584 -0.5425935269729171 -1.2362285660381032
Ni 6.543470805226951 8.965670391167517 3.848926251283461 0.1454637608941753 1.422370264267615 -0.6262698222466505
Ni 8.846208827802563 2.818263676706279 7.2563334118909575 0.3734213667182085 -0.40066349026361314 1.2287638822299418
Ni 7.496303342898896 0.6524589454853936 10.584643448894166 0.7438502264669964 0.22342166562689264 -0.12357107458614204
Ni 4.78600581918341 5.047151554857242 3.80675697656067 -1.1259724633933124 -0.1655301926267472 -1.2896010681219727
P 4.2450181087409 2.6326988759079577 3.519260650439793 0.21665529343733655 -1.41011150150492 0.27427037284764383
P 3.8788309782713095 1.7817145634833929 8.46898536292867 -1.0888493332887699 -0.4672717743114662 0.4612201688007476
P 5.361387205109316 0.6583723252664325 1.2470919043406472 -0.5833773937584986 -0.7703606140526991 0.2617089912428654
P 6.689208914527683 7.800839162175029 11.790575860534423 -1.0630015189877307 0.4429511952882307 0.36845219563839127
P 8.826272343143998 6.634221609348232 5.179825435701352 0.5352820809131684 -1.3709744262941423 0.33025254464021836
P 5.333962969248902 8.879899080428924 5.59828891668164 -0.5044447838173377 0.04516399813114803 0.5243890881497485
P 3.1551106695864295 3.5899000397446397 11.162101783361102 -1.0190623944026191 0.16684402634216425 0.15444076758180497
P 6.4009073543467805 2.311586341671987 11.38320702401106 0.12286967764374324 0.5174352825397346 -0.1410625465026861
Ni 5.266952686552516 7.3532678582594 7.170381617656152 0.5518752093851592 -0.9369418736517799 -0.10128989459043845
Ni 3.4574806869080095 1.9115516139895954 1.229311040516334 1.0610004293973019 -0.5427701617600975 0.15897465089641652
Ni 4.505080943437455 3.8103120386578637 7.8455777814387755 1.1413283770240923 -0.5884044146594447 -0.5708784899605394
Ni 0.38930290133067047 4.551136629445359 2.7693017436311576 -0.8532025863505952 -1.369816658540615 -1.8301703655760093
Ni 2.0914705208038296 1.62449029937241 6.772752411033538 0.4023408779660361 1.2095978508244523 1.3664539127159692
Ni 1.0273861049536295 7.398944066147061 12.71968638790929 -0.007244597377555265 0.016892404879964455 0.5974780948259388
Ni 2.9155396533829396 5.5276171329031145 6.9791329750617175 -0.8102996163394818 -1.2622321891907167 1.310380466761169
Ni 0.6323808506990302 2.0719783032128642 4.874230779914105 -0.0690505749407585 1.2490280317956166 -0.21394380804344443
Ni 1.8665047844477016 1.0185840636767973 3.0679602798254932 -0.08132656409463412 1.251259749339613 0.17127275153747923
Ni 6.578540136875654 0.3234005096341125 8.161494242096603 0.08044364726904855 0.996654201910748 -1.0130784089050422
Ni 4.307641254144732 8.863720354717143 8.813647753973022 -0.06335018212187155 0.23201120706811657 1.7956975286101204
Ni 8.144007705204576 5.299134282261817 9.529103769644145 -1.5143188268524694 0.46919058860073387 0.47192752791592274
Ni 7.5041705722209855 8.154281381142834 6.005047811543441 0.030577358566224757 0.29829373234543466 1.1389637334466578
Ni 2.288521476412402 5.897867455928465 11.497850140805332 1.4367509584693192 -1.7763643754991472 1.4083670080099873
Ni 1.0408899726958984 6.225773574073158 9.681027372304822 -0.027276319217449798 -0.3783128904825549 -1.9112943267415343
Ni 1.7949222531805948 6.020799855759046 1.2186310453224998 -0.7356895450330749 0.22707186078497021 0.2713015200273069
Ni 6.940997275090182 4.915222746907754 7.247189840305907 -1.3542128905650872 -0.9384889064239256 0.8421141897469175
Ni 7.837491195252057 3.4323148086412316 0.882972466848181 -0.5978673598445575 1.787615008712302 1.0717178158148057
Ni 8.326582958860504 8.62222418122072 12.994354502453207 0.04943125804793422 -0.013914810308879262 1.0253605687065053
Ni 4.413145427135908 1.8759547151981173 12.452401436695055 -0.8274589017275878 -0.0203623657064359 -0.5834432139994274
Ni 8.333830065400734 3.952468244726068 5.187275239091175 0.9292925846366383 0.4880871683949208 0.49067832616086465
Ni 2.302738022575613 8.194219139407323 10.586228001435273 0.25169711553281815 -0.17116630786660197 0.09401033020988972
Ni 8.854797991109505 0.08015225788983923 4.151201861853177 0.1950325729612383 -0.10582943433200484 -1.3813611688451048
Ni 0.22164761669498784 0.3633105012068774 6.57202144321501 -1.8855182462186948 -0.6132122177317438 0.471874048970168
P 9.054810727168746 5.796759675793751 11.540900545212196 0.33768277566601845 -0.007128126404349015 0.5733171813090191
P 8.37066720975593 8.277047180823065 8.156495312029708 -0.5189743448920804 -0.22261228235171981 0.3796724898342429
P 0.685025572653281 0.44975376588521576 11.839748820466655 0.6703462437405745 -0.5921350853464706 -0.05329742587155983
P 8.97814689131596 8.61816098866496 1.8302748050848927 -0.264673473187828 -1.2474956543114901 -0.15886409346048122
P 0.4486523537801232 2.008753546154989 9.155844462792192 -0.1853870794516743 0.8659244047926377 0.30142559310619704
P 5.792391049629016 5.600754598906821 9.146972079229657 0.37970180041028156 -0.13591416953252722 -0.04411987313734982
P 7.878956121561424 2.2704083378437794 3.426724448040594 2.559373788664108 0.5901879889224289 2.893868396410132
P 6.702685015578227 2.5780910488487474 7.273117451482342 -1.2124816001301506 0.028209629664996575 0.0988630303165007
