# total energy = -340855.95123022725 ev
CRYSTAL
PRIMVEC
9.42944209430245 0.00000000000000 0.00000000000000
0.00000000000000 9.42944209430245 0.00000000000000
0.00000000000000 0.00000000000000 13.80094164762553
PRIMCOORD
 96 1
Ni 0.7455190309941234 4.0421754847145355 10.986887864130624 -0.22958537123544331 0.27585622927752496 -0.48983860386838857
Ni 7.3884958665775144 8.536436137339459 11.063510566990692 -1.0029678028336018 1.5584839514054578 1.932278128082053
Ni 2.92712510769678 8.760621121217932 12.306464724316449 0.2492941625182803 0.6700050583510718 0.5623316288317928
Ni 7.325431758389113 1.6068523546903362 11.77053295801921 -1.117659572652243 -0.0674804022401612 -0.5181942721929462
Ni 4.315252125434643 2.6128700937023384 10.701429423102175 -0.14683801553388262 -0.8957191195565671 -0.4589249450086677
Ni 9.288679303433634 3.1375808240031366 4.296646893397183 1.1079359176065757 -0.9973926227386694 3.2066973462572648
Ni 1.1404910115710305 8.41028906207863 10.588882432057872 0.06328076233651683 -0.9966238628934448 -0.6512339483911558
Ni 7.459112957818982 4.0684459101650265 5.296097968990764 0.7215880726346863 0.38918505731036845 2.2002642105828816
Ni 6.511359741010348 8.637378314097358 5.899488906399044 -1.2431132089730785 0.6745677380210898 -0.3631012157391231
Ni 2.222830654242858 2.328195239305237 8.42042382635508 1.4548417545327588 1.5767189863562459 -2.4750128086185246
Ni 3.1704329999792713 3.659217556207431 3.116210879567226 -0.2102195651143218 0.49255111770354526 -0.08042127867154536
Ni 8.395173666530484 8.40364130545889 9.103336077098472 0.7790751111075614 1.4570097087183553 -0.4757546149714967
Ni 2.6967826981832856 -0.010081016456970555 7.3350761916808445 -0.2522933543559203 0.37698851524417654 -2.5532075119523965
Ni 2.74213831426974 3.403811689821214 12.38208036276944 -1.3083492952637532 -0.2779755896133729 -0.782645087847007
Ni 5.635241995180673 2.5898999729566827 8.542548301652815 -0.35697299135419813 -0.15205581228939619 -0.09278802776701439
Ni 0.8350336669754789 7.370099025208559 2.0260193405304934 0.38814247497846704 0.5600209784207453 -0.7834534426809152
Ni 7.1053957289967205 6.437527210042169 11.999697630225178 -2.1463911147135097 -0.5707440212652041 -0.08750286810867511
Ni 6.129995388203578 2.1108843186548363 5.773582281909567 1.1434857896867274 -1.338798870002862 0.39624504948094336
Ni 9.17628035462895 5.348341792468311 2.9056222081284746 -0.6353879824978348 0.2516086695840699 0.029791372329819654
Ni 4.730534181165108 1.0665453272986865 13.28406872570822 0.33302702206156193 0.9509878102218847 -1.4769298446810497
Ni 7.94782207851103 6.465362922866953 0.21806150423470047 1.3378280214491605 0.46963384678573955 2.089124676891873
Ni 9.291743872088125 6.239263762259677 12.059290760808294 3.2250995029135363 0.1916135199773603 -0.8709653096506549
Ni 5.243288378992387 3.683290921668703 4.549590732473593 0.5325142883600442 2.7344039503614908 -1.8811026336495023
Ni 3.903609834321511 7.3349743537070955 6.13177189507898 -0.29303171261554695 1.3924531649932084 0.3621817892486472
P 0.028262866548010333 8.080202014942993 13.43586482619083 1.36159247085861 -0.9333076193333023 0.5333900060967782
P 2.5438371487191924 5.941463124579344 12.502852656082394 0.3377568234370634 -1.0047588332957536 -0.40019246416446563
P 7.30308398081637 0.37985564208455885 1.8139955080172394 -2.544876880599514 0.558696860292683 0.8037697856407641
P 4.775135441890458 1.2556244985597222 7.0362034264435405 -1.4061705145793009 -2.220432200890324 1.2307593153934158
P 8.081786161201313 3.776698974257563 8.791669444936824 0.06482522400550127 2.538771024812092 -1.0663904900646215
P 1.9633324100226455 8.731823605307738 5.163567161486582 0.5813212825604183 -0.5753961753252348 -0.08265659575996732
P 5.714637896937002 6.3241664581520745 0.24300426424964622 -0.9701111613148968 1.1847249988421726 0.2665182397060507
P 7.526514609333738 6.685474387795457 10.027902295995133 -0.9924977565402132 -1.5999417043296122 -1.3082215114366373
Ni 3.105728168880467 2.4534370881327394 0.716492379642994 -0.8754395433719245 0.2727184549794916 0.5593483778337528
Ni 6.716629264209105 3.4939382965892665 10.573329510400285 -1.100804448768117 1.7972913554598016 0.3782056754807293
Ni 7.894309995082626 4.311320048114882 12.518544190537584 0.7212957382052481 -0.4490390533535234 -0.528635007910296
Ni 4.833465970187922 6.621457905963662 11.785009980343021 -0.16551785133157298 1.62921319960022 2.8222739720015975
Ni 6.2051480410536906 6.285845205807926 5.743592884528827 -0.3634177185382773 -0.6527439572777791 -0.9588330172979164
Ni 8.621140814949566 9.06765318262979 6.780940887575934 -0.11614135778097417 0.22402381798726578 0.20510641225747256
Ni 5.216980235773842 0.5177461444293939 10.716403377020116 -0.9875069881938413 -0.5807070460151871 0.52864272121978
Ni 4.743923988824727 8.717858601685277 8.309022512515456 1.4804962218760696 0.5105426691849594 -0.8725295688139811
Ni 4.29982555830004 4.643330701421339 13.584321961256347 -0.0765823645414294 0.9022898307955493 1.041300379865213
Ni 5.998171788850432 0.6522825942499147 3.8041471370155797 0.5301959246395126 -0.9378782694231204 -1.2953238295383627
Ni 0.7287676272565795 7.1830943311905635 6.754332888101348 1.1930700283727582 -0.5912688806914332 -1.6978423707328434
Ni 4.184173452000588 4.853164074554783 10.90406907492328 -1.7030187727274608 -1.285359262126483 -0.8438625398965919
Ni 1.4560001413533097 6.626427221904942 4.453495288910795 0.5423577568130272 -0.1811031073643397 -0.7023639342977517
Ni 7.646400535097393 2.9780723828974276 2.7295085196364353 -0.31522958886882485 -1.118649447369338 -1.466083131774533
Ni 3.6897312305641394 7.74469303864941 10.217761282110711 -0.6776618035653814 0.8858347705633197 1.8153268728052736
Ni 6.885350270162313 7.071081989508444 7.828681078666468 -0.6146926589320124 1.3918139887473127 -0.053516740971217516
Ni 0.7743042886296991 3.247971301658879 2.335988673129656 1.1276627066115417 -0.9891823190137351 -1.7036358374861693
Ni 2.1302241042251726 9.479889528589792 1.2449060518226178 1.7970609846165502 -1.6629324462295363 -2.2422526391995254
Ni 7.818044668074883 7.461715483814795 2.6055764203046516 -0.7306900349359545 0.5941171487735059 -0.027630617233074996
Ni 2.9057108448834046 0.41732164403805344 9.460835455112477 0.06336535163052312 0.23996182937376095 2.9730797139339766
Ni 0.9008898329441704 1.1633385495705062 6.194096735013498 0.3528150033217666 0.24353977653300637 -0.6605698810801011
Ni 4.022203926529273 1.862616539873078 4.333702714623077 -0.9280083186075759 -1.8656312774867805 -0.2640571797600678
Ni 6.40367551321257 4.83985913187329 7.633052216982634 -0.22461414327309703 -1.4259219861746153 0.055909409573110164
Ni 7.334380298860225 2.418746170963911 13.848692398165097 1.1614251477739674 -1.3895604168264455 0.637349991320212
P 7.051525326771791 4.844328687387838 3.4410023520679056 -1.3552073932678725 1.1584516669679406 -1.071636054734277
P 8.18652840309078 1.6018547504230138 5.859465639771402 0.27418989731869553 0.2164352070067305 -0.6888553582883556
P 9.440945933072733 5.352207863693976 5.817663037435754 -0.885159855983482 -0.45056834551385627 -0.817707735878095
P 4.236393701873101 5.296461002508296 6.959676903892015 0.0038376285785353265 1.1144024991675259 0.4287967581647196
P 5.480193680147498 8.567411854354845 12.4295557174206 0.15422890868131503 0.858638926874818 0.493700143706324
P 6.552736132566971 9.399984436964717 9.264640826907813 0.34957129957348826 0.9697074981185749 -1.5589441788713279
P 1.4165284970834764 6.060094934555161 9.883309346266877 -0.36001692038684446 0.45212643402959557 0.8353444751232517
P 1.6892845367751146 1.0353998803270525 13.278796724678296 0.3478679437291364 0.3152897526827989 -1.0721816428251019
Ni -0.2144028807333399 0.43162799346141495 11.876497255593668 2.9576502667527835 0.7961053271169709 -0.3486798981074705
Ni 2.2107798273492016 4.752674511013548 8.394656933108125 0.8305377977632278 0.38910303911952343 1.2703406772304637
Ni 7.7227035798731904 9.118251568475927 13.31214017458335 -3.4503916460902637 0.5142008347628371 2.612245182741843
Ni 5.0799044372190005 6.271088129056305 9.23683245946487 0.7941489747215483 -0.6944711618132362 -0.8595133590599714
Ni 1.8784674318983026 4.403049660025283 6.262853397345639 1.7650522929204375 0.3997270944922729 -3.061408163267741
Ni 8.563922960809732 7.424535193954319 4.8874929011502815 -0.29921470149780727 -3.3321363272900806 1.2563857577122683
Ni 8.974254559482944 6.217962652750466 8.543776015003013 1.0414369054430774 -2.627660488855649 -0.013332198332531877
Ni 3.651287395473812 8.28897929057089 3.5840356720870754 0.3008794907947399 0.1355488157733085 -0.08921753680693667
Ni 2.8129157060254424 7.25467322551744 8.315398701205199 -1.234904190799725 -1.5521148146543204 -0.8097406585122183
Ni 5.5909047588317105 2.3098926923564203 1.4075856142775736 -1.1695254082835986 -0.15347866077885178 1.7685425654618834
Ni 3.9586589167981683 5.6772030121421535 4.609583671398093 -1.0005327110295479 -0.5227790633501512 0.48016045734867635
Ni 1.5638069518972666 4.7697040832905 0.6073381018352627 0.43606320991914577 0.1262596771618987 -2.972924419303035
Ni 1.3680705945744767 0.3125643150413646 3.152715078435311 -0.07502530446695466 0.69607013086924 4.508070981534133
Ni 0.33018417038838094 3.2733176417920165 7.279941301281862 -2.4270743330660327 -0.41603971560936737 0.9456319452266102
Ni 7.800496476487171 1.9184671249209095 9.424345400407411 -0.5879048493152068 -3.427228320599923 0.2158680216493508
Ni 6.709387452742494 4.529253311938195 0.7906191092020033 -0.948874620533624 -0.39830810265755917 1.7585754269468425
Ni 4.566707055617071 5.773383320683076 2.4711276642948596 0.4883453071523138 0.24643586713387883 -1.6204524226884545
Ni 9.246520268189864 0.5315631058122383 1.5085673946919307 1.0758724614131276 0.3131770772151703 -1.4391875929352698
Ni 3.061164625923173 7.142792896023514 0.40989030078696514 -1.322183372933368 -2.0374012803756525 0.6465085178910285
Ni 0.35609156232134004 2.7214406890494143 13.291755606837881 0.3829223642301083 -0.5025704496127602 -0.6926608480773748
Ni 4.525528682342737 8.648193884087204 0.8965060853519473 2.108687429515149 -0.7708388392406983 0.12310724757584605
Ni 0.3740282469200206 1.1447248310352338 8.877414190001055 0.7099725998829449 -0.9885608833796522 0.17111231470021498
Ni 8.508345829580302 -0.032978530499119654 4.205036092456156 -0.2838595591979757 3.148347702673778 -1.1296365425084611
Ni 4.002270086112066 3.198947632629051 6.6531163145808465 -0.470534504223138 0.12711251208049723 -0.02248018338038709
P 2.0598993256861338 2.318831803385518 10.444718521941246 0.28991502136343617 0.1635679266940538 0.8974355880270416
P 8.874792805121213 4.15664891076226 0.766987041626978 -1.1111659945080994 0.22656252524871948 0.742875778368869
P 1.9043889679942825 2.288648159499293 4.6152696249324245 0.21319201747908445 0.9774264640293877 -0.6409821887561605
P 0.8407846836597053 8.527996786737095 8.290777485162923 1.9505257614383311 1.1381605208190722 1.0429446003368554
P 3.990973614579515 0.930070184200125 1.9981138498348066 0.2986410883825244 0.4674733487993111 1.6086353754488685
P 5.485559032653359 3.2730536174156293 12.512498975262528 0.6582615446618986 -1.1681912628532076 -0.06805915756176666
P 5.9872242066723915 7.579564650103465 3.9533077084553274 -0.6868648102208881 0.5467219473189939 -0.00036921041396065446
P 2.0152226294246742 5.4251257387868135 2.4323057085797783 1.321077284353383 1.3102706806561821 2.757466488607909
