# total energy = -340893.52764163964 ev
CRYSTAL
PRIMVEC
9.03512118963360 0.00000000000000 0.00000000000000

0.00000000000000 9.03512118963360 0.00000000000000

0.00000000000000 0.00000000000000 13.22381314507864

PRIMCOORD
 96 1
Ni 6.434072569441887 1.9500231428568497 11.50957098043048 0.42047795388637904 0.3805219823187317 0.20253865153029638
Ni 4.794017335891982 0.3042667477138971 5.965857219637716 -0.5074372907867584 -0.31149171909294743 0.1775750396064232
Ni 2.926819150758534 1.6886912919577894 4.838381588909702 -0.11365304414148167 -1.512476374327092 -0.7087842360017986
Ni 3.423588194671276 4.112326462621231 4.689997790426946 -0.7726900335168241 0.8066342516727527 0.4355842134001982
Ni 4.944632809356486 4.554902848475178 2.698663362067891 0.6901486231784824 -0.18099075015619154 -0.6601651894425147
Ni 7.165863190784665 6.058961434959232 2.6691212256799552 0.3118344471443468 0.12860503746562368 -0.7673958749974203
Ni 4.953297490763353 4.6430585278149 11.803443724504692 0.49186797559359163 -0.41679484860783705 -1.914339027105129
Ni 5.562526690537684 7.892431511967725 12.580276232968961 -0.5372494890521844 0.7110853733311495 -0.3228824774283923
Ni 1.7027860813161952 6.600201346322021 0.48251704344226126 1.372597820830178 0.19235219791559774 -0.8354997697541934
Ni 2.95305714325649 1.4665357273779904 0.5144010832928245 -1.4786427136070985 0.42698824420107107 -0.1449359134151633
Ni 0.4011241524581586 9.06294955745504 4.634550154007971 0.7258093098048854 -0.3946105992013139 0.2713280023898682
Ni 8.768052230615929 2.198841350639633 1.2204108892796564 0.38311262586404343 1.3993882015501449 0.9749795451507919
Ni 6.877471151341742 0.8072149111408785 4.707109406815333 -0.07793707879711093 -0.37585260186752045 -1.0766111393513653
Ni 0.7427366708990013 7.331323368682413 2.539898209115385 0.3613724059734744 -0.25765564710909816 0.5017595236756907
Ni 7.694562353667027 3.560117913898759 3.708049956312336 -0.07690323821595788 2.085173148443293 -0.06972626085154443
Ni 7.5014185638499455 4.096243946558434 12.715476885840916 -0.07853048940673572 -0.5161589869304722 -0.5843664971446452
Ni 8.032177734407767 9.030405050231336 6.511762867682993 0.02042252952040999 -1.0562220341720518 1.1345604621726395
Ni 6.973433175556889 0.5884249292764684 0.34409446628491597 -0.4059795031598879 0.2627389751692765 0.21986634417546652
Ni 2.032432484996607 6.458774591304632 9.257674493514248 0.1283623253271983 -0.6427516219517576 -1.2619930765967167
Ni 9.063943420807234 4.9579054026689855 1.2259747170276734 0.03974874065284767 -0.518581480329036 1.1670916020311253
Ni 6.5855373443164495 1.9965449828609731 6.932240250144809 -0.5554467287865016 -0.19876864296490285 0.9924969852092649
Ni 3.5609039694591313 4.41358451491439 0.6123273428967652 -0.12075983038959201 -0.11903282039615627 -1.2184702136134176
Ni 6.056856251676855 5.306408104676956 4.665771015948978 -0.012985870736706668 0.2712925211662425 1.3635976742140967
Ni 5.23337721853337 2.694381618044206 9.49792469568897 0.04440783669141384 1.177283454962463 -0.112144063696123
P 0.22836630701888094 5.559156590261604 12.332329914399695 -0.1868682919828911 1.0330152570382856 0.7831641935752706
P 3.8599303467705437 6.401229903212524 12.731622647753397 -0.27214689874673775 -0.46444227528247106 0.2950096622775242
P 2.484775837066219 8.46247539030141 1.4888425385619448 0.254230166367317 0.17365616416799126 0.02251720726590961
P 6.4132556497740865 7.646757526426432 6.0575646051933285 -0.211683551254358 -0.2838400188139499 -0.6246505414756726
P 4.627780137555243 1.10254682731854 12.490421047296984 0.7997141275141517 -1.131096414883439 0.25785182228030434
P 4.175075380630288 6.034774415015352 8.253630366543922 -1.262459474710174 0.6531306511932365 -0.5251395931625279
P 4.902230984703282 1.1924824255708302 3.841252943846379 -0.7550594649192545 -0.9943391806243262 -1.113386913418818
P 0.12690460441754023 5.449009425474213 3.5861002124615586 0.9344394189449003 -0.24656210829909794 -0.586797475183641
Ni 1.5693102331163675 0.9673452709344457 2.810510033187534 -0.30178991842415126 0.23860711511807936 -1.7227154798254394
Ni 1.7613969137315668 6.348284091904666 4.840748790712204 0.8848862906071211 0.5966417149675725 -0.8024101862890762
Ni 6.060940126542239 5.733200133473767 9.315065584542834 -0.810375720993056 -0.38019725198946136 0.8235410547304204
Ni 8.58755761073588 2.573184499804682 10.429489078920108 0.09255045783491157 -0.7809561301803583 -0.38871325988027244
Ni 2.223895742236338 5.018919577372393 6.915842408345725 0.38655996098269557 0.5411300550535132 0.5096630947934835
Ni 0.5533767899173705 -0.10459417918503262 9.026389842288467 -0.722415453631988 0.05802748435737748 -0.5273867373254917
Ni 1.2693261329382937 0.8948926325594089 11.137373672594036 0.03379715105510308 1.5362608783411995 0.8606058207932017
Ni 4.243977216301572 6.8822236251895115 1.8275312917230566 -0.7491662393632711 0.14957341218717465 -0.3900818580930249
Ni 5.59075240974003 8.083271345831989 8.093873157263499 0.10167324607178618 -0.40868996011251557 0.0273195137505594
Ni 5.40695997055497 2.8790866044890095 5.012975371014127 0.14932607206305895 0.4526103156445495 -0.19866014241149657
Ni 0.7307533894079412 7.395825100239888 6.912523808261531 -0.14399694654066167 -0.2350001144931114 0.21748061755210932
Ni 4.945111670789816 4.635532271702367 6.7656597171954935 -0.1408846261639251 -0.6096306710280727 0.49735625240167247
Ni 8.007322115481502 7.263090131993515 9.086465267880119 -0.10422635151094309 -0.15979431858423448 -0.05884226694918898
Ni 4.756422195814849 0.4346607160097812 10.367469295206707 -1.8579336517322067 -0.2741384752554698 0.11294213411738614
Ni 8.059463800986219 6.99837914569699 4.641796321357612 0.08796206713328077 1.1303582511658339 1.2488940773209136
Ni 7.059709549648824 5.781700665060897 7.232513474207158 0.6769964020672404 1.1472048904095276 -1.2444730654350826
Ni 2.3899703083881714 5.117158452176206 2.4723371854574254 -1.1235828801152132 1.1285214550674112 1.1660567330087077
Ni 2.364961092398384 5.332004603556678 11.547562762336355 -0.17864461852151814 -0.5441819545059596 0.09675009773855595
Ni 1.2493856200447024 3.2394704911164065 3.535849577862426 -1.286397216472694 0.6027845946405167 0.7477948129370411
Ni 3.4591685026798675 2.7548536854645977 2.549551332801616 0.968203916989855 -0.9244226581388466 0.42099474562179756
Ni 1.183618971493525 3.1200894322749844 8.097813373698882 -1.46480555061369 1.696905203630555 1.508547728696647
Ni 3.375214154783516 2.7519895519859987 6.902751420973036 1.5646157753348087 0.01677104881075176 1.221553994745064
Ni 3.975236565867965 6.853401587975848 6.065511897962337 0.5736359981010185 -0.12386752278063831 -0.35545835448188456
Ni 0.7781552502348265 7.258382833752663 11.149115716344154 -0.5776050100510955 1.0627796327849115 0.36562655326413807
P 0.1508946587152579 5.600022444279597 8.039708508080992 0.5966651120063402 -0.36083093164770763 0.26721989375876565
P 8.436490381202196 1.444896611664284 8.006900175312888 0.3721805523325719 1.8011107292058917 0.9560379710512825
P 1.7234855444060082 3.1133221263586726 10.314322904204133 0.6987620758791062 0.07903956783267031 0.041624874629637994
P 3.936132560519772 6.09289735087601 3.9450601639589014 -0.4846915124498104 0.03136077369946857 -0.2764200722007949
P 6.828455617835746 4.040994179297759 10.579553409980214 -0.59427758561077 0.2154849272783192 0.20032904547348726
P 6.18944665798109 7.891473789101065 10.333709564156909 0.9249805875248456 -0.7956859801913652 -0.46710413838535036
P 2.3225231272596454 8.407984573236957 5.744318753848416 -0.11591021560677456 0.7765569726713981 -0.26802387771729974
P 6.887427855106461 4.235628764143132 1.6150378859508727 -0.37616499090161665 -2.186018756407461 0.021020053895092834
Ni 5.433252173781227 2.8181808512422055 0.3150890161071655 -0.33598944712399553 0.5520752412111074 1.031666970540507
Ni 1.3164352558323504 1.1506769189289427 6.999034191997302 0.6640745517992499 -1.9323637458173237 -1.4965774437086483
Ni 6.880606338461848 0.7952740947203212 9.388007926496861 0.4951314768362117 0.3423976646431845 -1.5073688778971974
Ni 2.7741165642544194 1.487488173866544 9.009158962297816 0.27821470220737243 -0.08745813091366873 0.8958777566216185
Ni 6.510871101202432 1.900022781120043 2.4562311780790314 -0.23020963508300352 0.6900331806465407 -0.24475899365208814
Ni 4.238077282038086 6.887075485372502 10.576921479121173 -0.6391302231490863 0.22690293930727376 -0.4335170464585243
Ni 8.180010390486125 7.3498905431256984 0.26156315000648045 -0.4733724878925654 -0.6734392808436015 0.37918629422644373
Ni 7.528361295815822 3.786285072372873 8.564561419790357 0.4325875926657195 -0.5034927043167134 -1.1669599615492676
Ni 2.9022165152310087 8.48844232915786 12.225560981497631 0.7201441410993081 -0.45829811005794624 0.21016788594077995
Ni 0.15732676162823814 4.947171678465276 10.18074947669336 0.12431489473070205 -0.3161819254797651 -0.35779291615233216
Ni 8.586256553256643 2.3439273298173786 5.6434208428214125 0.7012514179598632 -0.10886385028295445 -0.13878660598431583
Ni 3.613506446154413 2.745448124104277 11.485926971281756 -0.9951027982632282 -0.31316139348588645 -0.2217782164861987
Ni 0.8093688840787272 3.4766695327998884 12.443992269043113 1.2792446645883129 -1.0164264994416687 0.10351184194242175
Ni 3.133425271437168 8.305345594319334 7.834157689579961 -0.20573916074546506 0.19302634116448691 0.5621526800517673
Ni 5.5648216113691165 7.60675000893988 3.9912115639862966 0.20193392806676191 0.8466079638522129 -0.31481949791459973
Ni 3.2399674227925037 8.51894489894887 3.606094032571313 0.38904210397460093 -0.6628216532287553 0.8851048343758305
Ni 3.4783952409841548 4.399769814318876 9.564519864871022 0.0007582183222632103 -0.2040913407293969 -0.620552460146899
Ni 7.373914930884673 6.318992228379056 11.370376803906977 -0.4782997499908537 -0.7766724152033398 0.2145945542535659
Ni 0.7144115653614355 0.0821816570808904 0.3299165538097809 0.27133854391282947 -0.4447399117575373 0.08073238215406096
Ni 4.796754977671211 0.4252289527974479 1.6551980969888078 -0.4420636504769548 -0.6697114383700531 0.19831124371251008
Ni 5.887628428162148 5.685476622325625 0.34218444162442424 0.40672306619413184 1.22741251040837 1.4824574593674986
Ni 7.885402187531289 8.867528917049293 11.321197734703938 0.8293520049852426 -0.645017792278115 0.36571114255814435
Ni 0.031632863476099456 4.930167580021354 5.77937502481676 -0.12501012102551373 -0.716572878808282 0.1689721284287606
Ni 7.937589048642926 8.73778457398089 2.4672856490918584 -0.02088172854501565 0.29991095623388353 0.6904229598857916
P 8.552627831466907 1.6611793473447467 3.37326256856466 0.10506530247247066 -1.445402720607046 0.7913734688589403
P 1.7444560611373288 3.2374014483195634 1.3485514983024722 0.2987801850635499 0.12664354286387866 -0.6445089709624965
P 4.8056093966271325 1.2624684758081461 8.002602168070712 -0.8041289687523957 -1.0056872586472938 0.10525170745166389
P 8.583003909558549 1.5728068250918181 12.45728202908624 -0.8347603204850075 0.09100599616592714 -1.3556532225560394
P 6.25886349557124 7.725661241469355 1.563345245978919 0.4007113127824131 0.3506781594844219 -0.646609562245267
P 1.5656148684704776 3.0701161759023283 5.840495813952494 0.47356094975428764 1.2897751318059916 -0.19446461627291026
P 7.13836931641439 3.9279196351820853 6.0976326579931515 -1.562985438820237 0.2041427627926226 -0.25072523853785206
P 2.3114551035647435 8.447648756110933 10.00127582552966 2.4434049519052565 -0.018722516110167755 0.5456755083323506
