# total energy = -381170.3848675619 ev
CRYSTAL
PRIMVEC
9.21681232877294 0.00000000000000 0.00000000000000
0.00000000000000 9.21681232877294 0.00000000000000
0.00000000000000 0.00000000000000 13.48973649282216
PRIMCOORD
 96 1
Ni 4.750400340385174 2.7374761929381117 4.079876326689067 -1.1859341886589254 0.01646508753455874 -0.10336606039317682
Ni 6.295691084126958 1.1723047851485453 10.835684504122156 4.632567653258338 -2.336715997786434 1.9831358341638687
Ni 2.6648292786939702 2.859774074834269 6.242766304759703 0.3620223808526475 0.036178249692769955 0.48793624463935326
Ni 4.4777578168815015 1.3405300425431237 10.09445095011925 -2.4982206141935555 2.1902019412508733 -4.2835020896766745
Ni 8.536602299671342 0.5751032780353388 12.392683364479563 0.9285271672255234 0.13509347340344477 1.5700942819508765
Ni 4.017184491368435 5.003272801588202 11.936555307520155 -0.18409535722344425 0.7407510187163824 -0.8990312146489354
Ni 5.438048269581686 1.1445621802418127 2.4193569960555985 0.46585715335212674 0.31135699328729605 -1.6381840356402626
Ni 7.005533097248857 4.945566340019746 8.191858497209402 -0.02810138622190644 -0.5959688572702639 -0.32637583529363146
Ni 5.7202578442126635 7.830336409706858 2.071578097315988 1.3566600665539992 -0.7701644388814929 0.41283097886408254
Ni 6.891991187001003 5.467643453752954 1.8862289244210044 -0.31095744385603225 -0.3616382580403514 0.10088648850443271
Ni 8.340376366626712 7.559841403460085 0.8896389783106297 0.5296670487192362 1.0728172195265715 0.2547873244223677
Ni 0.8601645343799851 8.69555544393098 2.7288520217051446 -0.53469355539955 0.1270726599814973 -0.8089181626109231
Ni 2.7758918664435135 4.073701984155174 2.8142153718263025 0.6073066508805863 -0.6055721846879829 2.353981726845417
Ni 7.744371201745032 0.30307828095317824 2.1385815574124907 0.2014826994619562 0.5692093297882326 0.9051892638305316
Ni 6.6213302781335255 8.912657456747619 -0.07011229087226385 -1.6694872166289183 1.5198646963713631 -0.19480271633861934
Ni 3.5165641165797035 8.978456279481561 2.8031810041869867 -1.3681261582120696 -0.1509931753528367 -2.366715372362002
Ni 2.74827829690844 1.758411093661511 11.410172099098434 -0.7935892455633365 -0.11768016302300378 0.07814842347696864
Ni 5.48775453810727 1.7808632483302154 6.066442234431056 0.2412697495519071 0.07967488742382407 -0.1824069137774278
Ni 2.302921928438901 2.4143992727402064 8.815421009071361 0.005627630599422566 0.010203937116195329 0.4404613389868414
Ni 5.066454049639913 4.926791693443329 3.363787158216412 0.3239566843291776 1.457030791764278 0.1343483677073041
Ni 3.8382585149384028 7.550956396440122 6.124218743772699 -0.5390564603539362 0.3994460729167443 1.0641410319088125
Ni 3.3433617805639835 0.6193808441389743 4.902830746607439 0.7961786035570675 1.8045300393000856 1.563908721965455
Ni 1.730825174563222 8.74349208450238 11.583960624373978 -0.034054004260915545 -0.1286806278985655 0.29728688834747513
Ni 3.9372286450010248 4.817148494782037 7.466056651975711 0.6942621311262237 -0.8683638674720658 0.03953456775951256
P 7.0891848853330774 8.413179966679298 11.274047155447766 -0.9768222547864855 0.9716993317376232 -0.9155497811292489
Ni 5.227204472290519 6.577578070328789 7.939883753520633 0.598442258511421 0.9018416875145372 -0.7088271734245921
P 2.0119379485350963 2.3101294756272943 4.295441896901736 0.9471725502408528 1.4167143515334182 -1.705911263783907
Ni 4.8712419659440345 3.4143865358501233 1.5741310709888467 1.9110325884397155 -1.0393139455628035 -0.103718301526273
P 6.807979943238589 4.57569566397085 13.396751832058815 0.5244137707400969 -2.3136300625012476 0.19693004709426729
P 4.625724520925583 1.4050938124340413 0.02357844912704422 1.38596190084191 0.42137989687535815 0.863091563329533
P 3.183072198526447 6.937992296997516 12.399401498936877 0.7625339189194287 0.7983768967599669 0.3232439745328691
Ni 2.125581243717824 5.345032200239911 9.061325560204791 0.20475468534500868 -2.1981885590007755 0.7548715172781645
Ni 5.904087164765746 8.5145649015544 9.095076605024712 -2.428225673061657 2.5505057967505174 0.38092667395631813
Ni 6.543291528716481 1.3573322912956067 8.137184366874937 -0.88083320358367 0.9769886051610206 1.3816357626627302
Ni 7.728398466096073 6.695654652209237 6.456822161123959 -1.070228632863789 -2.930377804190076 2.081352232035306
Ni 0.5713778425192918 2.1316090389367623 2.5607567213634517 0.002724340909698534 -1.0506512249524937 -0.3184000161770065
Ni 1.5150319490876973 7.630589654378385 0.05786222569567309 -0.8896009224739712 -0.2879828373377299 1.5864562682486678
Ni 0.37532149882027144 6.245864997041977 2.2680694745537453 -0.09618445504307306 -0.8499318860191232 0.6668045491359033
Ni 0.9750834363796873 6.122221460555659 4.616363004711706 -0.6624560423592204 -0.6219994770060707 0.5732112518587742
Ni 6.283193086700538 8.768340610359042 6.663916559187199 -0.7458772841993541 -1.0619275691972614 -0.7428446680206174
Ni 6.513041950874656 3.238197952661718 10.035635706035748 0.209910004293703 0.3995496883741442 -2.9786538655876442
Ni 1.0558042781647914 0.8099624013547392 5.2759844511838345 -1.469744125565888 -1.35478650368037 0.3616398007022481
Ni 8.323196228571513 8.191580149479108 5.227447796134219 0.3998785324684726 2.98983867855987 -3.474315761006029
Ni 6.384347601269106 6.648372405308395 13.516041346432859 -1.0125428481165464 -0.6326124766352266 -0.6205547741397441
Ni 4.366556976948037 -0.03402109741917975 11.81246291227671 -1.0219888240207948 1.1612194595210648 1.1600274960954926
Ni 6.965255627666657 3.0718529249684594 2.9994972619917775 0.23490524078645997 -0.34787488570767183 -0.2114452099913068
Ni 5.663159692253458 6.610924497090436 5.199281217863462 0.6205565739119571 -0.5291322592616887 -0.2019167016755813
Ni 7.783754640537879 3.066138501366409 5.243055546017628 -0.31897260085102486 0.48214792009235025 0.24265428860425953
Ni 5.764387941320117 4.251927482853342 5.777155069664571 -0.4865373074092975 0.21655219220056895 0.5265285030902545
Ni 6.734180927461776 5.100989445183278 11.303198089268035 0.28402899489630434 -0.3541319223609772 1.3670846043214326
Ni 3.9574503311024776 0.7192007642920953 7.678978840431818 -0.024854082929202354 -0.19930137553992128 -0.47889624592427205
Ni 8.812221853535439 4.112053139974747 1.6009483079445375 -0.12311161845122022 -1.1612585402891162 -0.22271666914006802
Ni 6.7449645978075825 6.721738230908922 9.785980833993166 1.7425805941804828 -1.1228267186754792 0.11899245407652409
Ni 2.2500450764954043 7.911665561101213 4.397128221537786 -0.39400896106157307 -0.4118372474922456 0.5907538887282278
Ni 8.08519048554608 8.348330475608279 8.280418237822804 0.7966036069096281 0.41111579594518877 -0.5989065997423492
Ni 4.144717522629053 3.7490305554360517 9.737404546650827 -0.9037221923667016 0.5514373505167923 0.7440787975380346
P 4.1853820983262295 7.174578650934697 3.599897924640907 -0.17378754753953293 -3.6358962249564093 0.7051432968151017
Ni 8.462434611404074 7.1632696222899925 12.198700803539351 0.5741062528692178 0.6047455750216295 -1.888202477919077
P 7.814114820126842 7.317642010855728 2.9451060877937376 -0.3184100434793355 0.3405585545519167 1.5757381105002153
Ni 2.5772695622109274 0.7048354407015195 0.09714243619119224 -0.07167515704779914 -0.18406656086803785 -0.9110385235224568
P 0.6804532855452836 0.7996736738273685 0.856336792247837 -2.007853905735839 -0.25376891046018235 0.2607317149312606
P 8.909422355643878 4.901602145532998 5.998089433019489 0.16060858695541372 -0.047386716814079674 0.5260932153250488
P 5.362101736547973 3.3287439163174457 8.069344020225103 1.2701861539304706 -0.6001870091166696 -1.2607080392367063
Ni 5.2994734972319435 8.821328064049675 4.1364657106114455 2.9379008520399985 1.5134276824967676 3.0453737355126975
Ni 2.0207400042447072 3.8587290549709117 11.163579973770306 0.7993991673768942 0.5084387354680792 -1.1344915566079172
Ni 3.8962599144992223 5.320294276130386 0.8217829630799498 0.7678023664072195 1.0453447251379158 -0.6785133529323992
Ni 3.088415536602147 1.8168825506476607 2.1211258366706764 -0.5274502435735755 0.9807796967723366 0.5032170820578237
Ni 0.9482717295113535 7.614626135541686 9.542936259704442 0.042829436460700435 -0.08908358233223368 -0.1858565628889251
Ni 7.603842465195879 2.795717229617727 11.943273441977471 1.3524066905942838 1.093928290473574 0.7042603799895162
Ni 5.207729347982237 7.225049914877975 11.640117739801298 0.8184083614895454 -1.8507875276057284 -0.9861517597175273
Ni 0.3604040881752394 3.886840332368099 4.01468028347702 1.07549708035158 -0.04118444465810971 -0.019038247578373666
Ni 2.847156258848449 -0.12565187987807097 9.662374164755894 -0.25116335451653515 0.7069181293273374 -0.3536878928450231
Ni 0.33723302215014783 3.349656863338501 7.517843155028687 0.041029150027168046 -0.03794871132963142 -0.16551090935303753
Ni -0.01993227819644509 0.49122475636948826 10.23638985894439 0.46572834108374633 -0.45010657538608934 -0.16214430687364978
Ni 0.7079378197086976 2.6851154824812515 12.475105629808114 -0.3917317349916221 -1.0694202780298807 1.3870253091094178
Ni 3.580648612233029 6.793445030302404 9.798823540198162 1.0149321742843294 0.5808978218697544 0.5056855982029743
Ni 3.2456820042179535 3.1815790749401045 13.404440496847254 -1.6572641922001652 -0.014000428044150082 -0.2849221961345351
Ni 3.355343636503768 5.072767566038954 5.069996070591959 0.6843060483547763 0.15188714792201582 -0.5602935153558415
Ni 2.5954266823658316 6.698733067504535 2.118873247753997 0.546732231731639 0.6579573831579185 1.1660467057063788
Ni 7.661585794013381 5.270772343850028 4.012198195935032 -0.19841074540485185 0.8996788755352634 1.3674538147353934
Ni 4.081167602086887 8.198087218935639 0.5721926087231972 -0.15062447915950833 -0.9346361083367387 -0.9456363161019843
Ni -0.019416136709808206 3.1048859801132203 10.131696088467457 -0.28975355608490744 0.6817585993425742 -0.29841585974559576
Ni 1.9308392174472757 5.3092064509799535 6.8263462850318275 -1.8604841860682024 0.039696804368989695 -1.618778377420141
Ni 1.5584984357123322 6.034799996256537 11.356158814203111 -0.4201213418779087 0.9419778934137906 -0.14933121426938153
Ni 1.07210881905516 0.40711950112200807 7.702814438620955 0.34837445105190973 1.323277120218179 1.0843177639670036
Ni 8.228926672762192 1.2412096736145692 6.487322436259294 0.24090516712363674 -1.2016423434228014 0.08806825369384187
Ni 0.18332608260361205 5.431688669121338 13.22224808215179 0.6302066954072114 -1.5247256240080904 0.6551703073310845
Ni 9.381148023993205 5.884888544825307 8.176803756061675 -2.570810312635824 -0.3388364296544874 0.004342079018779619
P 7.0627602845797215 1.0935010403138066 4.345192406126175 -0.040101496006576094 0.2867682482043384 0.1568768878271234
Ni 1.01484476447525 7.638433161612812 6.6150702192456015 0.002855724281240243 -0.8021926709616313 -0.5917445347762712
P 1.8159885198583077 4.762907554623857 1.2343164197242882 -2.1496934396138654 0.6218123006959291 -2.4977740135744404
Ni 5.26151866433961 3.0528294244609864 12.021783170501072 -0.2742199792256826 -0.5039758146007192 0.8953231696697289
P 2.6741566927024794 7.865646017480178 7.954560605365642 0.7088395147197663 -0.2633575825898819 -0.07350783938116373
P -0.46528956834721097 5.9117371189426855 10.397416785962838 0.2945836304836992 -0.9760234130342739 -0.8834806685088462
P 8.614447496030898 1.6297075272436994 8.65192581972932 0.15513727942819733 0.881846989560165 -1.4043224056269685
Ni 7.136245928739647 2.1169911746902246 0.5707381957483525 -0.6980789337691526 0.6418044275471398 0.9016858786629631
