# total energy = -340872.1320917446 ev
CRYSTAL
PRIMVEC
9.23529224456811 0.00000000000000 0.00000000000000
0.00000000000000 9.23529224456811 0.00000000000000
0.00000000000000 0.00000000000000 13.51678371756974
PRIMCOORD
 96 1
Ni 1.3990267076597798 7.206215376544239 8.494677166131162 -0.18348677710516786 2.0303132631806196 1.1602211001635374
Ni 6.722655477588777 8.199785051281145 11.064866370241631 0.5464789780702524 -0.3302669428179215 1.0653106267368813
Ni 7.772052493601195 2.753373071714775 0.517513450684067 0.07503867420339334 -1.3593741230510525 0.6551646509041297
Ni 4.639736912834843 2.6669953838818787 11.27705274943264 -0.5702735093866889 -0.11403433874030039 0.18002967179450285
Ni 1.8292805001070116 2.431403080170002 1.299229216748729 -0.3229950917468567 0.22606398834574618 -0.7403069892004283
Ni 6.70195918779582 8.176632173766224 2.4532149932592504 0.5138138837370635 0.683115884701417 0.500488627383067
Ni 8.10295301269161 3.8063626163882636 6.996233461598471 0.4882504334456624 -0.21590453131424106 0.036345885618885784
Ni 6.906410086250291 5.5478893701263905 8.389718993945545 -0.188107820816947 -1.5456482330933703 -0.8199173419349041
Ni 9.322288640252529 4.634749855053409 0.33639459441296427 -0.3554323863399556 0.8123744965906396 0.3921379692911053
Ni 8.247282159003221 1.538987560766541 7.655906688459224 -1.2003344232446553 0.0034360222647424696 -0.34746710874629194
Ni 1.8362162045400818 6.989352245389308 6.147244133120684 1.5821702392788042 1.3310079132035337 -0.7177599571378478
Ni 1.0001544380668386 0.6313624386589208 8.176356038529807 1.7818169139732862 -0.45835338877591386 0.13091825897983259
Ni 4.258097698464418 7.701947390603278 5.970241446577703 0.11710809256961766 -0.10194963966162443 -0.8947143324411365
Ni 7.585490356114577 9.101121862938063 0.32814286084312644 -0.38777763543988053 0.47498405535405946 -0.4005123093977296
Ni 6.126563543324448 2.9392056211185524 5.963496912692921 0.9561292452135082 -0.09054654003100535 0.7661807716433966
Ni 3.100102881615154 0.7973520392678991 4.375599244499564 -0.0012937791107590622 -0.0010554378477078599 0.9098139070867364
Ni 4.334039506125052 3.703315226156311 7.298116692634683 0.7813507945156156 1.0915109392813331 1.3807003953326542
Ni 8.095176896669447 3.9437468229746164 4.490208297021478 0.1818898649316932 -1.2271227470820931 -0.2617830390139104
Ni 5.562093249511293 7.806296957033717 0.2680672851612074 -0.5435574335480832 -0.33796431146217926 0.4106622533475379
Ni 5.427396512951602 4.444170365465079 4.232334927377211 -1.2903970816607067 -0.5707964717696944 -0.6399468055131108
Ni 1.1919806921005263 4.724849365638005 10.600875131902992 0.5681397508731377 0.39191042666133147 -1.2313025894913956
Ni 4.3158182746384375 1.0810555976323435 2.1665921590342285 -0.7003577025010003 -0.04998404522761069 -0.9431186918864533
Ni 6.857952508140678 1.7139132300964761 11.984075319340464 -0.47644984126630846 -1.4475547339530423 2.3939994048889353
Ni 7.204710023917621 5.8939265331126816 3.655978812518302 1.2638635541465524 0.7914757987647595 -0.18510965742057153
P -0.0137217971326972 5.713274982626284 8.999433907716162 -1.4385232198783935 -1.1299556164107765 0.552838344629377
P 8.993678473624698 8.503367576079922 1.8455549320004285 0.21661467000738827 0.7677437452551423 0.5046669271304728
P 3.362699179684283 6.4417917715720945 4.257368110381578 -0.08669477038508294 -0.08161375631774977 0.2655898143545103
P 4.368477910693518 7.966520041200606 11.06467704675178 -0.05706049245841786 0.30403320593237315 0.5242386786148133
P 5.792107436741712 1.436549699818986 0.5029179949103998 1.3818694759400911 0.14289317195352166 1.0185337755926587
P 6.161934712403887 0.8946246012947936 8.087848692318394 -0.4511697265432811 -1.4465813142961794 -0.6683906626761005
P 0.23698129165692772 8.879123909326692 9.910627546725163 -0.4978406482372587 0.5675666519784871 -0.616589618844409
P 1.1238334710464326 4.051236388748921 6.376542585206546 -1.4039961326358013 -3.17970359127724 -1.6533931392805332
Ni 8.01946597131351 1.1404292911079865 2.639084483831779 -0.062212211862686405 0.2665534638193603 0.1162071780219031
Ni 5.3392641196030155 6.213015113494846 12.023328081726454 1.9273462379980744 2.1143220020931066 -1.2211945545231162
Ni 8.635690842547337 3.56176590279324 11.873602754189484 -0.0980940133609601 -0.22019775937295627 0.5143252761558432
Ni 5.13633704435954 6.535326810850569 3.109076815034081 -1.111199675959512 0.4991285138107469 -0.9887046080463682
Ni 2.7861583589816177 2.2566621166838243 6.531133988197288 -1.19366163921017 -0.9314885638466925 -0.4135161778565652
Ni 1.7174411117122321 7.673585808294413 3.7803467982951093 -1.8706858091915526 1.1212210647512562 1.083154854007154
Ni 2.234275768420493 0.6689445366881294 12.52892338784211 -0.8327587166739465 0.8882194687454122 0.44647952015646325
Ni 1.0056956133795443 8.010350737924108 13.529624555206468 -2.0766124033574753 0.30267874878700773 0.6135336056269046
Ni 2.8843849266915162 0.37356479841059487 10.300208188847915 -0.7433902561114423 -0.10247671580968802 0.5084346217030211
Ni 3.621444360911082 3.9489555277685597 2.292217068077801 0.6035584966920637 -0.10130326432687715 1.4673049199967763
Ni 3.579072840353258 5.051492415029827 12.193787563754347 -0.19926615142661167 -1.0857912631887363 -1.8519000439436173
Ni 0.19371394775688305 6.434468184867135 2.3102619054836278 -0.9706516071993995 0.27369727395299315 0.1653864679600313
Ni 7.786561137628296 5.473065032820485 10.909625726210084 -0.7549522499174288 0.8932650015891196 -0.5566888287237187
Ni 2.240140178959773 3.316910601016957 12.27905147534939 -1.5209090784754773 -1.8394134814408323 -0.31020976705673026
Ni 1.6998386448022034 7.8366625977473445 11.014150763192092 0.10677534318504191 -0.7906134507644642 0.9350102038467059
Ni 7.911976405539205 7.508975960338297 8.867902105789245 2.6945402813973334 1.3069231043401879 2.236573586536877
Ni 6.295827978543236 2.9929457863596114 8.636237571844857 -0.15907183859591315 -0.22685203146468028 -1.043407398905887
Ni 1.7669607484234466 2.8227024101689127 3.852999918407652 0.14257281249962545 1.173832777409701 -0.019811635409288462
Ni 2.172427016638508 5.179973799947098 7.6547439651727744 1.7074271862078017 -0.058834810750021255 2.9425679184983644
Ni 5.4998750860417935 7.431648858849488 9.179410358343628 -0.9026703540634196 -0.6793710729470042 0.48439197893152064
Ni 3.136055874102427 4.760312887639323 5.498113915821572 0.1691575049666893 -0.25526503538973455 -0.34912572739563746
Ni 6.127505543127607 4.173114539751886 12.864260541299565 0.030679431361727807 -0.49256603010188077 -0.2549855564761028
Ni 1.3269729580102283 0.6531235576411355 2.7750769318854243 -0.16623107534851372 -0.5605624527465121 -0.8163447940922974
Ni 1.3350168975058394 3.056373773105717 8.4576676562176 1.391420609963636 -0.43067443480340667 -0.45841560947241694
P 7.879071059473921 1.7196114053763754 4.786630699787019 -0.4043985318260132 -0.5103891743262307 0.4783434587445955
P 4.054320976339661 2.8862412204212724 4.9593888460404685 0.6797893914313454 -1.0205659755313392 -0.8337082250714093
P 0.3408118346664095 2.0170524608702363 13.104075220599723 1.2005748213902356 -0.16229677329111403 -0.06794525769172169
P 1.3182363716005288 6.096761255434279 12.237582242838318 -0.04958192469318558 -0.898850208986381 1.7051959828844374
P 6.425759304333999 5.462296682129461 5.784764455923158 1.2099256664775162 -0.20540028934880755 1.6014776813581644
P 7.466216557508585 6.9124222614645765 12.645802475183794 -0.22519932635260573 0.10608037400054635 0.7896906818398788
P 2.875528281483375 9.091858864873657 0.8686300243736718 0.12468873313035299 -0.4780608945071702 1.0588748984138667
P 6.755283764888427 3.2430836752673398 10.675731792731552 -0.1712447265130212 2.1428946715244774 -0.0674156104404968
Ni 6.572000156128493 7.803609487007054 7.237967234615262 -1.1990900093145929 0.861723993558045 -2.892441434155619
Ni 8.910320726337225 8.486734814849617 6.516995679386919 0.26228774656447085 -0.18443011485504365 -0.5908533904205696
Ni 4.936623850797434 0.8069539725555995 6.307931752484622 -0.23024023121062281 0.38162575690587175 0.0939905327155478
Ni 3.542205553939388 1.732236049797157 8.70778245689486 0.6491726949867529 2.692531221387105 -0.46137829164516675
Ni 3.4048121120608474 6.410659601606875 9.918264209835291 -0.9451637473409399 -0.7015211266814821 0.19635026333139732
Ni 2.9822790238826524 6.845217040213642 2.0665813328736387 0.08084885312726722 -0.2814499213152185 -0.4659671965674297
Ni 9.229464718472517 5.843464896598307 6.809471841800596 -2.1757438568440146 1.209053805395524 0.2683218685736927
Ni 4.994944720963663 4.557478165317726 9.937309229385061 0.9406596888229994 1.48685918797962 -0.4571915072573287
Ni 8.672484246623704 3.362339003288957 9.534887837004332 -2.158871506568708 1.0974522444664325 -1.0500207904573464
Ni 3.739609924454534 8.798444396773696 8.072128377956247 -0.8673932760286803 -0.9206873594661306 -0.5406605716162624
Ni 5.919092704324553 3.52871279205295 1.7723338414183336 -0.564525294049002 -0.2014333342812595 0.2707847282918885
Ni 0.9364032160941579 5.304770303281422 4.6506788870190015 -0.5112854608882549 0.3596690501291225 -2.0071550798966014
Ni 8.857873502002466 0.3036083836169026 11.899202984134186 0.31260989185779064 -0.6827050224162435 -0.06030779575112194
Ni 3.0049701367881827 7.075739168514393 13.264493169431775 2.4474747510992563 1.085086523812228 -1.0804852775947908
Ni 5.7796397922881235 1.8527566128485085 3.85806824676034 0.12730920147233557 -0.5494617148476602 -0.13187110981140515
Ni 6.711924068066503 8.880970967764261 5.015834951892565 0.5846346632043673 0.18634018739356295 -0.6757342475253653
Ni 2.4316431977668866 4.879161862804676 0.6034552327256968 -0.5650143178702786 0.3925526882310207 -0.415631167317039
Ni 7.386525221219688 0.9442439791616367 9.941580552021938 2.6139783633828655 0.12692147911561366 -1.6730088566289316
Ni 4.039876979357875 2.710124198399106 13.601398475502727 0.6417198382531336 0.19760624722568548 1.072395815718437
Ni 6.990820656847175 5.976693221700131 1.2150504519857583 -0.47826992519418265 0.14268465548714138 -0.9191035599187783
Ni 0.607500290703972 1.7351359315441395 5.834533445523443 -0.8788495974947381 -0.077243395164196 -0.4474364847530939
Ni 5.184138916723816 0.6148478891686199 10.139020940176616 -0.18813918827551468 -0.2965916620526634 -1.3246650017046413
Ni 0.8700725770134128 2.041489043999269 10.821279997611958 0.7877268732452886 -1.3073884740123807 -1.1716699654304275
Ni 4.693467842783716 0.5078071585946439 12.410381024377394 -0.7275692299187857 -0.709029005022753 0.3465605377716225
P 2.030794575645747 9.125558446067096 6.1800358850920585 0.03896172597517806 0.9141626709737353 0.48910095437141576
P 8.595157145134895 7.113548454731422 4.685173626869814 1.2475131378129871 0.6044421848485977 0.9997582947573685
P 3.1032521162512086 3.5765977820469157 9.988619589251499 -1.204600911830493 -0.37015632281369154 -0.013010039106422754
P 7.964534453380219 4.2561213459362195 2.0847342231980632 0.24783351881235383 -0.18777974805356693 1.2849466000690968
P 3.878933542400334 6.505746169972907 7.8043344574438 0.49927429535999174 0.39702203685628396 -0.1647992279979936
P 4.794067880585889 8.796717397134568 3.789687372813894 1.6823766709970769 -0.1414870356346144 -0.02203898207791043
P 4.694622254307196 5.416859044565274 0.7267934834235594 -0.15422530913688923 0.2921801632485291 0.14637084608947695
P 1.4656685760872552 4.755233476936009 2.4673265197222745 0.9101496931596001 -1.7844121855042883 0.7757414187486381
