# total energy = -340871.36665429233 ev
CRYSTAL
PRIMVEC
9.26411090306552 0.00000000000000 0.00000000000000

0.00000000000000 9.26411090306552 0.00000000000000

0.00000000000000 0.00000000000000 13.55896273731998

PRIMCOORD
 96 1
Ni 0.11116932779319327 6.591646329837653 11.505471432778668 -0.461554926432347 -0.05161181063902079 -0.35497601552882735
Ni 9.141944822298704 4.549447250055394 3.201393158658094 -0.21636244478726607 0.26081424734273795 0.24552209707035783
Ni 4.854671903622256 0.20751607854729412 11.383833659951616 -0.7005978435362643 -0.23586194827277446 1.161384010123387
Ni 3.5915104165720977 5.899561679661129 5.003040341317182 -0.02717141820846934 1.3978833348698443 -1.8353092294644713
Ni 9.121823173968135 4.485043152820538 12.424537910799076 -0.7372288644957369 0.01738040025997652 1.2908210565720026
Ni 1.5766589914269638 3.1199301280733716 3.9501056115903412 1.698526798394378 0.11089630733195095 0.8102381669739271
Ni 0.9918249502389221 8.989383448123844 9.844281137319891 -4.098163861185065 0.663929027360321 -0.29580361893372925
Ni 7.906019820557877 4.65846730417792 7.915396953357233 -0.7130859487009461 -0.7872648460072055 -1.3297519293092452
Ni 3.777052024658937 8.237258096828345 13.385366999627125 1.02754986304834 -0.15561010529955782 -0.42273306846914294
Ni 8.941024790533804 2.041013273619132 4.6964584955401785 -1.3211657303021311 -0.8395664836243992 -0.9992499876623824
Ni 0.21444470690200487 2.2111671939172637 11.626756242989977 -1.1532474970591815 -0.8823308711751192 1.3506981925436092
Ni 2.466106254879004 0.9164651157500463 5.878080986298289 1.388851306574563 0.33282904711814293 -2.362332412802957
Ni 5.703486777765884 1.1543915639151683 3.045139109978371 -0.6691064577962025 0.4769216386964044 -0.18199810837478334
Ni 4.772591883268282 0.2272440021752612 5.295534254029592 0.04011692262554381 -0.8651939543845163 -0.2719491809136349
Ni 2.5812220938088557 0.9558338803658758 12.508481870215714 0.43258964954824847 1.0439211053175117 -0.21004241610650923
Ni 5.953043390440305 3.2985236531731363 8.230222004790102 -0.17245982986704494 0.22149668069003792 0.9388432044395509
Ni 0.36047210383581885 0.31526509668871683 6.50009838839996 -0.990851479186042 0.6418908166133591 0.2751679449612487
Ni 2.1495793863198345 0.16574883568432647 1.4197045759821436 0.56225809528138 1.1999253607316949 1.0892360272042272
Ni 5.624306424045182 7.182687325160815 1.1912238150351833 0.6002572002329726 0.3429018579731127 -0.07929256438374085
Ni 4.05449361038815 6.566281194879506 7.434473809268554 -2.4440994068691198 0.29517498421079486 -0.22675458665486756
Ni 4.378385446913618 5.323463694815502 2.158451625088796 -0.33658928549152356 -0.3834874927049589 0.19760136212967902
Ni 0.32490069817519185 7.522272565126423 3.2346670648776614 -0.5686298031356787 0.2714948669850356 -2.255084243746555
Ni 2.6267366694295187 2.8250349578806273 1.900519329976224 1.2201990233790663 0.2621046840193873 -0.8236158738324139
Ni 5.789161273051838 2.483031785035518 12.17708703047527 -0.07461804172620697 -0.686746796585785 0.9048079692317127
P 7.498991855064399 3.427109508987263 10.691282098598359 -2.034316985023374 -0.7564301200145359 1.1931954982070287
P 3.5195004844940563 2.7909800871333124 11.599299271847187 0.30186370908488014 0.14158679443727226 -0.19054856904795572
P 8.929528029217858 7.665393810549509 6.363098867294017 -0.7180623188696149 -1.8619322313686386 0.19490607468570303
P 4.691873687179775 3.204956135613865 1.18433594876733 0.3644980960866497 1.520654282152194 0.6679564033521593
P 3.3517552329647775 3.078834533232488 5.503474628844631 -1.0819130111802528 -1.2518315626826828 -0.847175663430225
P 8.254322588644602 7.93095880642615 10.152679675195248 -0.9033295849139733 -0.8735801215656825 0.19945846994307584
P 1.8371750469996626 4.317900068483471 8.873012322200994 -1.045482793377677 0.4169912808893593 -0.9030498488900255
P 5.630133549643676 5.6054169024309894 8.198616564898497 2.4290165443940683 -1.8807460216410319 1.2598184375429013
Ni 0.9819030877333796 2.6394007086872935 6.534904578520942 0.9751939751544431 1.1455796961012785 1.0600015558191422
Ni 2.4653558619164 4.816948445057766 10.932022057167714 -0.5880285193772646 -0.15090910027946267 1.6493552217657337
Ni 1.889350518177268 8.04791820337524 11.85700089060459 0.6844780551562664 0.18567118635099636 0.2092194059845816
Ni 4.4475327688009845 1.6747844514257555 9.534188193606752 0.12077448567761136 -0.19410054806527216 0.15236074512432468
Ni 1.4492682058866135 7.490746796586403 7.714262920636332 -0.13759284278653078 0.5300054058952614 -2.77783116830719
Ni 6.9106096594976245 5.26244099796769 2.210748456115909 0.4049474623509477 1.0630459990724208 -0.7576529366780436
Ni 7.068859197611235 4.025200492514643 5.62206080362376 0.9547575616769622 0.8237824813172651 -0.5867391111418798
Ni 4.714441060721793 8.763394732941581 7.695646690286297 -1.1707145434956934 0.05531188519842733 -0.22705232040094447
Ni 8.13281451336664 6.468665260966434 4.719576157254773 -1.6154742527475725 -0.41756823643875185 -0.2639167975274616
Ni 0.3324138919118818 2.2480754107446037 1.731778186552131 -1.0001722423663355 0.16150744462059927 0.4450199048918014
Ni 5.889871419921823 2.114653689171473 6.086360427563097 -1.7823933553020466 0.35648036798849575 -2.1544029292743927
Ni 7.146297898529843 7.183289492353028 8.031773637746472 0.852438711601377 -1.0318204653992358 0.9312970166611768
Ni 2.233289890148109 6.765561479059455 9.616558180624052 1.144936663200641 -0.668667570486571 1.231511105957776
Ni 3.174143703593852 2.6338144499656853 7.640746644166694 0.2748414148597654 0.542613324467259 -0.19173976114257946
Ni 6.892118494641356 2.4044072779537817 0.947109867367305 -0.8852783838392173 0.18737171398187086 0.26775699720915824
Ni 1.355218954573572 4.9304986492878635 1.2824326900231087 -1.0107605594051432 -0.17512374985245321 -1.309586252994648
Ni 7.925530037585582 2.0827295638735275 7.050077139680575 0.1391272771531862 0.4313935723576184 0.5745996475658685
Ni 5.979149654250406 8.501729927648352 9.646632263025307 1.902449988977027 1.551873645177792 -0.06050808468738612
Ni 7.150485276543387 1.144256626864689 10.648951597807907 -0.04713526292490591 0.6739987528914972 0.07204719567523721
Ni 0.13041829690058468 3.999251718585582 10.150849086930918 0.598018540710441 0.6283609004477242 -1.3823137625663613
Ni 6.843602347170277 8.562372795959538 6.310937292282386 0.6503808563622412 1.6943477273160237 -1.1095485135093344
Ni 1.8815223446784974 2.1593344948336872 10.136734287945444 1.0542471698338682 0.13945175037214047 -1.4069431310792673
Ni 6.500663499149574 4.899630632603953 13.226279985910805 -0.0851323109939695 -0.371282980218967 -0.05046561284971953
Ni 7.025012161907469 7.483530054390496 12.633753027239473 -0.3735301243819309 -0.10394712970762744 -0.054375232316770876
P -0.01238704234935656 4.285225550222922 5.5801638632117 -0.22525100552614757 0.5245976046161288 -0.5994583584807612
P 0.665049196068285 1.048252648204617 13.51457077162157 -0.24619238366450505 0.2754530803018353 -0.19323640029276398
P 2.2335956057995405 5.604564604251241 3.034292689230015 -0.10800947270245913 0.4688740858015796 2.179546775529872
P 2.9164902582118275 8.81141988254824 10.061332764958644 4.574071713904973 0.576717979460452 0.1550182373518298
P 8.303357526312048 4.125753149503587 0.9425852757261219 1.1113066338510216 -0.5679132366846285 0.4229050752706329
P 5.8455611786855854 5.615468462485624 4.043825060564263 -0.2671134500878884 -1.0075500228876453 0.25315493102526726
P 0.9621056832755418 0.4984925299353281 3.521669212797089 -0.6918560927878923 1.2152943869885973 -0.4309639410193674
P 0.21643649069163293 1.7206695914723962 8.500344016695198 1.7958998744289134 -0.3031140365522134 0.43503065488957343
Ni 2.2674188737806196 0.47378607324435584 7.992411358008097 0.3902947454347795 0.08619906169558703 2.197213853792332
Ni 7.973638564188086 0.13085463651217297 0.7589168708125976 0.6517234864330648 1.6270987243603783 -1.9415492689713338
Ni 2.552392181467821 7.060484441584147 1.3914481120903086 0.4805425232784434 -0.607456031974257 0.7836637589195085
Ni 5.7089618671597 7.808033322218826 3.698423811932941 -0.4129230243572566 -0.3679942821653662 0.44988880294832834
Ni 7.02826386474542 3.16666756629976 3.3208612767710486 0.675605692367301 -0.5666755076227854 0.06907885707553264
Ni 4.6974599459013815 3.4485373969194013 3.7208911330799457 -0.4637624756066271 0.1407748400589382 0.3026882618687045
Ni 3.8723704591309507 4.380015930387918 9.148083222015018 0.3723520449134297 1.058317226138184 -2.890508221688648
Ni 8.788963678334015 9.143890285535084 11.941622056509702 0.10169150090423132 -0.3328308468903558 -0.21815553213194688
Ni 6.207565566422821 6.277768996924222 6.047961615332263 -1.00658740186406 0.4416746425686523 0.3146747448066194
Ni 3.706542878506104 4.8626019823381705 13.154837943815576 2.1859768474259322 1.0522766763710587 0.4961848578013906
Ni 2.231918801771993 5.033960237020728 6.798992875160064 -0.5559653202941328 -1.1308429041117365 1.166413345017178
Ni 5.203521254237296 4.106335573582375 10.7707653887373 1.6448840733682575 1.1339310561187568 1.3273877999524428
Ni 4.717173973363375 4.435054011756199 6.357322694304096 0.5391909290492714 -1.0862527762061873 0.701738642008927
Ni 3.4224311331093 1.2249470306212484 3.6301139656482837 -1.1184766692368995 0.5698675321975218 -0.8296741642113519
Ni 1.080121188838666 6.200209862567171 5.107674765458266 1.2760027606122475 0.15190206032035128 -0.3014083667150164
Ni 4.826629440686423 6.779087080607627 10.156422375897618 -1.9628495731110065 -1.2824665139597204 -1.947412155510014
Ni 0.5644529977592894 8.020042494431095 0.41934367419083424 0.5622303273672381 -1.1694284776944182 -0.8479318248699591
Ni 8.069568429962963 0.11774314071003077 8.62238848397976 -0.6161160216421002 0.5746531265116233 -1.0274076810435206
Ni 7.523449107178902 9.111984688458437 2.83340322903026 1.3283931012885057 -1.3543278188763965 1.3476815172044727
Ni 7.261478586234241 5.659241385304194 10.079447806922547 -1.0278702225022363 -0.206586853457741 1.065943375224874
Ni 4.621188522924602 1.1458778462283397 0.6107837415281677 -1.1317993544877347 -0.4563211888372335 0.5504749866035229
Ni -0.026911315025537265 6.083630294154709 8.956196624544381 1.6927343600823168 1.3729883714003772 0.1582891947936177
Ni 1.9437215835787889 3.5467925544672854 13.0547855488017 -1.062452588462796 -2.6956638534788153 -0.49124242619445074
Ni 2.3649329024765486 8.303765147180624 4.050400726303231 1.7933832786546469 -1.0970920329135365 0.027651700278997538
P 8.062768572746279 7.36226284598942 1.3122408924487234 -1.674281552693768 -1.563608674226533 1.4368861984956027
P 4.286059320181371 8.689161414307677 2.226463167010542 -0.6571341159256747 0.2990694341691946 -0.48085491231253963
P 1.880271689740824 6.1686563016952025 12.915603403226754 -0.1881070494859986 -0.7552106457851381 0.5107699547044171
P 5.178684173586167 6.126856634444962 12.010162579149531 0.5844372024815805 9.564503759983528e-05 2.1275932652807166
P 5.945659894252707 1.1274330019253191 7.893173278320308 1.493761314416092 -0.1440473401626229 1.8990846720492194
P 6.3322419675428865 0.5657879561038727 13.10302840500862 0.2811791841523351 -0.5761371672563175 -1.7576652564277473
P 3.1816013126666456 8.06600174736293 6.0587820965708 -0.20355089484489458 -0.14783148979540345 0.6638562651408567
P 7.118718641126482 0.7861487240666053 4.703034161279145 -0.5734321096203285 0.6855877432806773 0.46456903066832245
