# total energy = -340895.11310380476 ev
CRYSTAL
PRIMVEC
9.07738506603491 0.00000000000000 0.00000000000000

0.00000000000000 9.07738506603491 0.00000000000000

0.00000000000000 0.00000000000000 13.28567060029240

PRIMCOORD
 96 1
Ni 6.494660316211312 1.9948643218597246 11.61188915762341 -0.6106444570045677 0.400269083038672 -0.5241188652074974
Ni 4.584823861329773 0.5370153840150925 6.052393770963338 0.08947747533654268 -0.6135791141528594 0.043486610428725106
Ni 2.774648018336084 1.6051086343992402 4.7177412893004655 0.041823878014321525 0.17638410462211557 0.40202128984308827
Ni 3.546361919387697 4.509127546316311 4.707325897545285 -0.728939370793435 -0.2939218285299841 0.05689517052514718
Ni 4.901579217175165 4.628549625740354 2.551925295567133 -0.45081902807208163 0.259654679816998 0.3581294735561445
Ni 7.107002565663052 6.092141825188178 2.721091445775895 1.0703155361506407 -0.9748538182062051 -0.20997171076957385
Ni 5.025294899789203 4.251674747849854 11.521692627523906 0.38582771080236133 0.8260226835016935 0.3918075825348801
Ni 5.57618325157442 7.7794007954636415 12.522501575740614 -0.4332833331811634 0.3943740577104757 -0.01103877431266486
Ni 1.8403853808717068 6.388545683460699 0.38449534274885233 0.8322329260774636 0.9985377920867062 -0.6617690435945247
Ni 2.783462159345566 1.5499816742029635 0.34705475983669 -0.20687918788717916 0.16507330759498667 0.5790533124618479
Ni 0.5430400445588548 9.23160995389613 4.751647138423655 0.10213270220670796 -0.7833220593093735 0.5105339274342111
Ni 8.50717107486036 2.459626443060013 1.387209634114778 0.2934081221183592 0.1953922702935022 0.8895978371501776
Ni 6.893420769770051 0.6515547379509785 4.790467483883131 -0.45547915255191235 -0.16923258117899886 1.1367374152193006
Ni 0.8216830909887873 7.597172287981301 2.6540386169305377 0.3926848429335108 -0.8732407359483928 -0.4934198934617438
Ni 7.680656999478939 3.9061168488292957 4.127020463608236 -0.6252290396869619 0.3309007197471785 -0.7808322030079843
Ni 7.647651626965575 3.968505717169327 12.806868821264862 0.13677240376776445 -0.7912400286048695 -0.36030411260996015
Ni 8.178170326407562 8.86836930854553 6.874882933756083 -0.43503913953000567 0.27405722839557317 0.2080089306162482
Ni 6.7848461656357415 0.7123060460045928 0.5357073328106987 0.7648810789953666 -0.691973335092047 -1.1333291608686997
Ni 1.8688248286396854 6.369964275997867 9.289513686218873 -0.23524025552837552 0.4273158027438189 -0.24876194416389416
Ni 9.32002368554634 4.9442973918308 1.2295635934375653 -0.8845224795097992 -1.0058587512281516 1.8308236828892919
Ni 6.392993602198748 1.9810576190014113 7.189832797689234 0.6793875280072363 -0.30232239388885357 -0.5919250262181935
Ni 3.2390561215143654 4.4252252751004075 0.4753781231679401 0.9425435361092735 -1.0098632444018545 -0.40790165988326527
Ni 5.782412365471869 5.601491001455405 4.892554480829514 1.3971706250735358 0.615045928506373 -0.2416127347136226
Ni 5.344891477195838 3.1205508579934715 9.14257442136111 0.30892652946893245 -0.23758330183925538 0.4053876352121599
P 0.180123461859169 5.494041993083377 12.430950699772302 -0.07815305146265895 -0.009632895104073733 -0.6707625053423867
P 4.101888814999738 6.048751924029245 12.583097660507656 -0.3967471859283425 -0.38631519196174113 0.8966899681102686
P 2.312073546964102 8.316564140857164 1.1655680279207286 0.5817416579272885 1.3766758475542937 1.0966006950994147
P 6.35566739433985 7.76375138341385 5.841523390023512 -0.5104452243751468 0.6496974571419714 0.2256652102454307
P 4.75674953663316 1.0536120978069832 12.694099557439015 0.5049744310685625 -0.7528010079023809 -0.13946537721889526
P 3.952865382504715 6.185693356850096 8.311781266605983 -0.2144135485910114 1.083512751567205 0.3545340428954023
P 4.79491086392859 1.0016622224235994 3.7682413530734546 -1.4110748938594537 -0.6007030295211397 1.5093699674876262
P 0.20556374156377702 5.727031238490561 3.749003650662131 -0.8571173480239691 -1.470427524786158 -1.2171044436141425
Ni 1.548701762892627 1.0241015185878009 2.6851268456939508 -0.6004921990619142 0.6091879270636992 -1.1713670894780277
Ni 1.7355597368166102 6.655393575588137 4.801534631894213 1.652951423757424 0.3882987980506732 0.3290351272933495
Ni 5.974970937288699 5.725170374528724 9.121078265517077 0.28922776548842444 0.02006283218814609 0.3332980163347614
Ni 8.54648523007361 2.069571201888599 10.291386503978643 0.515860481853447 1.3724206718223655 -0.12673507413642043
Ni 2.500619914531508 5.296509014188074 6.901135639434273 -0.8618646329009673 0.27202811378068636 0.5166816922031617
Ni 0.5614135799010717 0.04895887696667497 9.240994154694896 0.10355092271047328 -0.24716657465231626 -0.40779753020523324
Ni 1.4584907089768366 1.056190075198016 11.467951784044569 -0.7531810169496189 -0.019180172472876643 0.161380946345064
Ni 4.1257714154075105 6.928513940874745 1.509650851849587 0.31529798021291505 0.26866999594173085 -0.571585543329893
Ni 5.6757803217660125 8.156230286428244 7.96764216288901 -0.21912509513406778 -0.5176509980949665 0.09239464898333764
Ni 5.223690230276576 2.820570509960152 4.894826550339991 0.6199883601133129 0.3060844320344471 0.37901377320432145
Ni 1.0175930334139607 7.413019374840867 7.041830571026926 -0.6869563414934298 -0.18127871371025553 0.2442450301301471
Ni 4.863790062672102 4.8952976666308174 6.948299917350922 0.8836465046627491 -1.4181320578165513 0.03994851536847959
Ni 8.311480805156535 7.21709309312237 9.075667738417145 -0.9561870950346372 -0.1522609863216668 0.5552412976439147
Ni 4.904656450751081 0.28286039958441805 10.53090057385299 -0.2710634358745719 -0.18873851242241044 -0.6146348091108834
Ni 8.106631453806399 7.3358343686579355 4.632182395289267 0.032256546040860576 0.1571298843781939 0.3105535235493942
Ni 7.362912208648961 6.120417880022922 6.873819971951541 -0.20382291755935866 -0.18427456311378584 0.7462873751535792
Ni 2.421056633431497 5.304896518094111 2.5491485234406657 -0.8017807802351934 0.07699091283375772 1.049973739269495
Ni 2.1950297424571383 5.199943790646498 11.454413771787575 0.0279391496124293 0.07774527450127901 0.6775263064287815
Ni 0.9931113255843284 3.2847244463534016 3.77659799386988 0.33861300078977163 0.6415182637652886 -0.33073385515201104
Ni 3.730124504965405 2.5215795969114194 2.52693434642892 -0.6845870699303048 0.6895552125688575 0.23301393730101802
Ni 1.3144053740195674 3.3442448609766493 8.213108274225682 -0.6227702937338242 0.7790617413711227 0.26634803267677354
Ni 3.698090412666268 2.6750600255296706 7.006198203242559 0.1494515418973297 0.2628788431812505 0.6074148943236765
Ni 4.156298661766819 7.153297230079486 6.169400358191065 -0.12705080560462637 -0.2522596729045075 -1.1338230697859828
Ni 0.6016436432789538 7.464588000046703 11.493978462831786 0.9666535417835997 -0.3925349476192078 -0.46996217665943574
P 0.14926852189487405 5.538838888945162 8.141445949186076 0.7381675742599222 -0.03517166280512653 -1.197544519204344
P 8.714380546357216 1.6901546561477852 8.072865396414976 -0.5748868397889841 -0.031049927327269102 -0.8232242948209499
P 1.7653426375911836 3.188304460974701 10.534912778102415 0.018015462740814135 -0.5900015839432355 -0.6992557276860732
P 4.1755881052736665 6.393964882412975 3.7755885886378984 -1.5716937652275127 0.25468010942054203 -0.7495650174635864
P 6.9562998169097865 3.96367654825373 10.495534173454388 -0.020530515853183995 -0.19410157650653667 -0.5286038975620444
P 6.31928523453964 7.679958040820103 10.302532625240788 -0.22270509917584227 -0.47108780562344676 -1.2940318501998165
P 2.370631758758302 8.631177233800148 5.720398393139759 1.189296934483571 0.2448600380063267 0.6807013617226535
P 6.786734261753118 4.029224346636294 1.9024946657482031 1.3717935797613277 -0.9312147413600156 -1.0680179983657154
Ni 5.246991878032849 2.793982848768831 0.5566533991128406 0.2931782654957402 1.092658422622215 0.15796909245003762
Ni 1.5175572543410998 1.2960509011862276 6.947767982579393 0.24957621253507342 -0.8764335318540777 -0.0847564157117895
Ni 7.1514182113472895 0.41606467292678917 9.16312743688497 -0.34729844437891155 0.7089480152731726 0.4559650910493953
Ni 2.6241177399012328 1.4349712039762514 9.309508442554185 0.7550967459150931 -0.08015311261182324 -0.63269526615702
Ni 6.3413160483707545 1.7912494948940278 2.689112725526354 2.142774343896529 2.00881549831816 -0.5169807115008193
Ni 4.062266028690377 6.7059727658093875 10.584162131394839 0.1932410282784543 1.0122250597658116 -0.8708593802004098
Ni 8.469227604809243 7.164507800776407 0.31921623496760704 -1.3042614983476248 0.41154002796680095 0.6851375431171361
Ni 7.737844526111006 3.8441273854371714 8.22546441093228 0.26021903696090026 -0.25523161104863784 0.30366502395967704
Ni 3.132514851660307 8.56690934672792 12.329700637739487 0.1679316029793882 -0.8284433771280441 0.26404638112679035
Ni 9.185859932590475 4.690057987717955 10.174565095408582 -0.5429437112234844 -0.10214581483283054 0.7078738083723873
Ni 8.774500068402322 2.4310599118995193 5.722045030811356 -0.492158767361133 -0.16961644688097888 1.1972298161774027
Ni 3.675887128516738 2.337226981297031 11.300087330870577 0.02021786970877163 0.4554071616633963 0.16140228650130267
Ni 1.1514663100440752 3.223679031019965 12.707771007258152 -0.6600937127746309 0.19350996566912482 0.15066895924419857
Ni 3.1104295735181133 8.280672159856657 8.056909168746113 -0.017773264823021006 0.6962146268669042 0.6698762460826915
Ni 5.760726492277581 8.045876514798712 3.3859327524143903 -0.6008984333613974 -0.3875233533372294 0.6264032625007212
Ni 3.1484093531099497 8.410351684533753 3.407242821862238 0.38514713979556897 -0.4941773404530586 0.638939447294519
Ni 3.3858102077144645 4.412780180019048 9.500463948148282 0.12543795259155172 -0.7581514735810169 -0.4858119992074988
Ni 7.18307105346888 6.020929738453486 11.392316287511813 0.7098576715716355 -0.3974987193823864 0.2855770561097146
Ni 0.5185973694854951 0.29333751755881987 0.47579023645509816 -0.33016204180894104 -0.3472377663443052 -0.099439471645261
Ni 4.700714837918914 0.45799039185623786 1.6539195499874861 -1.2832324455914672 -1.494289161895104 -1.1334985965670286
Ni 6.063911157279332 5.5542704437506405 0.3565887374909217 -0.43192424805010776 0.21320461588457476 0.4054894508973468
Ni 7.733714315854245 8.680939459355224 11.51993887670719 0.27648563533140774 1.312947199047081 0.6188807288714309
Ni 0.23719842891500761 4.9043387422697915 5.935386275997094 -0.25266050788735195 -0.12371762746633533 -0.01855539440468417
Ni 7.9926013411790935 8.8432158742126 2.4828926890140854 -0.3979412062364437 0.37865150476889625 -0.0869685928717599
P 8.480628800594936 1.580182134695803 3.6808352111781892 0.12393128613903817 1.282735708460707 -1.326008145996097
P 1.751390696569995 3.229869807712516 1.6763860783072266 0.10614645135179138 -0.5781937926750301 -0.2541196089313817
P 4.709483592002498 1.139965263021404 8.41180951259361 -0.3051369805195132 -0.45180684590664766 -0.4613613223643023
P 8.461048880762338 1.670247950448718 12.499079198761452 0.07836105370840699 -0.11371140818324288 0.449612152248174
P 6.397995241432759 7.581858739183159 1.2784217114287457 0.4914213749744762 1.0125729300235335 0.13099076408898086
P 1.9687396073125676 3.4721270633881662 5.865888907322844 -0.44266246040321827 -1.3382147153646178 -0.06971854754206057
P 6.765229936262425 3.9935956098059986 6.251067777175728 0.2991365399617042 -0.28472139297763865 -1.0683044192578826
P 2.2622931666386643 8.319205659944453 10.297537340176403 0.7067024137721055 0.48072532871321083 -0.03985081344835072
