# total energy = -340865.66098506516 ev
CRYSTAL
PRIMVEC
9.35316384039355 0.00000000000000 0.00000000000000

0.00000000000000 9.35316384039355 0.00000000000000

0.00000000000000 0.00000000000000 13.68930071270487

PRIMCOORD
 96 1
Ni 6.813452442156508 6.058427650381142 6.451096848150199 1.8498598735851366 -1.7588700753691255 -0.4206985545376174
Ni 3.2694077472606775 3.7045917509240764 8.82922946111991 0.4071745519092536 -0.19162766104474738 0.7575650049499275
Ni 6.369598055682844 8.149093580979088 5.561114321091572 0.8587859939756436 1.1719129346791688 0.1568249515432654
Ni 6.7199020981777995 1.7359471948058558 9.143179626692605 1.1194500888937624 0.7192167441890323 0.015740293553392248
Ni 2.2308417959457665 8.839684427576557 11.813360101646236 0.05942385048427185 -0.7093437080496945 -1.4609807775509613
Ni 1.586390106201623 1.6630766959118233 9.77647392738134 0.7157544966720447 -0.9301055674562368 0.3865015969409344
Ni 0.5666679739242949 1.8560698770412634 5.753380761396461 -1.4698683098485783 -0.7156637367304514 0.15130350750440394
Ni 2.263091504607893 4.200561965896976 2.938873487016051 0.3600382605430832 0.1982449092509489 -0.2923729959856255
Ni 8.437844452735805 9.423593088269095 1.3126071024182255 -0.13762112492130493 -0.9207197553659627 -0.6804488793922152
Ni 3.253301599257145 5.282779132503691 0.8849982260881953 -0.13661608069555825 0.45988602337035633 -2.0362036605231255
Ni 4.5568052673827815 8.34625827314777 10.06801484788919 -0.5926593332810567 -0.9273467737641771 -0.04458395725796193
Ni 6.906030057103643 9.048082269427146 10.738530999097586 -0.8046699288575303 -0.5647569504438338 -0.04948010900799866
Ni 0.3599078710489783 7.207828592312699 7.9410399355550565 0.4462936293979024 2.9992810549196927 0.6981362693696492
Ni 3.7882370944755244 2.4518944683705595 2.452547319201365 1.7273509217149217 0.28671116971415783 -0.6147695349165347
Ni 1.387906617942059 8.111185208239066 0.8322632181477084 -0.26473003745737633 -1.011885674148522 -0.38522915798641394
Ni 8.866135174704311 5.2854821968318095 7.940519899649716 -1.503531249318662 -1.2974395903297848 -0.35638472295089596
Ni 0.16510485273098818 6.223800938912189 3.561230197997858 1.1636949176447506 -0.3917818715032672 -0.9919670808477238
Ni 7.532364668634754 6.16828055880245 11.484871378317042 -1.9778658440141805 0.4138838456086291 2.1868651635681564
Ni 2.6833197994108686 0.5649198676165944 13.797719843522609 1.05170743413115 1.1077829369684793 1.140461401038107
Ni 6.4538326485514945 3.252777822086298 3.374617745188981 -1.3792716333059278 0.7760198692210054 -0.4081081194671165
Ni 7.717080299832064 7.580000331690498 13.614310849303283 -2.199310845530677 0.9064226220170001 -0.54669829316991
Ni 2.84548495277048 6.709258197813096 2.639283233771941 -0.31387436039251104 0.9425715611337314 0.8244964766651544
Ni 4.476265174201352 0.44185935664256354 12.020711324471508 -0.6474058328943173 -0.22034482647378179 -0.24655028122455605
Ni 1.3898614291689686 5.696114145611775 6.384826876925209 0.2110268915069656 0.7484823259223691 -0.6582893125760404
P 4.4488697575333225 0.5518712688478786 1.625809950206088 -1.0259750623620525 -1.2000400319326883 -0.4226307385633237
P 5.670898016101018 3.884724331876479 0.6287112504438271 -0.2135180333599355 1.172993312227541 2.110020546504276
P 5.768442161007431 3.5152369504992675 5.804852156912281 0.8446968628724291 1.3205247542840226 -1.6872903062486102
P 2.489325829758561 8.59718495063835 4.274990701874277 -0.9158616559427131 0.9106045213088316 -1.1275158966210324
P 4.973067820749347 3.6967631528526725 10.484005224190192 0.6080952082201527 -0.1681714869043362 -0.9957792555049624
P 3.035148407599538 5.509368877877433 4.466504212496075 -0.5159561268910469 -0.27116036646375236 -0.39280234234798156
P 1.9844326965537393 6.01662836151483 12.754512852347446 1.3820378831971551 -0.3400785295917046 0.258037198818233
P 8.872326969116818 7.0752287896146235 1.6751188942594124 1.3214817188806531 1.144648185425945 0.37132514631081215
Ni 8.545564839818665 1.331759575860057 10.713644100951361 0.7937558530481879 2.028417331709487 -0.11737317330554624
Ni 4.460766981842552 1.2807661270126351 9.674297160462064 -2.4720400991434457 2.8366145569939856 1.6506425731185894
Ni 2.0773470253964192 1.6441739519425205 3.6404234355971097 -1.4736475743853525 -1.5346958478469246 -0.41917440458360716
Ni 7.290491853668809 4.840870204093173 9.59328379719412 -0.09970300971929281 -1.8347916663981045 0.485776517983873
Ni 5.614273962666994 5.736342102965547 13.320319399888973 -1.5326991291318701 1.9581843064248532 -0.02117406297445386
Ni 5.146391298480744 6.094951754883926 10.753342669236027 0.5267077089805962 -1.429160804826887 0.6332249134082448
Ni 8.590590970183943 7.3291765390013355 5.45159999719856 0.2629012117787537 0.31861573173223834 0.641354998714547
Ni 7.093654522231905 5.955121956595416 3.7961115230493774 0.04329840567731898 -0.20297111108202465 -0.18876910855002973
Ni 0.3633002635465865 1.8976914557960372 -0.7307570730703914 -1.3523408703533548 -2.3425634577061465 1.8144210731615527
Ni 4.544290734265053 8.482056857853516 3.853921557648817 0.7372098383323433 0.6701246146480717 -1.1450888725077892
Ni 7.511956065299267 2.1469439169726603 0.9085167563755839 -0.9251939890872324 1.291399554783292 -0.8516465547173848
Ni 0.39025046961939686 3.5719825950622366 9.745413005833761 -1.1215936175993262 1.3998373732724216 -0.301261556724507
Ni 6.181674289314098 6.6582366894743785 8.68435550161287 0.4541941151919017 1.3383165310498046 1.361722568678571
Ni 7.414355801410264 4.452498785074188 13.211612254028891 1.8380531107581959 -2.0875719876927725 -2.1850237394840435
Ni 8.406174640227116 1.6028797339195255 3.1232000266007334 1.1586280446448045 -1.0490987928637092 1.7563861326050074
Ni 5.674901170192489 4.518765950350047 7.835276230331857 -0.44462112679148585 0.6641239169799465 1.0342946379713414
Ni 0.543640484734575 8.751914338804694 3.20027103134168 0.6595175285561868 -0.023950083057694235 0.024551206976802877
Ni 2.891867291881699 6.432610319968442 10.79995509617587 -1.3875878664811072 0.10933153394799236 -0.2969112501756112
Ni 4.964032664552243 2.435395487488892 7.3806142631276 0.09322280131158783 -2.607616682830896 0.7336236636429817
Ni 2.9621937302316197 7.27073797179688 5.893394817011145 1.1732175124232052 1.0724930034179336 0.389512101632484
Ni 6.001017931190849 0.012532304128881283 13.73557087625253 1.5177533064553153 -0.24302375612853627 0.20651254857637985
Ni 2.0569664815522275 3.4234917671272274 5.103247959981385 0.15748366817318685 1.0138561676113311 0.5893585510425978
Ni 4.645566791513748 9.46680470486394 6.139911477786471 -1.4920792987279787 -0.02093649304235104 1.6197564250626941
Ni 6.102237869456953 2.1316514942166926 11.794249717441348 1.2756433203903 0.8639546826607765 -0.885191994772998
P 8.159961957274156 0.24544291757509065 5.343905798974241 1.3019709025412352 -0.148326427153951 -0.3154481326375342
P 2.077094489974761 8.938603487556444 9.495158820817894 0.5353743835166587 -0.2632128294819015 1.1062996675547334
P 1.7990810502204007 5.305993684968713 8.995842043849834 -1.1786502534030023 0.3899566453690703 -0.2696228467733034
P 2.926473997812635 2.5260369975366483 6.990482578688021 -1.486547570276472 -0.08570232456482658 -1.176951782654657
P 8.088195131704408 7.250058126712204 9.77009506969353 -0.4582718848057011 1.839900705489896 -2.7889421906186866
P 8.138533859088271 0.32847282295079405 12.729611924455572 -0.7092004976036109 0.14272939268214774 -0.09420084895414099
P 5.823859656315753 7.68572849489139 12.13641370151152 -1.4105311055408418 0.05606598975563247 0.21380085470767693
P 5.023892912648996 7.0797744272044705 7.038244509454595 -2.161959144355096 0.41239132022350267 -1.1863157403680602
Ni 0.9776487957126987 3.6490526644868075 7.241572001228113 0.4084924993897287 -1.6944654838408109 1.5161669358048018
Ni 9.324795619418156 6.18100086152301 13.261345831717152 1.1012826739561163 -1.536045934116916 -0.43788766472239427
Ni 5.067600246923392 6.36569778639279 4.837976335224245 -1.2564641763586877 -0.9045269476561841 -0.5589483141818568
Ni 8.053233005550396 3.4256710542844995 4.980085499522315 0.3891991983777555 -0.9411070607730632 -0.45138338521598387
Ni 0.21944205762443983 6.121655037433338 10.61146639871571 3.425519308328617 -1.8638800991236286 -0.16872607385622557
Ni 7.675309070457049 5.2654009542281015 1.460416084714758 -0.610069044117072 1.4326626473325583 2.068195897159006
Ni 3.5521351815526567 4.185896205113271 12.054674532735405 -0.03752293664612247 -0.0032095080762331823 0.6650276597411385
Ni 0.9376172547979947 8.913434123864512 5.737158634162241 0.3614587950396936 -0.6361585421152721 0.41699436621315283
Ni -0.052097122171705916 8.446440010235946 11.257149900127718 -0.06326225039375556 -0.1962517900803201 0.27870963956592
Ni 2.737624268231142 7.265958505112905 8.368858322753425 0.8588052772493532 -0.4983119314467224 -0.2861452699083588
Ni 0.7550135679788478 4.454986726635709 1.2245451949368886 -1.8655297189119096 1.1451179259735116 0.21548852682274502
Ni 4.922401732633704 2.1207550584303307 13.805933791941133 -1.856594878316125 -0.8456180891351178 -0.3425969251381842
Ni 1.046525493679026 3.7676414278647354 12.138001868718838 0.3672116383630708 3.241458403887534 -0.435833610406843
Ni 4.189066927629646 2.1575878173373644 4.853938444505795 -0.10853320641641308 0.3660338160048857 0.0772325965309186
Ni 4.256905424418045 7.718137207337523 0.5855286286566549 -0.12894056642817148 0.33020343656983775 0.5416201073160544
Ni 4.876842471933815 4.981120894751114 2.5704261774495203 0.5231102214373249 0.23713181612413353 -0.10584383250970804
Ni 7.604112787876972 8.87629271055323 7.968925458004378 -0.0867626475085409 -0.08471913471595087 0.12117172111603003
Ni 6.136470448837285 0.992754155193364 2.7779560457027066 -0.7921627975294552 -0.0122271381938112 -0.008118258231760211
Ni 7.5815716632030385 3.152857973583545 7.275480025825794 0.43447761059958073 0.22048392315480736 0.47226948463637375
Ni 6.418206447770161 1.445709170010487 5.286465214343524 0.5317419289703939 0.05676224449170869 -0.2191508061656806
Ni 3.712121047754996 4.750696352233672 6.3156546189839045 0.9964469709959484 -0.44392152962130005 1.0565076837332708
Ni 7.389597976923996 8.478671012570542 3.4223385220349885 1.035566048484597 -0.1846525152784949 0.39590232142954396
Ni 2.4432147323965308 0.4630395959886727 7.433057452358616 0.012732617075320007 -0.36294000757091044 0.3335147603312579
Ni 2.4068589848415174 3.1450106691846114 0.5619913920417361 0.2765974783189237 -1.9197702254230293 -0.7998771354545773
P 2.3583254180643216 1.9935707375522593 12.107762154949835 1.4603950802508203 -0.08501815401360843 -0.8662023410443728
P 8.921739733287936 5.204633449246132 5.40405693046409 -0.2953343926067946 0.5830557487530217 1.1059412557740502
P 0.9327302267307208 1.175673978947772 1.338468600228776 0.9372511773620827 -0.28698987729684117 1.4325844857964554
P 8.420475627623981 3.574713718881651 2.490672685340738 0.9539605196969636 0.41260292201367654 -0.004373960697979564
P 8.259329969114766 3.6665430807275774 11.46277733487108 0.25633410008419727 -0.6029103215851036 -1.3192024359281733
P 9.05317039051537 1.9085130662722787 8.276208688445298 -0.07908841879273476 -0.47837868285790514 0.6087582957254483
P 5.433318303303261 9.528722648989017 8.353306817361164 1.3668884291502266 -1.4079654016961944 -2.012561081403521
P 6.07068964807721 7.437224286815976 2.1722049416694906 -1.3676075667044383 -1.2289855113224446 -0.5458696266210276
