# total energy = -381176.41870349343 ev
CRYSTAL
PRIMVEC
9.16262518680899 0.00000000000000 0.00000000000000

0.00000000000000 9.16262518680899 0.00000000000000

0.00000000000000 0.00000000000000 13.41042813324141

PRIMCOORD
 96 1
Ni 6.323979667279735 1.9277704962196371 9.468271890646317 -0.6973646813109473 -0.1503534848863088 2.095508983151662
Ni 8.200952570253136 1.754761810130998 1.177652955446032 -0.2705155337909019 0.0695740515443963 0.3774538849163693
Ni 4.800968132397119 1.1543716414706784 13.197242213247053 -0.5854461033620691 -0.1010754645867872 -1.1856426255604355
Ni 1.9029489449743178 4.210895079536811 8.586455358796815 0.017124061274796314 -1.050217994069817 0.4234961718874126
Ni 7.5387788209183295 3.633017480610618 2.564610503569143 -0.3638892588580572 0.4376837762417043 1.2333139634944696
Ni 2.2330600000744916 1.7141255680590188 7.08171134946525 0.19430623631817506 -0.34254113219958426 0.8942060253461502
Ni 0.5872253089965045 7.798695005553242 6.90150267261671 -0.5968402041316238 1.0233006008536827 0.38214794795792895
Ni 4.340564549165368 7.5181262640682185 7.484950231307401 -0.10412350738449165 1.177057712104902 -0.02495024218743445
Ni 4.126562278628017 3.309769231668711 9.874955919505169 0.6390422914209704 1.0295162427460915 0.44070173713242167
Ni 9.20678889712881 1.1946963542911477 3.430092823751965 -2.494038714901724 0.4051089276294765 -0.51472662535932
Ni 1.1609595688776129 4.895691350106278 5.9074815507358105 -0.5574498752594592 -1.8778977535589592 -1.298939314803763
Ni 0.36950851026614834 3.8747916676575898 3.796975325680384 0.5606814948228795 0.6279988891226153 -0.5107702118147333
Ni 7.662895739769971 8.041238853103945 9.238242356381276 1.6135202143449954 1.3575879776849071 -0.10281712986824229
Ni 4.38467342612918 2.046261563294008 7.686482169159303 1.2055720174945108 -0.3183408808042969 0.9338516647622305
Ni 1.501570992278686 6.136155016494278 3.9675156005820575 1.2079700854130422 1.5334792018310042 0.699445475099376
Ni 7.073720624164015 6.997927389796616 7.124383526822098 -0.4278068834476245 1.0203708288013975 -0.6200294977638935
Ni 7.343596582222207 0.1453348096669931 13.045235180022718 -0.04254198712726867 1.5350681435846787 -0.7355316792989719
Ni 8.48537877688186 6.311069528592155 5.414970296823421 0.8640526416912215 -0.8996791326455795 0.04631816634024926
Ni 7.832697507093065 8.604914383211295 2.258919676737343 0.00519851348180395 -0.3957002327210669 -0.3617261897684674
Ni 3.548776305952269 4.563115548869157 4.364624686269496 -0.8870182493484594 -0.10792334074655607 0.028718450980615054
Ni 3.618256491664066 8.396620428076615 1.060945851467808 1.0663197847276862 1.0543852380736294 -0.8079871661562215
Ni 6.126671699573309 7.72200383393149 0.4780828682549496 0.02435014670959032 -1.4087267053422512 1.3754512311185734
Ni 0.3326903340501767 8.447143142571516 12.652483838806404 0.28399094256951735 -0.13122679135918688 0.8265106788817056
Ni 4.553100799695612 8.071255612749447 11.814962185209117 0.9078418709620302 0.3758523447572043 1.3584680662970152
P 1.7352637440364835 2.811111688876528 5.048959160536726 0.508450305432305 0.20823698746665426 0.7694455584375973
Ni 5.493149478752385 7.527710369864677 9.568997544022073 -1.6515563431821105 -0.07190141412599228 0.7720207753639413
P 6.192120330265563 9.169588639448486 10.860462213932292 0.5557400916572042 0.43349570630228573 -0.09069232158025026
Ni 6.8681937817927485 8.037757055587067 4.764202183143901 1.4408588099901054 0.6053377000796737 1.0217178297475953
P 7.812897074372085 9.113073568174535 6.483150957026299 0.11427782220967417 -0.8253624242098754 0.2847049379174064
P 5.241782023283912 5.700481358257401 6.921644871251846 -0.08698556215262439 -0.37530135734974074 -1.3427033472635908
P 3.0723931046430586 3.9151621936032805 2.2165562798444918 0.6403507258197487 -0.4877069022373665 0.0438031132278794
Ni 1.7897538751756181 0.5254490584220516 10.924094812340744 -0.34269051329325495 0.2878658521438913 -0.28136764601405734
Ni 5.209822787128993 3.4307158822549852 3.313984955451646 0.9397168652937558 1.2460542938792734 -0.24346470032069684
Ni 2.1714596719008914 8.857152288058987 8.702643858197526 0.5414110766290418 -0.35392777676997106 -2.1940750510530345
Ni 1.441500822487503 5.316265002269959 1.8731548371173943 -0.298836235112466 -2.9513312665132916 -1.1440162082689007
Ni 1.0505682623425041 7.390500059824566 1.5365264068231281 -0.7455983195063546 1.538135469656093 0.4978141658746975
Ni 0.26460653239514853 3.253638990646626 7.2886611475059135 0.22777454327894966 -1.3104771402400335 0.10191852931337285
Ni 4.143577273335496 1.919569946804886 2.0536997823050642 -1.0252554105872087 -0.7681489511133609 -0.23135814686514994
Ni 7.828171170321124 3.6068215356086366 9.070169576404062 0.9822809639082115 -0.6310746998344615 -1.952054796488348
Ni 2.9380506962418496 4.5493899365526245 -0.06568411015589587 0.08342664115677245 0.002736167984240449 0.546120309179253
Ni 6.559853123798105 1.4775374267871861 3.313971211514079 -0.08180273240010427 -0.5023228523783284 -0.0625945349027696
Ni 5.9042947897453635 7.053223831939659 3.214237870430634 -1.5110021037744108 -0.5281896928427613 -3.002520387792597
Ni 8.266703567571858 0.6790027427538846 10.94418295148812 -0.37408085467907837 -0.9327088094070388 -0.23966795228242596
Ni 9.170963033205147 5.60126845427648 7.813519216612601 -1.8040808675778088 -0.154226851798786 -0.46947855215479795
Ni 0.17620277717912192 0.7200549680028805 8.896491102424678 -0.38014891525002914 0.8063838262248436 -1.1096775828880308
Ni 4.1557544020195225 0.5781488126275073 9.830728844678283 -0.10332389430133174 0.47844784553294367 0.9491253030918492
Ni 3.886501502464352 1.8789703552330843 5.0426296191560445 -1.1963543555509848 2.405666042593586 0.41567076230572286
Ni 4.401999950088169 9.279448513731017 3.859695326634412 0.5738920799758825 -2.3046741388595406 -1.6688490688242874
Ni 5.9041206998695195 0.799154077486304 5.543871022210753 0.5680492480418604 0.6991202305494734 1.3550788381098084
Ni 7.865270639125959 2.603981387122489 4.788555524249451 -0.2854194474859278 0.2811591295476771 1.277525110794045
Ni 0.5400075533551221 1.8000343404754513 12.566294690063613 -0.28856622064502563 -0.23641602100403153 2.5547614867030775
Ni 7.548683618591342 4.244631864950345 6.523730390823004 0.09880415205410727 1.2808976268107035 0.5099160913445541
Ni 3.8427591305023157 6.001436940466248 2.2985471137919324 0.018692177092864585 0.43156300805594705 -0.3378606960047794
Ni 3.675724475942635 5.737351761436127 8.99900071889658 0.33514586817677766 0.30268131989016905 -1.1564060972928214
Ni 4.981444357896956 5.630817920044717 10.842384354719663 0.3646274225756624 -0.5171452621031416 1.7962675421809775
Ni 0.5666094026465713 7.600993044969905 10.585508329074488 -0.7711589415842782 -0.33030962313039886 -1.5358914108169226
P 2.53279695315243 0.6558020598789222 12.981763843815049 0.03728948047907771 -0.6196577162467716 0.535742822599671
Ni 6.977861240949349 5.844591124955957 9.039486693917832 -0.4517207139507446 -1.6934550402984254 0.7857309258611823
P 6.406617382555312 3.9332034023157334 10.516189405563471 -1.227584260099544 0.4887348292812486 1.0776012711787764
Ni 6.021475601438384 5.195996385936971 1.2107364456939003 0.15020178979979293 1.0340478120678578 0.07601569340468199
P 1.0159885154248829 3.896809455639318 12.227091562131866 0.21214994936781528 0.13215701648294012 0.5187416600559841
P 3.9710267184990773 0.3246428004736672 6.566952325682516 -0.30628112142628544 -1.684764968723595 -0.45138184255408714
P 8.17742294913908 6.490647816837639 0.749515556308187 -0.31984908991870725 0.3145613591572067 -0.15024035634721222
Ni 7.24061783934803 4.914190690070952 12.396438863252756 -1.9335449106096183 0.5629849461450755 -0.352811917997973
Ni 4.094117423345745 6.822976227198562 5.0104440661625285 0.4583184217729204 0.2025157687121609 -0.16657843138560344
Ni 7.36601752570589 7.023903431797533 11.425510305271295 -0.29450804005075726 1.4340147904850786 -0.20132869038259518
Ni 0.4431375325980562 1.220150126664532 6.001140071414809 -2.4015967576202186 -1.0599676172574133 -1.0956360171933002
Ni 0.34178882071928046 2.6698240106916526 10.53057839193322 0.6707473358337351 0.7987566486968889 -2.111672223175086
Ni 5.529369335552957 3.9272476960368636 8.015050238201999 1.0241601206405007 1.0040520370367159 0.619972676384029
Ni 5.80477035651293 0.1492445017734449 8.161854732926114 0.6432771554379244 -0.45657547093988465 -1.9646094932249067
Ni 2.2251801425362947 5.2609685601269165 10.94871570209759 0.7137503217578224 -0.31105977376185134 0.0787379774318515
Ni 8.634473011604577 4.222293385092063 0.6355123429805701 0.9334279469612505 -0.22910457494428285 -0.12939590879803523
Ni 2.1353864171010306 1.1001289012077433 3.5997479890743485 1.5620657552194452 1.135145645252148 -2.1679320741090793
Ni 2.379038942282107 6.934980155741488 13.104080306845463 0.7388779700633856 -0.20954593608606495 -1.2114914683027393
Ni 2.1366966724823815 8.800059971407238 5.194060323265086 1.9534923002658229 -1.6568605290038434 1.7401179915726033
Ni 2.817607990033018 2.519611935713518 11.797461571374285 -0.5421798364742662 0.13877452179945776 0.030022514504019267
Ni 2.8703388971636246 7.687992169766623 10.469038537084913 0.46859486399826394 -2.116446761745594 -0.29333433145763027
Ni 7.372449688487069 2.6643539235401374 12.092625458292556 -0.09028557306013484 -1.023786796461482 -0.1595840023456413
Ni -0.2838846954885971 5.102336032732964 10.363913907425333 0.4968137496346412 0.34325512754747334 -0.9555160371095415
Ni 6.164229299630365 2.9101230151064734 0.7678408063970166 -0.3244163975744155 -0.3535642227829653 -0.021723507720020654
Ni 4.784228016440974 3.5362693227666426 12.23554041868532 1.9592780537096643 0.4495769281348644 0.20771762462807453
Ni 2.4926921433330276 6.3102357297131135 6.831674307153225 -0.01103877431266486 0.5779778200094821 0.7232829438386059
Ni 1.2548489877077305 2.7311036469886987 1.5870298798054376 0.491842521672295 1.157992725053651 0.4456606237995937
Ni 0.14488034346479015 8.084825460440225 4.330722973605162 -0.48257678009965277 0.9979268979755846 -0.7490258571306648
Ni 3.2862121226795202 3.887161211467549 6.622471419614138 0.5017844633763551 0.6908171100004168 0.09690847769329117
Ni 7.441114400569912 1.832763237134101 7.478740720314802 0.16923900893690208 0.33813966069777895 -1.4001039966702467
Ni 5.682256897044062 3.3147170491926947 5.691989437366239 -0.7333794088426596 -0.00013986801197395267 -0.31354628762913095
Ni 0.27452873905574526 5.921163182452131 12.290857934865965 0.22116449416159978 1.286550711331423 2.9979970460009464
P 2.787472116261938 8.013192057842991 2.905516963496646 -0.9369950954872185 -0.7438412276059319 2.402505385477417
Ni 6.615076264940792 5.397821527790295 4.566263826834418 -0.8483077201521392 -1.3019133098304223 -0.006086572513712098
P 1.4295344341794973 6.2820881455766715 9.059562005390143 1.8283520814203478 1.5407428253719528 0.9630036037358383
Ni 0.9810056130053074 0.4838571545579397 1.2404041093252107 1.173149121079115 -0.17427605714017727 0.33214076280186666
P 4.640457266869062 6.378414822668604 13.200434471812528 -1.397011216677536 -1.6395253801595053 0.09858920782982376
P 5.96038838026727 0.6042861168292047 1.5282928719582172 0.12773574748679292 -0.5817614554216303 -0.7362099363129192
P 2.5451664969623904 2.1443383017694235 9.246275229757714 -1.4669742761302347 -1.283247615100119 0.2651169884831499
Ni 8.530238989099313 6.1074668374802155 2.911216116274272 -1.3770376017690864 -0.07908584768957348 -0.14308086248429552
