# total energy = -340859.5126011806 ev
CRYSTAL
PRIMVEC
9.26954333103324 0.00000000000000 0.00000000000000
0.00000000000000 9.26954333103324 0.00000000000000
0.00000000000000 0.00000000000000 13.56691364476903
PRIMCOORD
 96 1
Ni 3.491744221473835 2.1019152643826473 3.9346624607817136 -1.061530590869159 3.0292112668202216 0.3555036058975232
Ni 0.7435786533002074 6.4602783475459615 1.04082231367541 -1.3741517955808593 -0.8877183607392777 -0.7409885886484852
Ni 5.894697170256344 1.738437937104429 4.84124417704025 1.6419576437500816 0.4383021265519936 -1.3530978031240375
Ni 1.4518792791558714 8.849058164802194 10.5579892920476 1.9779404060058579 -0.47501490859199486 0.5149680519461647
Ni 3.845201172571604 5.080664427042059 7.059747120802725 -0.46613071872848755 1.6491065960900373 0.49213948408742336
Ni 3.9534230892290863 0.7030874347697396 5.479811883441448 -1.6904154821411534 -1.0873588647861725 0.11618069565934185
Ni 8.63499660408517 6.385185778223284 7.711013174409839 1.0586684388300156 2.685619838979252 -4.12915491024994
Ni 5.169689119768265 6.445243148503697 9.667769246460766 -1.6472641435646598 -0.6229423005353143 0.07425628751141405
Ni 2.1986522170368215 6.234843057343823 12.521324885849575 0.555563971090656 1.0885444004538414 0.9051100738531638
Ni 3.470044220883242 9.095387005338035 7.46991513709197 -0.304708634732843 0.055125994439866356 -1.5367342184331922
Ni 5.569456708606572 8.600995919691197 8.343014336420444 1.9298906016864827 -0.6232786008288105 -0.823656497262362
Ni 4.9093261908538866 1.2433330966325278 10.04278530109275 0.8758018118073497 -0.14882085029186629 -1.5186231106547783
Ni 8.579249571384691 6.196884278010856 5.014033096736507 1.0784728751504524 0.819679257782169 0.7460793729078313
Ni 7.509562827192816 5.2135247894790355 9.036215803385883 -3.2782143804606445 -1.987657633293622 2.200086290244121
Ni 3.767438974812322 8.635052221344267 9.498670531905523 -2.2849815455266196 -1.592644656447567 4.1368620490862105
Ni 5.94263924759703 2.308533381923999 2.25784659284693 -0.5449797678169066 0.9134070237546333 1.4943536965844522
Ni 2.800152874159222 9.099224596215652 13.024344989245142 -0.6332184856503417 1.876345064359859 -1.9938725038550824
Ni 3.0545925649798846 3.612869342241571 8.946565416494847 0.10603923634996576 1.370442722160388 2.1919551764965544
Ni 4.946209703177667 7.509182775922328 -0.1046920746135278 0.39193022415567336 -1.3681657532007534 -1.7296859976060017
Ni 8.074782492298311 0.939514549277869 2.9858468518743697 0.7817264326874794 2.5253161848587666 -2.0639628329142647
Ni 7.145130736966785 1.060324505577395 8.652421491359924 -0.7918642924524298 -0.23704774105075946 0.8219153462015394
Ni 9.296981030474388 0.579918379730228 11.917162942879433 -1.199436079800102 0.713591427582455 1.5857399589079335
Ni 2.8589403170236123 0.994019463191873 1.97129998530451 -0.1604322092785495 -0.19214008190479168 -1.193595304748609
Ni 4.512756594413595 2.005725214776249 12.053049811165545 0.6527362439682952 0.33902052064083543 0.8166435562796388
P 5.196802533577528 1.686936355181605 7.112753149584093 -0.7652081233174821 -0.800606557421434 0.7780255867971246
P 2.5732993438501377 3.8063803257226505 5.148494309281127 -0.3448710658843415 1.3659371209805509 -0.40969731833110734
P 2.281447776744285 4.974908208871162 0.7877396839766881 0.6187578301403214 -0.5999561240527861 -0.06955553960163505
P 5.114915389101965 4.004164568610933 3.5995870138151465 -0.055079971693279335 -0.08946719092389753 -0.15029486373423148
P 8.224949091857301 3.0778313097387975 3.5062464217830964 0.995256807342589 0.3767023514623254 0.01699344923420299
P 4.232853468470183 7.316163078229929 6.337200134029641 -0.1255780777138418 -0.35621143059782523 0.7903023472819486
P 8.710237486098771 8.706520399282528 6.707454424328696 -0.12836155399624988 -3.0809768294282875 0.0376805452699093
P 2.0821989460331425 0.10334335608045166 4.3445329247347955 0.18667931590053657 0.1905197726925493 -1.6232677806500624
Ni 0.474834203440074 4.801790220391921 9.213914800105991 3.751034595394166 -0.1747098022434862 -0.38170366133165873
Ni 6.131561807202695 6.524803637640415 5.506524852985218 -0.21042731024975372 0.48774366901257293 1.7315387345440243
Ni -0.01651461813421589 6.836695957107165 9.822499242128576 0.4315558089670955 0.5587002027267927 0.7220081908912404
Ni 1.5084234925700595 1.7748950504418062 5.6512437420157635 -1.3784195697182777 -0.3275626565128811 -0.6641611979757852
Ni 3.364575358551008 5.532786395775995 3.3646078019521473 -0.527931039864736 -0.677917114109297 0.3177019616687174
Ni 4.760679796376852 0.5091862035206705 3.117717227099438 1.4998044352863782 -2.9148735379068897 -0.2514816570879024
Ni 2.49579669329997 2.6532306147141607 12.983739755333529 -0.7662651038270869 1.029959243820781 1.5832961253531312
Ni 7.460146892486089 3.5235016764176064 11.34926530674847 -1.833038945373056 -0.41871546266931764 -0.016838925934209707
Ni 1.388716611909269 8.19654721154565 8.368764200427536 -0.013785226709550452 -0.8340398973792152 0.21000307822814154
Ni 8.524271910768372 2.977377270268379 9.285874263832932 -1.6250742377311822 -2.1787307073864803 -0.5761590216331884
Ni 5.869094691985855 3.3083185009754823 9.07059375818739 -0.7458302330115026 -0.08451987422095121 -0.10195632452984375
Ni 8.558726802778297 8.952496997177427 9.750716826676424 -0.7139081874919253 0.9831800786837133 0.34863927467752215
Ni 8.963453597219324 8.444386987620263 4.434630103607235 0.010337891590898325 0.07855440066613568 1.0938894668158388
Ni 1.381912767213201 5.5625601684786785 6.387167606555735 0.2751918562206486 -0.9139973490404645 1.538569214759402
Ni 0.2562481786955981 4.012006602143458 1.112859641565085 0.7913742401898887 -1.6811476836859822 0.11712351918858539
Ni -0.22558916461897083 7.115088147511804 12.00726104870619 -0.013559483851989552 1.3260274292698064 1.4270442727045165
Ni 2.323550041879898 1.4360932471158123 8.762231280764595 -0.3011625692527975 -0.9803798902307568 2.0391845975283207
Ni 1.6404217874910483 6.531218161522811 4.4397320601749675 0.25217096984544307 1.5207247303788132 -0.9609168964101386
Ni 4.03185269409752 7.60235095445118 4.199963275349491 -1.0522820756876974 1.736873002272744 0.5384604786411501
Ni 5.157935339012661 3.5728805329516025 5.837815545470308 -0.5375459372466806 1.5113252914417843 0.021647403066446587
Ni 4.966204107822651 5.444299336554382 1.4963897716103383 -1.0275570621371917 -3.28969075653136 -3.2162909034829705
Ni 7.732235793526524 5.331479726478304 2.562911893759656 0.3786563898649027 0.1770271375227532 -1.8367860711203141
Ni 8.490966442113098 4.919077750282039 12.92232254306822 -0.8165350557262325 0.7853614583369054 -0.3890413326436526
Ni 0.266796918837458 0.9715037428012071 7.729192602499659 -0.18718993698836794 1.6763816297559064 0.773569865018616
P 4.610494657731496 7.424366455801047 1.9096649387744087 -1.9347427875724614 2.887959487124865 2.0616290425747654
P 8.689575674344637 2.623262181604641 13.199521743265253 -0.22265984776020364 0.8835269483657493 -0.6175977483939492
P 0.6045735106874505 8.437759264244665 0.08169433797736388 0.8018473718070707 1.3836139694350236 -0.28509548848760574
P 6.960564862656966 4.940963141736284 6.939137386635944 0.06721583572486489 -0.40542131666357273 -0.9338958877366045
P 9.325253137181482 6.841108259662108 2.9593100036510687 -0.4747367152299437 0.18089664778048847 1.3994128841404931
P 5.408231544030676 4.391121648770813 10.85118401596062 -0.11005889903232013 0.9622721248864524 0.26829898575555733
P 4.406750098576767 2.4246900275458327 0.6252381033045404 0.12996720792047295 0.9790606571987011 0.12123728424664282
P 6.845511292673868 9.133735105484673 4.03702509919344 -2.387848297685875 -2.0266664104566514 1.1838508237673353
Ni 6.672838242267395 8.180816796764686 1.7624099027290898 -2.750863895689727 -0.5002191757717643 5.348265071440203
Ni 3.3009214055157248 5.174852255321003 10.722895392221329 -0.1545279279789726 0.2682028264973252 -0.3601303060362572
Ni 6.614291807525754 6.532766175234315 11.586470135929623 0.36507865118046806 -0.22025380942187228 0.7110344654885561
Ni 7.0579414137907435 2.6424130578200034 7.091859599250392 1.403307591209209 2.148270334014094 -1.1810102689947468
Ni 4.7924928685797195 0.38440424796737727 0.6811102748379857 1.2215072006675285 0.024974410557150536 0.3014597887782421
Ni 6.513754342166691 3.838721761886929 0.6121476544219968 0.5153529460894093 0.20952331037824562 -1.142326993491936
Ni 1.05398413804046 2.0803821155693423 2.9787241348928184 -0.7574783587733922 1.192299468755321 1.3051708975357714
Ni 3.255750921586653 3.614315390978065 2.2079606923008424 -0.2328352456313087 -0.9886241325174198 -1.7723295433081412
Ni 0.7465365645297923 9.059263595555233 2.4824198155330817 1.0731589191367064 -1.3787597266665157 -1.2919335729098913
Ni 3.05656697767779 2.7233917870636666 6.982347362181884 1.5626763922202507 -0.718690182261601 -1.412676948239251
Ni 8.946101012381396 3.864982377723387 5.668880901829399 1.1907889456480654 -1.2137692085933223 0.9736610834496845
Ni 8.14090214382018 1.1336095139794555 5.599472416386324 0.26545277455601385 0.9158472577650099 -0.6134677853859757
Ni 4.688581289502171 5.2132003554676425 12.859439816025732 -0.41959657972269027 -1.165160703557 -2.117588845769837
Ni 0.8791577727526558 1.501146901171676 0.7073922106237639 -0.669479524864905 -1.1725953054581741 -0.4420528518436774
Ni 5.639933045424289 6.189014435848783 3.2591797256099166 2.7377705528408782 1.0635607339253104 4.10798856058497
Ni 7.727730795539754 8.456984296805489 13.709773017297609 2.691463956464855 0.3016171402917128 -4.8233399082813255
Ni 7.302750049244629 1.4626690274204803 0.6488606071512152 -0.21317890485296187 -1.0100774172951896 -0.43287118534440927
Ni 0.7163419545666161 4.707203801756123 3.1686478051622107 1.136890652967713 -0.3887947638504852 1.8503093024177295
Ni 1.6094522437178023 8.196593559261563 6.104025702224304 0.007501450583367726 0.44414444426538346 -0.6007608793422686
Ni 5.84169392233793 8.914936808201313 5.971341461107799 1.3467821453186548 -0.9050699646438478 0.3758703424793333
Ni 6.003011782345653 9.121592003915396 12.139932312462241 -0.006955091161594474 0.7983385873228638 -1.2513430530820382
Ni 2.5239853741184195 7.8222801360028225 1.1624479897750095 1.385312440183369 -0.8093765903045802 2.126068086885442
Ni 0.47371907739520075 3.0545462172639715 11.33573918933634 1.3395822851361059 -0.12473886964199808 0.4189604888005881
Ni 7.107783747483873 4.6656020919523735 4.624594559866631 -2.808731200320156 -3.1159039803227753 0.21931509965768678
P 7.2648561567139405 1.2994138328875828 11.012507437694252 -0.3067079245510589 -0.4256597551976346 -1.2253378872675285
P 0.7940633663358945 3.208578216330128 7.791803731926894 0.9612801932868283 -0.7660380754179452 -1.193707404846441
P 0.6552612267188375 5.266908088667938 11.353960330370485 0.7462441806204696 -0.005230138050687767 -0.869050094905813
P 2.4714548729023207 6.190998118089871 8.51958708364386 -0.0911324944414624 -0.5543815207467807 0.26969895142687744
P 7.040690793927825 7.309006990892921 9.421936326485195 1.094829719241921 1.0256325914209692 0.24854262906423646
P 3.824956490260688 7.763001407349752 11.583295317389567 -0.007119384653600643 -0.39922624359645437 -0.9546863421193946
P 2.5667086986472705 2.2786854528758536 10.933765449220564 0.5662044815236378 -0.3477964670612526 -1.9433223017113566
P 7.047114587353405 6.112040149260026 0.5420411723772683 -0.6961724607750591 0.2902749758060162 -0.6321977576953112
