# total energy = -340856.27306130505 ev
CRYSTAL
PRIMVEC
9.50323528581870 0.00000000000000 0.00000000000000
0.00000000000000 9.50323528581870 0.00000000000000
0.00000000000000 0.00000000000000 13.90894544253712
PRIMCOORD
 96 1
Ni 3.212948804436298 2.909900135665648 13.402576123564575 1.225207275226935 -1.040514650739124 -1.8909851828705369
Ni 6.5637135264150706 3.6758323868152005 10.92631146316016 -0.3311737709029071 -0.7469923716404039 -0.7336470606817495
Ni 2.7658786055073112 9.517014937450769 4.636839448513497 -1.092872338405234 -1.4636565246109114 0.051851694563968764
Ni 8.168249268642965 8.563726403419553 8.275655783720666 -0.0005952103818376846 0.38415443686499645 -1.1863422227306215
Ni 9.302013743237492 6.724964422075028 7.156625125052069 1.9770227792875952 -1.6292957320116972 1.278558437154566
Ni 2.822993049337836 6.4223814118314495 9.83831171854145 2.860173061040216 1.3687900170483136 -3.589424820867747
Ni 8.041618658985438 1.9487049099094735 8.215624796993037 -1.1496206989398716 -0.17014223747746182 -0.5300159474182226
Ni 1.8778012717365042 6.0608498333548 11.553479373889651 -1.9131524629961958 -1.883017848394344 4.941122658320465
Ni 3.361113745162041 6.182899883623591 5.94256876618471 -1.2561397031397334 -0.10441609892424598 0.14950810616687799
Ni 4.270934481176481 4.163795007009204 0.9596347945287245 0.5551885900291083 0.2604275534272806 0.5226520508539837
Ni 9.537827022640263 8.73355872050696 2.4781291951597497 -0.4249583582552359 0.3852114173746011 0.01551583624741199
Ni 1.0692565137423469 4.925393782886425 5.973071300354898 -0.8824915651226994 0.2110160928736882 1.531687400037904
Ni 3.0300685453556624 3.85428413827104 5.174642736280474 0.8121078731928143 -0.24233932846700199 0.12733876915869036
Ni 0.5833969595083595 8.168097216879024 9.745065974304325 0.810603777843462 0.14428722408757086 -0.2719851763578929
Ni 1.257182990738791 2.0630478363934794 5.545357290975664 0.01811342177125913 -0.26034424968485487 -0.9974054782544757
Ni 1.8285460034547056 2.9866102505741337 7.656943851713369 0.324717473754602 -0.24645103664253043 -0.225365933837457
Ni 1.2058180042323041 2.7410941679848473 0.27784608889734697 -0.6814415823227877 -1.5420396898065056 0.5211916642583734
Ni 9.159598259835787 4.234660632241188 0.9700798003879808 -1.6029455241529427 -0.047692420979956573 -0.05925904277163343
Ni 4.363410463358651 4.504153377356999 3.0964372396690765 -0.6526963918692954 0.3844642547959314 1.1835672310886456
Ni 7.45828156985913 0.19000768551539338 10.185659718412928 -1.2392935781166723 1.062276467896248 -1.4954245610511279
Ni 2.791765418318351 0.11539493462577607 13.66644295341455 1.2107137095964504 -1.9231172875183908 -4.2936926570564315
Ni 0.8469710897127476 7.261289006437675 4.524246067638344 1.1943501806367625 -0.4371934668688471 -0.3164362075824163
Ni 8.711302143560022 2.27362052298196 10.43272482834737 0.9850909225531809 0.5897863826086359 0.6934542905129476
Ni 4.574515331120927 8.090275223446717 5.495938567047628 1.3411162052821288 0.7644411632444705 -0.1580505964202504
P 8.229906258921243 7.726367836158482 10.731154924788298 -0.7283341331092682 -0.4512841406339583 0.21841084267586255
P 2.16872381233282 8.106582775129441 11.324260389424321 1.1127839897274965 1.8198347879779562 0.07454116574168453
P 6.679396409068811 3.6814202891400507 1.1588406614390538 1.128530968149108 -0.4929074726016995 2.9480027163606906
P 0.30298499709449966 9.36540982556585 4.528724942409945 0.2777981834952442 1.0977198963055224 1.0414849850721932
P 5.0538870266522355 3.848325609771583 6.530207969907037 -1.7943626118487805 -1.7976309981874075 -0.11006147013548143
P 7.541083258560522 5.3388605419843405 4.49628945019065 0.2786546179582685 1.8607060722710214 -1.2455539572040872
P 2.5724592585384807 0.7956735761765097 8.15888953224884 -0.21214249316864753 -0.1317158151804635 -0.7538299633875276
P 3.1922412548345154 7.203414303787442 3.7400733067569587 0.23716781156839153 0.24886813072445524 0.7604672661983871
Ni 7.693999816909436 1.8707308647132248 1.987838282330392 1.0584347255526545 -0.2780830617255146 -0.9570165329144681
Ni 6.273066579640899 5.954423101830999 0.9802425601604206 0.7048962138013022 -2.4502723684490513 1.0881240250869713
Ni 2.148776521550745 1.072269039315438 11.512267643920358 0.040217452759150084 -1.0173577530066866 -0.7515645643921186
Ni 5.663491057999437 2.467400992890152 2.872294883472342 -0.2874475336595501 -0.0741668131214013 1.0528109516079738
Ni 8.779060210866453 1.5298403131916345 13.363089230792493 -0.8522659334689386 1.4212993998009393 -0.20655677155075397
Ni 4.458414306116348 1.4214369087365935 1.2572780230912546 -0.30007782082905093 -0.5002484863478031 -1.003978246375987
Ni 4.258380707416062 8.296096292412026 1.986809081953213 -0.6928703929850196 0.45440597409239164 -0.6141157033826199
Ni 1.0177394754719185 8.802675750453616 6.793490350789362 0.14782326226528733 0.80616091158076 -0.07926505357991509
Ni 7.671619697904297 7.426502751195358 3.2709109368507967 0.7876926775732435 -0.9897901278010632 0.7771231295875133
Ni 3.311582883058098 8.20802981138416 7.758604710761128 -2.1401150518968106 0.976403679191828 -1.2977802614986553
Ni 9.050120989797911 5.509025472305368 2.8571894910482785 0.7063825685388415 -0.02808467405135808 1.255736554164044
Ni 5.439879932652973 5.16436213639098 5.055971086141758 -0.8478510922306945 2.2507501351475754 -0.28636175679453907
Ni 1.894555475475808 4.0700550945392715 2.1450788127163927 0.4997440359075588 0.14485826609969243 1.4707548262185897
Ni 5.893916003017529 0.10989731303576633 7.844909291974322 -0.30483718989090725 -1.3218689270167427 1.260683613756674
Ni 3.7972077073815007 7.219180171061126 13.404676338554017 -3.636245637876028 0.7391911304284302 1.219539021197564
Ni 6.77020932508287 3.387646777969832 4.926506611733771 0.7566052121398196 -0.19860049281815476 -0.24404448408356677
Ni 6.721239153858462 8.955962934977139 1.8835079645019337 -1.3192068068035474 1.2794416110904674 -0.3061775059688856
Ni 7.352757645683731 5.177723685147339 6.7742263426215 -0.013286689806577115 -0.2069504074447468 -2.418238479941958
Ni 9.514163966876866 4.504029835298796 12.364635620929505 1.6628671402092392 -1.9111488023026053 -0.401586773408831
Ni 8.34429670158148 7.945303369763745 5.6086849500102485 -0.9711460303373144 0.9334084065772247 -0.9626868438263679
Ni 6.106816982241364 7.457910943684523 10.05050660738648 -0.42563378705570565 0.6755979790578172 0.8114571269826928
Ni 4.095922900879819 8.998565938586497 9.737833061958334 -0.1800900927187931 0.6064995815982586 1.1458314071007685
Ni 1.5122973409268843 3.629836728222898 9.875462716089979 -0.8045508867811628 0.8649401865024975 1.5877433624912074
Ni 6.054435149563519 1.7811343628106977 6.410355067627201 1.3989282311945908 0.35613661149583176 -0.4408305494008021
P 9.559779496059315 -0.05143911174140848 0.4836158403923258 -0.09987218830730542 -0.6203920233096348 -0.2554020751882311
P 5.480686824800771 1.786427664842911 9.539909181482734 2.357035426070076 -0.7290625266348605 -1.2355030007259884
P 1.9165364586006006 5.8222996222010845 8.047118181222498 -2.2691147536976923 0.5449553423368745 -1.5973921984348811
P 0.28446034062880216 0.8441980456678646 8.804863395207324 -0.23649418254013466 -0.8519879972172038 0.22469256191951623
P 6.523172724854169 7.4682789733382835 6.57535689023889 -0.25235840326590087 0.13701614434745435 0.7916637464058495
P 0.927816062276917 3.9386538607880786 4.124308114237122 0.514652834698591 -0.3897399013725739 -1.2511895582233097
P 2.3173639148208798 0.7627087537539932 1.438045712976628 -1.0809228793528416 2.622921688619083 5.079622586302297
P 5.68063489438384 1.3386922394466798 13.200535441580262 0.02084676154202216 0.33520783176296465 0.3187476293244123
Ni 8.440298384040043 2.039850439157155 4.198818230186079 -0.5818473302672172 0.037290766030658354 0.34771393464977535
Ni 5.24729687038582 8.873550878920847 12.1164994963828 -1.1136640783396046 0.3092119219198352 0.05577776909125232
Ni 6.787695277936142 0.13689220307652988 4.1044187931900495 0.3235573920082298 0.27692529397198756 0.5543614661421228
Ni 9.035086871638194 4.2433370860211 8.35755181410308 0.6250860863511944 0.19793534843033006 -0.38247884893478645
Ni 8.604476276155873 0.8974864869882115 6.121743713842796 -0.0756444261081923 -0.5374430931202292 1.106367030457559
Ni 0.21520266280049946 8.51037524074658 12.379865505735296 0.19049046211651066 -0.31513214405901213 -0.20095665175515715
Ni 5.000345799274336 6.912757853778024 8.013819795242833 1.3388425787566038 -0.9298474286988437 -0.00016429349200616864
Ni 5.966910352944695 3.8333580142585917 13.248312006457729 -1.002015209112345 -0.1455349804517429 -3.0509455731735198
Ni 7.911614400815457 7.737448608455718 0.4378729678575756 2.14900309841506 -0.439486633778398 -0.4221699968768213
Ni 2.026051741579464 5.11750168339126 0.15499016427966658 0.2107623249916693 0.8899050839779512 -1.0519953976852139
Ni 3.443639840041288 2.33589522355125 9.545723260806449 -1.5287406587047543 -0.624709419738066 -2.4262112137347893
Ni 7.3997701504473925 9.537922054992725 12.35338284007431 0.0595331223686265 -0.2745328824804111 1.7314932260180695
Ni 3.7157744845555825 4.823823204573504 8.178668615767057 1.2504195128265045 -1.6227355622956763 0.10257313217823626
Ni 4.442714961489388 1.4621867814729146 11.323397495663952 1.1776572933621139 -0.837942574867731 2.5791044343238165
Ni 3.003497499606886 2.077378715144966 3.437470339719362 1.105798816658915 0.05851110886201536 -0.6981226425228945
Ni 3.848449151829785 1.5579888959913042 6.170801314831471 -2.0914332704203917 0.8202461860292326 1.1586337010717596
Ni 5.4413814438218955 6.622529049354691 12.175584911203417 2.253530783216506 -2.9451451923072374 -1.8005191183684797
Ni 6.121765571283863 3.6721641380101118 8.2743338836979 0.45955666505539566 -0.3225451486936316 1.8757804501056405
Ni 7.499668159356957 6.242523181559151 8.690754248310379 0.3762603788289004 -0.2562379408259651 1.5789453045836033
Ni 8.056234634794315 6.099052839045101 12.446907029104151 -2.0414823924235614 1.7099913473905517 -0.9880800870884919
Ni 1.729503285717313 6.729335910288347 2.1810057935651943 0.11525201319748538 -0.2766437581758268 -0.27554384024342865
Ni 0.6676469412612938 2.081693183946806 2.8937142253940755 1.1193084211095754 -0.9579416158318987 -1.590639710202396
Ni 5.485704533010842 6.77335489594941 3.3864940355344504 -0.7674272424559879 0.11508900525705987 -0.21760942982048975
Ni 4.124204528972937 3.736253956511453 11.149911184624328 -0.3558810438416 2.5846063379786517 0.5558146536488815
P 4.829145016311457 0.8196378844972142 4.453310118465536 -0.11216823206583908 0.35205935610266464 -0.605650346224086
P 0.7422520895627139 2.4996169603752567 12.056301252714839 0.35916151436508464 0.12262413729184042 -0.23373641728933942
P 3.9237052717455803 5.110070153428619 12.907195277937277 -0.40866527752216714 -0.5242268515402714 -0.1594636747176931
P 8.417005954451255 4.595907113660447 10.44303108697203 0.5294125095062688 0.5741890423910111 -0.36146830812139036
P 8.607460292023227 3.241857646055675 6.344857819985877 0.19350199524932482 -0.9302986573036494 0.5227692931581385
P 5.317354720621865 5.220326688756696 9.817726760674345 0.15186657909672555 1.0690114726272362 -0.19980016955321073
P 5.726231417095796 7.69820024688832 0.16456182281978382 -0.08218454121955523 2.958611602224788 0.048873585772251316
P 9.673628254310511 6.20595473233122 0.007761292225688794 -0.15670719501847852 0.31152282944119897 0.470632463253583
