# total energy = -381161.83919572545 ev
CRYSTAL
PRIMVEC
9.31690835718693 0.00000000000000 0.00000000000000
0.00000000000000 9.31690835718693 0.00000000000000
0.00000000000000 0.00000000000000 13.63623714828093
PRIMCOORD
 96 1
Ni 3.014998093283971 8.645764761466172 8.752514169397479 0.1373519304203183 0.7953481372359722 -1.757647258705618
Ni 6.394809045889113 6.701614834464201 4.214755933762866 0.8102996163394818 -0.6260137403717864 -0.6956638965697568
Ni 1.0159715767069235 6.664952800512091 8.522266347579158 0.2483001740361272 0.47330075411436545 0.38991319372564465
Ni 2.2901705823888583 1.6781521965489274 2.3973867674233413 0.3282671387790734 -3.3051063197554824 0.9352881400984409
Ni 7.274315867501615 3.780260985971246 2.1936474129495047 0.11702504593750812 0.6211646398096012 1.6151091560986703
Ni 5.535929859135561 1.7135378140711923 10.548774948412506 0.48924545036907996 1.114064656212133 -1.3327958583418917
Ni 3.995723806092336 4.891861308925807 10.112660721967549 0.973985813778955 -0.4508984751597654 0.9199000876781448
Ni 1.4158812293946998 7.575811018375888 4.222311014660392 -0.023335332291830782 -0.03640039300590505 0.5802887275308457
Ni 2.080391076298464 2.9354037461294933 10.516170428001983 0.5936993445097969 0.32397648182351946 -0.5436931877949992
Ni 6.797988933371601 8.429155961630697 2.162570865491497 0.06777736465528973 0.2812537461440124 0.010904562727645737
Ni 3.5758852866641364 8.054252890677981 5.838654841898445 1.5401864386478505 -2.4611018549643875 1.7808540358393845
Ni 2.7921376480147306 4.478516674545796 8.206355144574237 -0.7098052210671454 -0.6587194581349236 -0.3777765583631107
Ni 3.739956040894543 3.820286423800538 5.919354174371022 1.9594048090955158 0.6807846654650792 0.4908508471829869
Ni 1.6596674505867963 3.1792645025875657 1.0751078567325474 1.9131491205620859 1.324808212150725 -1.0095971352246613
Ni 8.838941537060338 2.996783537661005 0.5370918097172204 -1.747443835810055 -1.4540781368938571 -0.28091050387198074
Ni 0.14257385183200702 3.0963067515559057 11.894303271942968 -0.8031604341915394 0.09165905636889377 -0.17894775158423373
Ni 5.769756305411571 2.667728972191981 0.9832310294359937 -1.287036135608274 1.4356142737617146 -1.25131040007189
Ni 8.247876877868004 1.5309170955209253 5.726946975398063 -0.058338073619260813 1.661524510138416 0.7555780564268858
Ni 7.544850932270968 1.4395089087091981 3.085171182819041 -0.44007155974759044 0.2175873183333027 -0.01805788594297535
Ni 0.388871911487506 1.292497413479125 10.36967602117962 1.4118464819181555 1.499097639027341 0.14987397414672898
Ni 3.3867986337904226 1.0167076124584398 10.955720730208448 -2.08244777909233 1.1971058890050286 -0.05798403271395175
Ni 1.5765419952066893 5.172747458757624 10.584024539074365 -0.388654381617879 0.626306846132173 0.8649545846802006
Ni 1.6353410031537703 1.7647714925216753 12.768576786193107 0.07392538653455655 -1.1437765814542689 -0.5186467863493326
Ni 1.800362082025375 2.86917916230952 6.0553344502365976 -1.8922951599312121 -2.045816243912225 0.41471868280509866
P 0.6538671426131686 8.702113422544281 2.6015761285655103 -0.9974625567446563 -0.12000726849428366 0.3725225090530229
Ni 5.122790196736986 7.8542281875222395 0.3912076603850394 -1.161405607389942 -0.14974644742992918 -0.1225817140896792
P 3.9473876861066826 2.892620503459077 9.279458934342847 1.6271583739537203 -0.1868405240687492 1.5004161007284482
Ni 0.6806905214564021 6.912549637177228 0.7442402209186496 -0.09021615327478011 1.6964884278081105 -0.016071451640565868
P 4.734759602064188 7.545391312949297 2.4245772324515085 0.7534098451309734 -1.4260608257453247 1.4379326374822463
P 7.281825295548731 5.5808373568863034 5.838218810592483 -2.820945997218793 -1.7382583126560451 1.2041761655882488
P 8.320185402773296 7.597435562417273 8.813250162569119 1.0375578821036455 0.7162126672553859 -0.7964861074951572
Ni 2.8448992994177287 0.04673920191211005 0.2951671067928828 -0.38201553614512274 0.3315956889316741 1.7091989333962432
Ni 6.238340888788292 5.169048646183549 8.985094013350032 0.6543007602419376 1.6620564713824857 -0.6965403856374391
Ni 7.042576408672943 7.140795255413257 10.326817311552404 -1.7482542475264924 -1.0545135361213775 0.8009171466833174
Ni 4.92917552645521 8.851416877203127 10.746200234167322 2.4689038675073096 -2.441695682523634 -1.113137002191541
Ni 2.1493827818678093 5.631689042098658 2.399772827625409 -0.08997035581256117 -0.4916077799536695 0.9261573814417662
Ni 7.655097907558214 3.2983998083424897 9.003939323661324 -0.2069645485121339 -0.21665143678259463 0.42686097459458744
Ni 4.986120469661129 5.157588849039687 3.1380800413723424 0.6433692009310984 0.007822581368212334 -0.111006350547254
Ni 6.014325146896419 8.015802010342439 6.138883824941946 -0.12707163154023277 0.10194552589656637 0.8382570207843564
Ni 7.88950200214554 0.94949543636428 8.974648827514274 -2.364143240759451 0.7587862789515384 0.17493888753515677
Ni 6.820833992393347 3.0584987378894097 12.298112982422957 1.5723072304417955 0.4259101806455439 1.5038135564457715
Ni 2.641967720888911 8.01281128279514 2.261297483731276 1.0614974236383783 0.16309432949174493 -0.2574031647786599
Ni 4.684187424099245 3.436904966343014 11.980211687816468 -3.1105213758546237 -0.7352537430472369 0.7484314180797755
Ni 6.1723585445827425 2.855157215397722 5.355277803297895 -0.9424800298611896 1.2481098908567212 -1.9586285930511234
Ni 4.618922481828717 0.8216124854562086 1.8346874353891265 0.14462095327790575 -1.006159570298022 0.6368938776194
Ni 8.253094346486348 3.9066168956176277 4.732592489205926 0.7010601278846637 0.3946851611929912 -0.13934607803221163
Ni 1.0071111969639865 8.600792045357702 12.64857780304368 -0.2625165747458253 0.99300734918678 1.410621608372119
Ni 1.5278891003406367 8.65241703395456 10.483088881889213 0.04850823201303259 -0.9782350759736119 0.007545159337109587
Ni 5.222676770053521 0.8601621250191688 13.091415110479703 -1.9638152794583856 0.015828482391824352 -2.4116549131871694
Ni 7.954152028471762 8.045001200788668 13.596650547518639 1.1293190112680422 -0.631749357303983 0.6909464364894294
Ni 0.8324219624044265 8.154987302644997 6.50824892563262 -0.019990069968681703 -0.6767524043772346 -0.9472283431794525
Ni 0.4630671103128236 1.029043198977523 4.214551893472256 0.9701690111360258 -0.6200891473572353 -1.2271021782568028
Ni 8.541955769777632 4.735775145063115 10.866131203886544 -1.7534689589582124 1.671564410872921 -0.7646265397823994
Ni 7.037116700440177 0.8624615379745387 0.5531448426268735 0.3954197253661706 -0.254312184558162 2.516710702577943
Ni 8.866845677260228 6.440098536877984 5.100034580034411 1.3946943956189013 1.084016944897133 -1.0489108452226195
Ni 9.284988519387465 5.012319615651811 1.6420072510045285 -0.6020731703957889 -0.711158135550614 0.5711780234788292
P 3.479958399352594 2.0894284772980947 0.08201022146293631 1.0944808205429344 1.4164582696585541 0.9658048206300592
Ni 9.317467261536653 0.6713661596827625 1.0816334192687755 1.4402751695724936 -0.02758767981028152 1.398000577173999
P 1.702133918376813 4.362092589090762 4.5195539286107165 -1.0607973122475602 1.0636116417679038 -0.5295634332618363
Ni 3.329434429713386 5.9886291139510766 4.606143410477074 -0.43107244157277375 -0.31874223000777363 0.33146404844981625
P 0.6177753034457779 2.139749098740368 7.849727189148093 -0.7467979962414106 0.37242455002257796 0.11708572397211449
P 5.506246189460487 2.6029764598750407 3.1363210090953006 0.6949473301187064 0.6147541082975672 -0.14220874429198735
P 6.3992345773064585 1.6303005557921206 6.939713083171478 0.387676591085642 -1.9362479113630782 2.1615529100556126
Ni 8.504231608285359 6.957261479854782 2.618062397708651 1.1463852227217097 1.0199990472842757 1.4618768070026693
Ni 5.304833266975937 0.19797405165056717 8.362449693654352 0.7561241587383429 0.25209203697839166 0.016022600680501438
Ni 6.06077925141617 5.077416853573892 11.152723960019673 0.9431791128107433 0.4692821198732757 1.0185638574996456
Ni 1.2735747728293831 4.804878653531424 13.221791266034684 0.07173712063398613 1.184574075086605 -1.1463476846155547
Ni 0.4880662385212863 -0.053505140681111826 8.43859398968495 2.1028800788047524 -0.2301952369053003 0.07813839617463962
Ni 8.380074488985281 8.827919634604086 11.072269662233994 -0.5641005478067576 -0.5619048257070194 -1.3471467277469251
Ni 4.06046700150103 1.3198052715512045 4.12043434974229 1.1189579797486924 -2.1050408339014974 0.8587577118408694
Ni 5.554899084326539 3.494464825493238 7.775204966843305 -1.1842591149493475 -1.2118521940762679 -0.46773303021860096
Ni 3.8196528740397393 4.275417391668531 1.4147864926756726 -0.20348198928017214 -1.0405082229812208 -1.1405508754281197
Ni 5.031996925869564 5.824427923005212 6.581121123486858 1.3197871047870495 -0.2008340101343638 -0.20785903530194527
Ni 0.4357890663471346 4.201040513132397 8.780304643316754 0.1566819982074979 -0.6492395436689464 -0.5547697573241349
Ni 3.364428737089275 3.2176408476571314 3.7289928349602492 -0.9296918769575859 3.5276628091686018 -1.1727066342250578
Ni 2.393243538325882 0.2760711716497459 5.201024275287397 -1.9749697534133084 2.236389238440213 -0.422693216370143
Ni 9.28875255031927 6.837278335449376 11.739313708180953 0.09820662767942441 -1.7548185310075715 0.39167491361175766
Ni 3.3330866577462266 8.288368161109647 12.160223672057562 -0.08245990636812896 -1.7043410910833097 -0.4665737198031771
Ni 3.073191502194995 6.941786095256445 10.204732272646465 -0.4273124603097092 -0.15117700922886865 1.1135897734582434
Ni 7.824469982581187 9.088709213347036 7.17395599524613 -0.4306682641558196 -2.025235077326764 -1.424080304980186
Ni 4.228823533525075 1.22523865284373 6.528430280586537 0.5336044361004294 0.22579016585906925 -1.2909467835165895
Ni 2.764559599603487 1.6726738544996669 8.168896514967006 -1.6935779390295351 -0.838486106076027 0.12959311241050583
Ni 8.51399572812826 0.9511072614910181 12.680718341423502 1.0605833964645413 1.787395693612644 -1.4831493432282006
Ni 1.0611399478885821 5.2427453904176495 6.543116523056349 0.6568188986781011 0.26046406309217074 -0.6501088336477772
Ni 5.285761555794242 5.324855302798829 13.41801653400728 -0.7764975801883723 -0.004255432842244285 -0.3062687801311112
Ni 2.8789153314276787 6.659185634307172 0.2293478084816558 0.9837266952158025 0.04674651212691949 0.5885630517244961
Ni 4.898494947597701 7.204029111685932 8.834645510667626 0.6347824877033519 -0.6824769655658375 -0.8996855604034828
Ni 0.31242481593887844 2.8903751285715398 2.8240778728672398 -0.8269801623189563 0.6062879798080849 1.4953937078131925
P 3.1836061818306876 5.479469395158488 12.20706349657874 0.8324733242230437 -0.4681377218561873 -1.4089185096380832
Ni 6.837129264917423 5.987781275300597 1.370823729421181 -0.07104112300822603 -0.13581621050208223 -0.32248241377649617
P 8.185295205172624 4.812248327954835 13.29869954854154 -0.7564558310461488 1.0322454687517966 -0.8685271325228073
Ni 7.905219626358299 8.851482095560856 4.6772155816579835 0.007165921620819917 -1.3939058382793348 -0.6465766521248025
P 6.3215688301591175 8.20186998494411 12.391698530692016 -0.09688662331642024 0.24925996684623525 -2.885490713869398
P 7.658088635105515 1.8549684812612872 10.818226456752729 0.5288733491733473 0.404529915197555 0.6447424271295412
P 3.117409548735455 6.362572543354348 7.32234546120594 -0.7219469986360018 1.7914426099885083 -0.22091715403748405
Ni 5.456745455943953 8.785387948456341 4.024257769289726 -0.7812068127385836 0.8856743337260553 0.48248190639300137
