# total energy = -340887.337199432 ev
CRYSTAL
PRIMVEC
9.12486253060541 0.00000000000000 0.00000000000000
0.00000000000000 9.12486253060541 0.00000000000000
0.00000000000000 0.00000000000000 13.35515866877845
PRIMCOORD
 96 1
Ni 6.6402262640928855 1.8673118476034558 11.428823581640152 -0.625902925825535 0.8702428296623335 0.989426059593425
Ni 4.625739510361615 0.6254554828641323 6.0762769164358055 -0.002051483212390015 -1.8089004004536393 -0.1646704157296132
Ni 2.764577820035742 1.7949699382611954 4.824203443234003 -0.621240230242543 -0.6346235935279845 -0.25919290968923103
Ni 3.323119774217012 4.468974373820237 5.145208803619126 0.48947967786707314 -0.3370245732567293 -0.6378780959095401
Ni 4.813729926137252 4.652447982693198 2.4773682126313115 1.2873688363573441 0.5242656751980067 0.045080694388722364
Ni 7.194808027979688 6.0418634102686255 2.5434632411542344 -0.2642153026044869 0.38340058941810745 0.30587128758237647
Ni 5.45925006899794 4.08812086573153 11.561787427020032 -0.20938858457259424 2.00786778969291 1.3320252987244543
Ni 5.954511102229591 7.8073509180196226 12.722271006070473 -1.8135332712399606 2.5783297609413207 -1.7223902352755371
Ni 1.9032729304387042 6.7405906259565995 0.3652317436091474 -0.5817514281193013 -0.14663695526667003 1.6788748284914055
Ni 2.8665025333749257 1.3827907774515018 0.16488443913127898 0.08875679512043423 0.22450281450621337 1.065010064777327
Ni 0.5949674925141877 -0.18283395601664232 4.862199370391063 -1.0329412092672403 1.6899030612811092 -1.4355908767229468
Ni 8.817610061918257 2.4197036445071425 1.55451338848756 -0.5268239228434861 0.4186753534600015 -0.24825826505459822
Ni 6.935096193507006 0.6932203612116807 4.819316166916683 -1.0298576852459103 0.9309463181899773 1.9755683062292557
Ni 0.7204799752340154 7.704385970363459 2.526942677725354 0.17920563323131072 -0.416828787169566 0.1410869719827183
Ni 7.906510798042624 4.06052728174427 3.6422855623363173 -0.14839147606393152 -1.0473437578458156 0.40022074629923976
Ni 7.932279409543953 4.107082329860342 12.669531126199585 -0.1788986435138532 -0.7316400575540496 0.12597145649751854
Ni 7.698984051805106 8.600155465357282 7.310159976384101 -0.5214246062047859 1.3606601888523275 -0.03000991609852896
Ni 7.114600487223069 0.7027248179184036 0.5458401456791983 -0.38757914627582923 0.17777841386648094 -0.21311642704614264
Ni 1.8878336632077373 6.661605816765554 9.414772083846776 -0.3662595588624466 -1.3540833069657583 -1.100490002851492
Ni 0.04113761729158845 5.074016626943001 1.3210939326196702 0.4208021699950172 -0.28959851856428187 0.6846657456870402
Ni 6.241086531695161 2.0394706270636513 7.2950820537053485 -0.4269936435177098 -0.6126149504673771 -1.2094140169484204
Ni 3.5576469883838615 4.165381075923372 0.3340019019436723 -0.15352391219449044 0.3267620149884566 -0.3373937836706899
Ni 5.755525227226227 5.4348593117234865 4.643441743475135 -0.20103018530556993 0.6142108341995874 -0.026764926798670038
Ni 5.431181992164339 3.2174721170065315 9.3921223503239 -0.3351070445190422 -1.1555067254070035 -0.4403392115866804
P 9.344862862828261 5.895153872124722 12.65869991449559 -0.378890874473212 -0.42558339343374446 -0.3746092163787226
P 4.252669509925398 5.898146827001647 12.45385861527112 2.5221732683544107 0.23510270150924673 1.9613668179178931
P 2.552333519922097 8.76837230424787 1.606492254831815 0.36769937663276675 -1.9396032009885564 -1.7428909263320498
P 6.008658035887131 7.932507531104695 5.86551905641195 0.600947541431778 1.1648022917763166 1.1285589931735662
P 4.821723305625624 0.70846344390041 12.774236185121083 0.9269410536853261 0.14429725138989985 -0.4558342218984859
P 3.8840615672172802 5.831836451725384 8.54417625932387 0.9763591991071379 1.3336908593523353 -1.0952233551359138
P 4.745384706539178 1.0088174156347502 3.8682545680303986 0.37988949094105545 0.3251165089652336 0.11904259058816918
P -0.08539776250660293 6.030694578654735 3.7264496434424315 0.4024241817084617 -1.0139512984282988 -0.7733371801825197
Ni 1.7977712710270977 1.4147186710928452 2.4596194427194007 -1.5060172489653096 -0.7699021863590418 1.0598256923629101
Ni 1.7574120045007582 6.354034078849362 4.822788177071164 0.572753081275433 0.9548928017032458 -0.73838688935958
Ni 6.264865923186828 5.500877691402001 9.04960238930215 -0.36891010911141625 0.5662597602416053 1.0231545621941216
Ni 8.98933997284426 2.50383487610851 10.329854350172953 -0.4048495033205027 0.11004887172999113 -0.4285699868658942
Ni 2.1065748653712935 5.506051488399612 7.030596091209474 -0.19424941493831063 -0.31884841656833474 1.0391874472872684
Ni 0.6893906564499569 -0.06979059780693057 9.168810504569334 -0.572549192794743 -0.37926317021096617 0.09410057593085083
Ni 1.4128845737444855 1.1128317224703237 11.573447176232639 0.5293243206678366 -0.45952066961113763 -0.28518136333319277
Ni 4.173401829999033 6.746375788736997 1.4253956726217778 0.3981947170081465 0.9920490990385689 -0.08515390826052431
Ni 5.512667013661108 7.873150300999826 8.189102312571407 0.0776938524380533 0.11317121940905671 0.6483926222876188
Ni 5.300404463822603 2.9561360570213724 4.900568504421496 0.21672239922984612 -0.33258299254560786 0.25755048898980154
Ni 0.5333737586278112 7.569830748975849 6.8558038764520814 0.7182222414862469 -0.4633685826023181 0.21587419229693788
Ni 5.17762031496924 4.356866314009564 7.160675567575341 -0.7734701062159582 0.6321095688568791 -0.1910653607833742
Ni 8.449102492696866 7.249858323017763 9.605644131177698 -0.5408883713563524 -0.5354227202560907 -0.9893854361634767
Ni 4.571574326979214 0.24799003619555396 10.500720136626867 -0.049868088475036695 -0.7291730840707958 0.22295963838880958
Ni 7.888434445569488 7.405218230744974 4.917489649311038 0.5705601873891722 -0.342300734054004 0.039590103587796334
Ni 6.909756450539869 6.2913918982698185 6.861466766075923 0.6207530061934793 -1.4834414205473225 0.572109277043847
Ni 2.4905490764109404 5.244980049424912 2.5647250831015604 -1.1848651239644625 -0.03798804920799909 -0.39276069047676876
Ni 2.4629372426988216 5.724938688362041 11.583182491958832 -1.7057636824624496 -0.9906211083427906 -0.5004739720950477
Ni 1.2341650181973722 3.3861178244313117 3.7843979947881636 -0.7784966128962721 0.5235699346825629 0.2247547826160194
Ni 3.7629472681885434 2.6579173030955703 2.7719032595942648 0.2915466434295882 0.22798305974532998 -0.5382704741175312
Ni 0.8589260379616281 3.0615555926711115 8.018557721275018 0.28746527427136304 2.0759495729624957 1.0673207151883748
Ni 3.5669817226493925 2.5192832682019066 6.845520156493866 -0.02210325965694258 1.1346941595370263 1.60553976724268
Ni 4.189936080721558 6.862991530587917 6.296463496808218 -0.9169443474839305 -0.42573637407184095 -0.2716285643494225
Ni 0.7518266151385901 7.790041053990579 11.671460061048233 1.8549519433960635 -1.4672529837129182 -0.1860627653624602
P 9.147583337099242 5.864028966377187 8.084945657881931 0.12625273518336322 -1.019718025708747 0.3403176421857042
P 8.70457126613976 1.3077387839676353 8.076144728068535 -2.084267348799572 1.312049884043792 -0.21144700976351974
P 2.1086370842803936 3.313100675269257 10.651232917431448 -0.7222128507028789 -0.34909898792276006 0.08122269152691818
P 3.8701826514617834 6.371827560587178 3.8524420939260593 -0.2971339077093786 -0.7676828101102199 -0.24597512544737637
P 7.321972110799282 4.017804675848652 10.488353210575964 -0.14717920092338524 0.17496125613265995 -1.1013932313920516
P 6.38008556108601 7.954680946808742 10.264641695846977 0.5509812368159801 0.3917026815258996 -0.33528085109274514
P 2.295267895554013 8.322139156850724 5.8458330782062236 1.6390533256190933 0.37346044748626006 1.674866735773277
P 6.69346071150746 4.0038801357810065 1.5966894151236426 1.1577212165598192 -0.21279812447477547 -0.19964847446669487
Ni 5.470482774648838 2.6406256887913844 0.2436110147155652 0.21809048322196634 0.21477967368117848 0.631515644026622
Ni 1.559594111888389 1.112694849533879 7.119114556667017 0.7983128762912509 -2.213338527268337 -1.765122484036741
Ni 6.729576917004013 0.9779388811728166 9.355355542136115 0.5049368929624078 -1.187919080299438 -0.7976826989064199
Ni 2.6094369090068428 1.4446847193118135 9.286082324028945 -0.3914211457297388 1.1357030604175151 1.0949472186563918
Ni 6.385323232120629 2.0181001992534124 2.693281619927919 0.6515666491402262 0.6687472746845708 -0.19499683462729644
Ni 4.400683903396741 6.831757126491226 10.434038379449719 0.2728174424512011 0.2704692539339987 -0.3437945449907111
Ni 8.190412642816305 7.679502470517805 0.15824792668619495 0.3764835505833 -1.6089696188598355 0.41349432347969434
Ni 7.659884016294059 3.6841814556958097 8.031845345945074 0.5382913000531374 0.99665805856549 0.2721260728111313
Ni 3.4150436383333003 8.039213672357015 12.574028491038389 0.19858763730234832 0.9669253073877476 -0.8546321197082701
Ni 0.4016052702262159 5.003554439261248 10.573438902787473 -0.7995976565409454 -0.5320412053783675 -0.2626325314983993
Ni 8.757550217406306 2.210452299270422 5.958510529432507 -0.547665799289502 0.6295258672901028 -0.6917180245481312
Ni 3.9279521555038936 2.329659502051362 11.565634469020374 -0.8674830075290093 0.7228232305933681 -0.6456088888948945
Ni 1.1812408161054055 3.274685004440433 12.852644303006574 -0.22595471646139148 0.2076330353340682 -1.0280054625285198
Ni 3.1989121468246244 8.421381160635592 8.112724476576513 -0.9207644925609691 -0.3046230169975721 -0.7553021770576799
Ni 5.7014239178808355 7.696474714636953 3.7471238442492885 -1.645886803601159 0.8302770879026733 -0.886967341505866
Ni 2.944082113751805 8.699506967491306 3.7429163701829773 1.017442599411009 -0.778120460503776 0.2995584579904712
Ni 3.031845040600173 3.956503850046267 8.760436411392805 -0.022496124219987066 -0.5628309370657145 0.6118094238469464
Ni 7.212738382653948 6.253432470562476 11.307892692346252 0.26280916628557965 -1.1903048069227953 0.6215104531847941
Ni 0.6915778859743438 0.08016739136192788 0.5352279306735159 -0.03937053137782251 0.9555186082127026 -0.5315059017001879
Ni 4.831769779160669 0.3664061134038433 1.6863028640727435 -0.613128399768686 -0.8615679275961549 0.006936579218833215
Ni 6.402879467435275 5.840505071033552 0.19894663809491728 -0.6168865812595375 -2.50021270492292 1.0501146357227333
Ni 8.12654773067119 9.02627741595948 11.31169867246566 -1.6279091360768159 0.6301483313654501 -0.28664277837006763
Ni -0.1271649953058372 5.095742924387996 5.895928572944999 -0.28448228038363915 -0.46526477118376647 -0.09352593437430344
Ni 7.6812635689667275 8.894185907427877 2.9631758883858463 1.2571809999200543 -0.21805860154276638 -2.2150727363506237
P 8.68635804073018 1.7620200600277314 3.6990850935021564 -0.42670696551522647 -0.5125555858499302 -0.036990461181420166
P 1.852839815790032 3.325729484871892 1.525385915125876 0.23101824702722795 0.9412854953324563 0.2355007082786138
P 4.474485790727746 1.0526167552970673 8.430323525816648 2.1464075697737424 1.1073980428252348 -1.391380757864636
P 8.548490494280609 1.6991497578874468 12.462806455369632 0.7027472857790994 0.2846054362250647 1.4772394055016689
P 6.345666580001373 7.725573900925106 1.5290458974464085 0.23785069656802904 0.7698749326655322 -0.19138417757537363
P 1.5693850892754027 3.4404928796495926 6.0037442974687645 0.8937180299661384 -0.054438481454538494 0.09284510625719493
P 6.9155963624948456 4.20082204160013 5.865999936661992 1.03230434701419 -1.4404983413268933 0.7775782148470608
P 2.390321587483671 8.468237329211842 10.247747013058481 1.5105187363800892 1.2035742703381918 2.236339359038884
