# total energy = -381173.06154690107 ev
CRYSTAL
PRIMVEC
9.18025556634111 0.00000000000000 0.00000000000000
0.00000000000000 9.18025556634111 0.00000000000000
0.00000000000000 0.00000000000000 13.43623197578951
PRIMCOORD
 96 1
Ni 5.9618783397030555 0.163246059893231 3.7506035406019134 0.0037473828575741914 0.015312204877038145 -1.1879836149887864
Ni 0.2722836282491727 5.1281642433677295 2.879384427868944 1.3859076505652068 1.2590411930572445 0.09840640239505634
Ni 3.674663547910147 5.531094843727289 7.881572613196664 -0.5417558615629702 -0.5493946090551506 0.8914634296040066
Ni 0.5916417713766517 7.149114900535574 12.35077259846662 0.49102388242574146 -0.1901366783215177 0.5408881142460362
Ni 7.189866055328039 4.1151597543545835 7.475059877085805 -0.1611678018929934 0.00501262272324298 -0.23132857917879515
Ni 6.5392980590399485 1.645459840920625 1.1006759303891411 -1.845449660332583 1.846310979891614 -0.3600883970547282
Ni 7.307630374696757 3.771625407995305 12.742425254770637 0.3314689335458227 -0.12316458317634271 -0.22199881713743705
Ni 3.5860373599474396 8.166718697625095 10.211011990812493 0.7745651390523499 0.7795422805519671 -0.26771817355142274
Ni 6.67500059793209 1.610455526159717 7.9762715402662 -0.7964372565350929 0.7872849006118635 1.2047297240988737
Ni 6.0122136813852105 0.815967744154809 10.425642695607698 1.725655279180054 -1.8951370002553813 0.18624839901070506
Ni 1.4775162442156562 9.057139233057752 10.019505431952574 0.5118284778759186 0.6902129007575145 -0.6694059913144923
Ni 8.132026511555996 0.60974707155275 2.1778650947451568 0.34595864252156544 0.3326500983381174 4.64283818194641
Ni 8.813082136829394 9.035189241819008 0.33051123570629554 1.0598089801923618 -2.550608383766652 -2.202036729102272
Ni 5.984691274972096 4.966123551040223 11.015345596992873 -0.8031182680996942 0.2890845550423408 1.6866300469567919
Ni 0.008209902620162548 3.996440688399152 5.925969769761464 -0.8567571364710729 -1.7242175182922628 1.9523237338790187
Ni 2.234465042877048 2.2689736238333165 4.853825155880433 -0.0479454175310271 0.13888379368381243 0.3703728096998718
Ni 8.80585727563956 2.0687797890598794 0.16785454822524665 1.1219970236853323 0.9911109034950156 0.12870196805480416
Ni 1.4105003780329584 6.725739870862471 0.9998253140142582 -1.9560634034271085 3.2673555833692696 1.4119806935031747
Ni 1.4441001136807219 6.698713198253996 10.122333475392628 0.7636271519836074 0.6849747922870268 0.1620969985754821
Ni 0.4251036718103913 4.855189341868755 0.07387168109574414 -2.0774860642116804 -0.03386245707539975 -0.2234334927014346
Ni 1.331504278238148 1.1568682751705508 2.2534709261315737 -0.5312518767078528 0.8786354246014029 0.7520769852521628
Ni 0.7295677681851569 7.914610517199169 3.0486141783892826 -1.1625183808381463 1.1230259791704786 0.2406714538462758
Ni 2.466303218846616 6.636930077786934 3.5585994118862274 1.3107643324631488 -1.0238276770017465 0.3679472309775147
Ni 7.569607329937257 4.823618442717755 1.722928346176695 -0.2574671852473759 1.060058891419639 -1.7658357080536815
P 5.836834077610654 3.635987130892653 5.2549913111057025 -0.8261800350151642 1.133277738805474 0.5153390621323383
Ni 6.356087697203223 8.397189015504084 1.4471094014799941 -0.763144298809918 0.04263711794423625 -0.8261414684677449
P 9.058516271403972 5.458176073167129 11.267476728057899 -0.2715020660738872 -0.800744368550879 -0.6062059616172398
Ni 7.038768227725159 2.180191371524704 4.35151186202306 1.274252353580044 -0.08248124652436763 -0.5950527732138978
P 3.7926022921360536 3.45536560114682 1.1071250599772704 -0.2611155806332406 -0.4375287387210788 0.14273684888131546
P 5.4127154472305925 4.509809764125541 8.994469299895725 -0.6089935516647061 -0.28108739576947717 -0.7463670793515791
P 8.365168283826653 2.856390641563766 2.1348693674483536 -0.5144312056060882 -0.042880858523926146 0.34080100958002596
Ni 3.451243666363802 1.3349652346149805 11.37148627039901 0.09922761274477104 -1.2502855583518016 -1.4042938663818783
Ni 0.13293469181624037 3.7663743017683866 8.726040460990403 -1.7373332297386144 -0.3458218598333851 -0.0495785822590759
Ni 4.405889270264153 1.9280923713544216 4.635043139484156 1.4462108183306381 0.30502745152484245 -0.7601047406526458
Ni 3.2719349131746993 3.935447069917256 3.1008938982162997 0.005847717030028639 0.3778200100065364 1.3019143382716867
Ni 7.348941525083352 5.2162855172701565 4.256208874132315 0.22702840914154448 -1.8866366760938542 0.3985274177572169
Ni 1.0220286803087064 8.174879944890357 5.909026689949575 -1.0606520449189476 0.45677781675867785 -1.0291909981961889
Ni 3.7677605203702482 3.55572415581932 10.949144937511136 -0.549257312146338 2.087413350627721 0.13627566663700402
Ni 3.6108883119688864 4.226424452729145 5.7223572077871445 -0.07370709987616338 -0.06529187922927465 -0.5390027242978652
Ni 3.8695879159453828 5.924900269979232 10.232026514001372 -0.5807579538577805 -0.7452386221740908 0.5223525173356939
Ni 4.680700222891421 2.193833231407922 9.447122000860588 -1.203702825496256 0.9523471524632566 -2.072382681546844
Ni 0.22078331212611566 6.038726259677762 5.132747945009513 -0.16177792467316654 2.730459363891446 -0.28791701709680095
Ni 3.642183803450642 7.9476043559745975 1.6407118127028588 -0.8602903464353119 1.1636062145856865 -1.2009697428358093
Ni 0.03555421207383152 1.4623963631741623 5.60003305544131 -0.22759122362354997 -1.473773044219623 0.09691413412024599
Ni 9.058791679073217 7.828609882349922 8.95190320856294 -0.7048195949270958 1.332486297521273 -1.1629305286749003
Ni 7.5900517592508 7.322309603467461 3.163332488936163 0.6436296536813367 -0.5579761800765745 -1.2817774583124957
Ni 0.3573533851763763 3.232560796728454 11.642239550032752 -0.6534258138361522 0.3719283271124497 -0.6203200324211188
Ni 6.663975110906691 7.202745953993015 5.260701430114694 1.1229663295771368 1.9155214774490044 0.1588306691193845
Ni 4.587759314777225 8.770733617555313 7.8292791229861844 0.23856931990160848 0.7539916857763723 0.8143683870922169
Ni 2.5342371105934602 6.33827800125878 6.1141301254400675 0.24187344457417698 0.5125774402268011 -1.7526387497474332
Ni 0.8371337415617718 0.5599065456496699 7.726881633535715 0.16448246808852318 1.7759591696409283 0.5314719631384589
Ni 7.965423232174682 6.673063563991742 7.121687050755567 0.2201208833884338 -1.1339860777264084 -0.489407686978557
Ni 5.664603301521121 5.6619502076407375 6.552487332320042 -0.6313294961577449 -1.2969953037035145 -0.8856709912919456
Ni 7.849531684956822 6.050403544853706 9.343381440009773 -0.27195149490648 -2.013564840077687 1.870208612444818
Ni 5.8806330772760855 3.7621513841733125 2.672842446319434 -1.4085441570178001 -1.1823914656129895 0.762598453608777
Ni 1.3207633791376336 0.6316502434877224 12.05838696443933 -0.9110441799494116 0.5090275180920136 1.4233177157825487
P 5.108591938340124 6.867244331320019 12.989464098031345 -1.3954425866388354 0.42695456274965826 1.0680791906209541
Ni 2.2680647785248116 8.01534546235297 7.931864807677305 0.8280499983443674 -1.8647010523630274 0.810017823433005
P 8.028225361017947 8.979933283113027 4.584495733896683 0.29657057900674083 0.1128068940911025 0.4721823242392062
Ni 2.942896190473295 7.275802428387797 12.511618021509607 1.3342410754288505 0.8021345640301863 -0.1977124337862466
P 1.9625642312881244 0.08024002443422872 0.6599392012468982 0.7224144251907235 -1.3315678994720614 -1.1309375207080716
P 8.471787772846632 6.993114816420151 0.9990486643869902 -0.8101816027043789 -0.47695866258192693 1.288849534667929
P 6.675165842533637 8.70217546842485 8.829351385877198 -0.12573208679320283 -1.3349455576950429 0.6782917238398963
Ni 4.030334192227443 0.5817812587921538 13.40309795844329 -0.3857986573366388 0.1820911823092219 0.88447594254258
Ni 1.7105570336742564 4.516052337961738 9.892089909827984 1.7534856711287607 2.2103696744479997 -0.004352877652057019
Ni 5.603279193836132 6.729072303660323 8.531550319047009 0.7626802146893058 0.8326666711807723 1.106087037323295
Ni 5.082676076664268 5.626477699842115 4.101974153176746 -1.2644911604282225 -0.20250831251299314 0.7094576079197394
Ni 2.5315197549235866 2.9220386496558857 12.96655477007807 -0.3085966569333395 -1.1240950438649415 -0.6730672422161634
Ni 2.9616789935157333 0.442955596930785 6.159289638991564 0.23277045383164427 0.2536357273164277 0.06100662159035946
Ni 1.4294576059325843 3.4556226483047814 1.5426813708610345 0.20797936292989344 -0.4266979666541619 0.7882848026312875
Ni 4.432502831368761 7.6363661489619945 5.585602611598491 -1.1085586387922393 0.25427336090042657 0.09209434413409946
Ni 5.450253512548545 6.269270019601883 1.886111062306 0.5562846513067646 0.655127369908291 0.4352083181180182
Ni 7.152438153077784 3.481501788958073 9.819910149846962 0.5182325816300495 -1.7978012052166845 0.22536310562397963
Ni 2.7451259431892048 0.10016668732959362 3.6833820366928465 0.9487116125931984 -0.725916267696395 0.8154410513311052
Ni 4.679800557838557 2.466119613733787 6.923354053800655 -0.08427921896505486 0.09265253063041462 0.6292427888320453
Ni 7.119976769129563 6.158537776054528 12.940528745334515 1.1016207740218253 0.6220516704002448 -0.20800378840992562
Ni 5.307867747549415 4.648945718627592 0.3860995196664971 0.8183970486356357 -0.758857498509106 -2.0685530233881084
Ni 8.188613607329989 8.18215988761404 11.34379402925653 -1.52966342762934 1.6230284109457467 -1.4758458675882518
Ni 5.765439229486978 0.473676404409385 6.0475402231191335 0.2664015116225283 0.1582539706803081 -0.2682282804186219
Ni 4.12259576142417 1.6681901538888932 2.255244551521505 0.11117321514242144 -0.44738557691050046 -0.2471876576982388
Ni 1.7709080342612502 2.4165278727585906 10.0051557743594 1.0428337857906038 -3.6300346239693098 -0.22960876827421103
Ni 0.3360506019603558 2.94480568364672 3.955062522146375 -1.0363967719160085 0.26290095466843755 -2.7932619010399637
Ni 1.066295873011853 5.431645134363294 7.482705193984017 -0.4086696483975414 1.1791901850668725 1.3019012256455642
Ni 5.796560296111545 7.27613291759089 11.011032712892513 0.4000705938746207 1.3640213920150766 -0.3230012623944437
Ni 2.5035475159840415 3.3512706824282437 7.91441130565175 0.15700955675024572 -0.5556966400137784 -0.5352969933115038
Ni 5.448068611705875 2.387600887232333 12.060818814158754 0.403522299868647 0.6353710132169703 0.934096690893501
Ni 6.208891478247966 0.18532549273651955 12.743285444724243 1.0709822232003618 -1.0166015915669524 -1.0164390978471591
Ni 3.1385182579372817 5.718757629550126 1.1026092922272335 3.0827809725165616 -3.571098254644417 -0.022109687414845793
P 1.659606614864123 4.610544709279342 4.6127525607611135 1.6315320775413837 -0.06682502804434944 -0.24651711399377546
Ni 8.705149871252683 1.4239035512694977 9.92886509590213 -0.10056921437433002 -0.5761207121960851 -0.8877787816635678
P 8.64442248018439 2.2899596882297066 7.51364816364914 -0.4328418747683706 -0.818387535553939 -0.8944595361178531
Ni 7.836789490126467 9.029827972524393 7.095230472022428 0.9815335442192258 -0.7062067050826095 -1.5394904410220904
P 4.655114850418656 7.736651261589362 3.4367728293961606 -0.3625885377687627 -0.7152037663748972 0.45895939779102896
P 7.670801287873131 1.7807400880532598 11.719242616327799 -0.9566753475249653 0.05859801214886682 0.6656244127848729
P 2.995150205584516 1.0679207782603923 8.297289473613658 -0.03052670783394743 0.5843271592662775 0.6536160754700873
Ni 2.148427687005234 5.047120946564873 12.02351943548748 0.9201412571546734 0.9548331521099039 0.4703223882123319
