# total energy = -340897.73732326936 ev
CRYSTAL
PRIMVEC
8.99866439729236 0.00000000000000 0.00000000000000
0.00000000000000 8.99866439729236 0.00000000000000
0.00000000000000 0.00000000000000 13.17045494437807
PRIMCOORD
 96 1
Ni 6.3448501779998026 1.9765835982858742 11.538253775358024 0.546026463913866 -0.30483564722901046 -1.1133825425434438
Ni 4.652111446120175 0.28854666847634997 6.015236305490285 0.20016012399579078 -0.1286006665902495 -0.9292306210504512
Ni 2.709524801367027 1.5073392523574543 4.7908843468361475 0.019852515949552906 -0.05358898897004964 -0.12188520224328687
Ni 3.5067434631787955 4.057281741932693 4.578840722339107 -1.1081272076817754 1.3613736699795844 0.5833506542856212
Ni 5.072475047848019 4.4709863321162775 2.5117773547623745 -0.7850218156092996 -0.21903767762658405 0.42641128865167854
Ni 7.053351008980667 5.923298752591089 2.674681973394894 0.6625941105989815 0.5349000149834013 -0.7066790167333378
Ni 4.938646913136872 4.426586922711705 11.34916484349376 0.2254536084552569 0.2999850040049285 0.23213384868890988
Ni 5.559239793069245 7.659690004742622 12.439138849051137 -0.2599521564527587 0.6678607583145595 0.1955956445535599
Ni 1.6364790829948714 6.524472515074117 0.4442748523702911 0.6262880770790955 -0.0637615586276773 -0.33699449134974224
Ni 2.902150208281148 1.4914926046149632 0.4385220063159046 -0.9540852182002859 0.11519673447951773 0.1440041456295133
Ni 0.4525626221436213 0.08951061315124045 4.648630762788661 1.1667213631759004 -0.0694156715896611 0.6961346655585883
Ni 8.603820859083585 2.3525207946164 1.3747844286375415 -0.8780949787169007 -0.056304073908367544 -0.3385818904415201
Ni 7.078079338336923 0.5764130379354754 4.8724230433291975 -1.5009490904137828 0.5239275751322976 0.3108895667325743
Ni 0.8106491682034032 7.642835506604242 2.574257780242465 0.3825037886354509 -0.8773686420738375 -0.0827992919854187
Ni 7.658745144996477 3.940137130739195 3.8367244811896724 0.047572607572640646 -0.8277178118159293 -0.26410114562412584
Ni 7.520354687511086 3.8755447187598637 12.55260210670037 0.8660465321927988 -0.800598329891318 0.07382485640095028
Ni 8.01658602752226 8.577445774169762 7.08166170657445 -0.6779813916883292 0.9537314344052931 0.16322468442202212
Ni 6.9326789214015605 0.5415243167756726 0.5080132911123919 -0.8539029548517293 0.41991693917658646 -0.8567980170113374
Ni 1.898205232677073 6.576232831834371 9.207188495910518 -0.002647722035492214 0.0042816580944894005 -0.3596055438810387
Ni 0.0456016309482388 4.859278694460682 1.3239338768328601 -0.5477560450104632 -0.831659827182813 0.16242172890475254
Ni 6.282813386667187 2.02329566440244 6.811825060804624 0.7008058457820124 -0.12165971649604211 0.9487676626421144
Ni 3.364474581402086 4.114009321358397 0.48976849934754185 -0.1499102267013031 0.3255818786374264 -0.29240102101008353
Ni 5.746528992083708 5.5208424927187565 4.8085991172767315 0.4070994756969441 0.6266840269659336 0.1923123458165978
Ni 5.176562597216217 2.7724074671390477 9.388137236095135 0.5998414528517928 0.26524194409678836 -0.524300127980368
P 0.11774032276678231 5.48332706146467 12.351331683042233 0.8676832964652734 0.2822988995790751 -0.72053186345603
P 3.985454403897165 5.988962005616051 12.5775608018614 -0.987154747060745 0.05526971910658223 -0.3988557476309131
P 2.3553013818693413 8.454991951069353 1.236293186112562 -0.48956786670550534 0.7256059355448278 0.36026426051096017
P 6.364656238011853 7.629958418063921 5.866133838082883 -0.8858103450832873 0.1614598792121155 0.2253260817384571
P 4.738714590852562 0.8267027852236215 12.572595338928801 0.8605212314991953 0.7900686340045877 0.09031231253301221
P 4.00919288018603 6.173668587991052 8.298137134411437 -0.2858418797353271 0.6596545683546833 -0.4600986536017947
P 4.739713442584201 1.0421353066768362 3.8350255333794605 0.03114891479897861 -0.8464308148444003 -0.22229372267003653
P 0.25847673202188737 5.667547715970223 3.343003768503969 -0.11087471006539613 0.043313575185970565 1.1633491042695578
Ni 1.3500965932704063 1.15643633996765 2.5990050067936434 0.538872369367588 -1.009746773428648 -0.22392791583934987
Ni 2.045657345061208 6.335599551151828 4.621486292081549 -0.00040623429948317134 0.37088085968454193 0.33263955681515617
Ni 5.943428764516105 5.671210172319568 9.3760727269365 0.05087596091426077 0.04995422043093977 -0.7734086568504035
Ni 8.648409240437385 2.2144632877082224 10.019305346252933 0.4731143491351723 1.0645876325279278 1.221374017523774
Ni 2.3737756395725413 5.163514534055166 7.034761568375081 -0.544620584705275 -0.025518970206710886 -0.4781817363557507
Ni 0.5509306205151537 9.117806563658037 9.044164195043486 0.9430137908774727 -0.5427915019163363 0.6391860160876863
Ni 1.4289878827414004 1.1245900671904348 11.529679848061576 0.16597782168712708 0.34525493158632153 -1.1590281082967007
Ni 3.935052885438509 6.811691880573738 1.4725882107606612 0.7530727735065288 0.07123884084132893 0.044240200765298
Ni 5.654202696888954 7.914190227032875 8.116819448992612 -0.6232654882026879 0.2811861261308706 -0.21756803505959305
Ni 5.433456464196705 2.9118417696773222 4.653082401992641 0.7263939786637619 -0.44032301363676424 0.3440650250432784
Ni 0.9511408137909354 7.38002951721216 6.754059035524585 -0.23076139382141547 -0.8202341018443744 0.2429903317874396
Ni 5.207643983532268 4.67728970868888 7.150292719068733 -0.7848243548865128 -0.5077710199770932 0.23626895390320604
Ni 8.307359865400239 7.106893061262225 9.388861628567179 -0.5298362273072488 0.00041806137402508646 -0.07892283974914795
Ni 4.638199511191218 0.5246446223773961 10.315587266517724 0.1305117675700333 -1.6449018139800706 0.1455948871554009
Ni 8.068589308217238 7.254264185668118 4.597700122872164 0.0458193723269598 -1.184707772450992 0.2473997737090449
Ni 7.240001302833451 6.138627789405439 7.209573219541878 0.4438120006266292 -0.39407529552313425 -0.6962555074071687
Ni 2.2989607450063443 5.1789652405707 2.4178456978655998 0.17909867533980123 -0.21510774644455857 0.4300419434257303
Ni 2.255164246106455 5.325418501223196 11.319650124623463 0.13389842465407908 -0.5154051394835834 0.10097981954918737
Ni 1.1151324710647343 3.4456425329280775 3.66874911525284 -0.5057568177605419 -0.014916254990200117 0.8692493554008126
Ni 3.6077894640308306 2.5369304210711827 2.6694276533399024 -0.11590018830444555 -0.007899714463050912 -0.6948041196726227
Ni 1.1302952203243015 3.2295486096525607 8.131057135567382 -0.5106825371969335 0.4619583325183528 -0.49403387289665884
Ni 3.665992824393371 2.7336232242258527 6.914844468726464 0.10160768294117341 0.1896088308425057 -0.07885753372885128
Ni 4.0115865248762645 6.8842841050704315 6.203310188027261 0.5613530669686074 -0.16663319588293882 -0.7028372743897444
Ni 0.9018101363779105 7.401365350146542 11.448825949917875 -0.8077678510565637 0.3689005960297195 -0.38847466150690513
P 0.2581626786395972 5.619080910325103 8.023203645210977 0.15374631261794167 -0.4202326706447924 -0.38068190493536375
P 8.441268988089625 1.6643569448382776 7.92396457614014 -0.1384096822608713 -0.09699255276666521 -1.4847745375364494
P 1.8233003514683868 3.249894589519553 10.282002451807603 -0.4933761847080019 0.18810242150030831 1.0715836042297868
P 4.007132186073009 6.1247968424547246 3.667326426435073 -0.4415877392818008 -0.09170867865990658 -0.2053576090363302
P 6.832586778959919 3.894504904332509 10.335948544113942 0.2903860474625838 -0.0757639824051921 0.021181262063305457
P 6.269891304805621 7.733263083642456 10.283714897614189 0.05528488861523382 -0.11106342903743453 -0.5221802534238877
P 2.3899732352207432 8.389868617899332 5.553993571812077 0.6569394834163654 0.5201719647446074 0.30193364309086707
P 6.912017988285854 3.8468749744625454 1.5468307902806215 0.14587719428251006 0.8382158831337756 0.2710040433915462
Ni 5.362744960528053 2.8137293333704614 0.36641390995580764 -0.6891708326462453 -0.20051519334236437 0.1301081043737114
Ni 1.3773805432733783 0.9734934957854545 6.854313153922708 -0.027854560318422997 0.5968880266504236 0.1761514197860192
Ni 6.976169465716983 0.7707760869160786 9.246699830895032 -1.373447827535299 -0.7488795613607877 -0.4621341959745847
Ni 2.831465700605243 1.689121268851529 9.180873702047164 -0.9139801226492839 -0.948351143929986 -0.22259454173990695
Ni 6.2931438532250406 1.982441728711974 2.494220960812573 0.7208301114227392 -0.41767570855089353 0.7843124482471009
Ni 4.062914905752568 6.882061435000928 10.46042256733825 0.35345700778113964 0.3556974670758842 -0.20614025283862564
Ni 7.9780717445365354 7.029459555399568 0.26692557788527466 0.5671038534094556 0.6714297066127404 0.8816580134778107
Ni 7.523081282778533 3.8459481120448986 8.128659891411447 0.4321651604163202 -0.30143227797441635 0.11070321748453837
Ni 3.0752395151106873 8.35474683133548 12.281738713339731 0.46839020418662564 -0.6746937220759929 0.7170379913701587
Ni -0.05789110671309982 4.669352886821261 10.0649006781362 0.5391197094917038 0.5963804908863858 0.7007276842459094
Ni 8.708223361700497 2.432221963869804 5.720916094031776 0.0006281205023021441 0.616171557470384 0.310107180040595
Ni 3.634974428727064 2.503329408765412 11.478986772881253 -0.5608046506643052 0.11094464407138313 0.03463841600947583
Ni 1.184251211161313 3.5099469876514404 12.543264192809183 -0.5991966201789422 -0.8208941040258767 0.01015482904581477
Ni 3.059554843324678 8.505357474871014 7.8690835226183315 0.14008655574266196 -0.44503018930444643 0.6877582685694348
Ni 5.608039549291578 7.858011566126359 3.682275007485514 -0.7234935171875152 0.2175037574805609 0.09787366982003788
Ni 3.076409341463058 8.369747604638563 3.3455719872806338 0.4809305027454815 -0.15014573975087692 0.9264705418068109
Ni 3.3759298809910647 4.312033926821918 9.172010017761899 0.11458995413345427 -0.06502911248619123 0.1262874450760406
Ni 7.193748168593586 5.975625985199031 11.468489831034793 -0.2955207975859878 0.26010153754642945 -1.160952321902607
Ni 0.31873538729889944 9.095219916393045 0.2624658398834696 0.9408476364640893 -0.4644196495746518 0.8918586081598964
Ni 4.6609931277339385 0.22211402965809815 1.5979450029477984 0.25685320581246085 -0.061762268809461375 0.07015460663821467
Ni 5.844254485827862 5.456610027309385 0.3785756046883329 0.31547410077946314 0.29145228394356903 0.36019689760813445
Ni 7.8125863089974015 8.735030382498271 11.382038763728213 0.5717228402387057 0.2331566335264694 0.28018133901544007
Ni 0.06887577616185567 5.176004680032778 5.577819335144157 0.021249653407395663 -0.918189018524309 0.7550579222573577
Ni 7.812559313004655 8.694464404063774 2.647840757672973 -0.37806426480685856 0.8355403931841417 -0.38128559995763367
P 8.436742659972378 1.6778909358687752 3.557630009640473 -0.5589477999612245 0.5875356389012463 0.08125354476485361
P 1.640501485914175 3.0065437122338117 1.5983661404346514 1.8484833049525842 1.6446341621409806 -1.236610374857554
P 4.63151350365421 1.1142955952895772 8.056314230315175 0.8813373969135984 -0.4171568599329461 0.12855721494682373
P 8.433143194272777 1.7639811567389705 12.281831399581497 -0.07269305678935221 -0.5943012397598538 0.4730598417481531
P 6.293737765065475 7.622903465292704 1.4860088186216218 -0.6954183562178539 -0.30990149178769205 -0.002631524085576113
P 1.831615117234464 3.344470550776556 5.870901330402004 -0.4331136403725186 -0.3262735053878123 -0.06203789106835122
P 6.9034872545778 4.021530048871411 5.969403408870847 0.654431372282531 0.02317618100614718 -0.19047632104912357
P 2.4439742193789997 8.509496860425553 10.216598360313013 -0.5410963736021004 0.743979295845693 -0.9896682575112181
