# total energy = -381160.1554252251 ev
CRYSTAL
PRIMVEC
9.30909316101890 0.00000000000000 0.00000000000000
0.00000000000000 9.30909316101890 0.00000000000000
0.00000000000000 0.00000000000000 13.62479881870780
PRIMCOORD
 96 1
Ni 3.538377076293414 2.0282652608473293 3.693642513502642 0.6739830691622135 -0.6381904849436363 -0.0252150658130469
Ni 6.06287286768383 8.034334040860468 9.255325896611563 3.861541123486866 1.3090920869670488 -0.05205738281687164
Ni 0.2921696186790792 1.9095370841590291 9.636779960596833 0.5527043901546739 1.1233833625098977 -1.6423091135522299
Ni 6.454068897868277 2.9942326422365526 2.448253385878824 -1.066147777926196 -0.18015462740814137 -0.49534307862638566
Ni 0.13849510552473865 2.9497537941718903 6.953171283712316 0.3166958890017062 -0.2604666341953321 0.04233372777120452
Ni 2.645411605017853 1.6371809397831787 11.612552174907574 -1.8451285295477382 0.7064152215489897 1.6040963499279342
Ni 4.860063533079637 6.433095510532637 13.253959443075297 -1.5526434334642807 -0.15985371106726018 0.8565031114787379
Ni 3.068137534405944 4.134028723900249 13.315434833793047 -1.4460958900193288 2.57084579385945 -0.20157423073449798
Ni 3.918970049143066 8.574093891945697 3.448682099970134 0.9011919697456802 0.2333378962993401 -0.13295560112483554
Ni 4.51741442475731 0.3856552578177483 13.1853039486505 0.18969856234283458 0.9097676272298332 -0.28854153805467725
Ni 1.0458673296811851 7.242521178013248 7.812391291565022 -1.7988437875485859 -1.4689355136216637 -1.4431038972705403
Ni 8.793797804288536 4.407334395798618 10.826238193506942 -0.3550197242825692 0.6945112710225523 -0.405069846861425
Ni 7.902396260697125 3.53060398333946 8.778199487457822 0.012757813886300609 -0.8701716101047658 -0.4382033961906001
Ni 2.643177422611926 8.734061352210064 7.864602272572863 1.5247541632531805 2.206962962759296 0.7968810289407309
Ni 1.2095491181954066 1.0847979581044618 2.3808248299586134 0.3354130057952352 -1.6975279248162187 -3.057609872567573
Ni 1.7101083771499768 6.161884384639825 9.901332292010649 0.36137394863537114 4.468897910879097 1.7797273784341092
Ni 8.718766511822825 6.1300752126354405 13.035117552777411 -0.15442508385252113 -0.362837163444459 0.578477642464036
Ni 8.907536306936933 1.4297743397662954 0.4003580398674191 0.6231608443040235 0.925079060775923 -0.34190195595368855
Ni 0.1386393964717881 0.4303575241230029 7.658840589352343 3.729959005670789 1.8842108402611808 0.19736662041105366
Ni 6.270549431408096 5.260447638408458 0.9165100301966876 -0.5448589259683262 -1.683927046203332 -0.5031047248496755
Ni 6.8368867440304975 8.303850911762119 2.5203830339448388 -0.8432056230388834 1.8009682900907564 -0.7920190728627392
Ni 1.4212658284370572 4.42158661772976 4.048022941274756 1.0073121958452265 -0.9695259782353883 -0.3853705686602847
Ni 1.8679906005021465 4.193867576005658 10.298004861817622 -0.3745696213900388 -4.527339857066075 1.3607596905446693
Ni 4.816385267043764 6.3334789025083715 8.408544699303855 -2.577516521011406 -1.654010718259874 -0.5383486356536342
P 6.112248298854815 2.210295272370226 9.415771844274534 -2.2026918461877676 1.0028639302658857 0.31913946544619226
Ni 8.045830771157632 1.3644058862062167 2.6933916030944696 0.5553467128735274 -0.9585602232525039 0.5909971150872854
P 5.048414418992634 6.947962845978498 5.021079197256118 0.35926075894711024 -0.03684750784565267 -0.9466333899079309
Ni 4.360723765354968 2.737050320034289 12.369682148630783 2.3605483243193413 -0.25014905431940787 -0.9646853623136354
P 5.565869682392027 4.42484480040507 11.661342995015675 0.36089495211642364 -1.3691438008433066 0.6338113820393343
P 4.188393829111138 7.838396243860675 9.817676124548722 -4.096942844293769 0.6990520963156993 -0.6296392529395156
P 6.949843282836821 4.366393003210008 6.720486771591041 -0.32331236587695933 -0.6486386768601538 0.1380787812840138
Ni 2.017224676124707 4.959382250116446 8.038740034746823 0.6226797909025469 0.11448890977921573 -1.86071147158766
Ni 4.033751170247562 3.779203321465621 9.91295376415881 0.5927302957283083 0.2228925325963 2.3400005820749765
Ni 7.934400923662027 3.8778424746872946 0.3436470431303072 1.2269373705441644 -0.7325373725573383 0.11305603398743108
Ni 0.9887094964628877 7.853551447847547 12.124218113147606 -1.3791849871293924 -0.6399498908369043 -0.14711389490308857
Ni 7.039201269980539 1.8887312605038344 7.222874336481128 -0.14744016789425576 1.2917543670195495 -0.9029611458309611
Ni 7.947666381697219 6.3838690248553815 7.020558879621751 0.2564467144026616 0.8647540386336204 0.2636645723073395
Ni 3.9620059877372333 4.287693927961231 4.166109721430688 1.0442766888847177 -1.5207293583645034 0.5240077935509297
Ni 6.322885154266935 1.1505853208656518 11.461330607853073 -0.2752491918211453 -1.2963291308744256 -0.07551612806044415
Ni 4.7748201652001665 0.8340053975831493 7.819490406159855 0.7740144087552024 0.6354818277632217 2.225657968065638
Ni 1.1876541306173227 2.02849798818128 4.177772153589626 -0.5685950932430014 1.54002908713438 3.3543277757854555
Ni 9.218655516055616 8.263049155573878 0.7599953126588124 -0.6024665491794656 0.158497711259998 0.6842715955724151
Ni 7.541343074805974 0.822638994592996 9.30731811392549 0.7588551845162608 0.07485895409241948 -1.021697518032621
Ni 7.044619162314913 0.19726992825932552 0.27642794181065233 -0.8887000079262566 -1.0325591433374735 -0.28723978852411824
Ni 6.749297484624805 9.112857670041617 4.725843163224904 -0.884509881104309 0.17918403596475593 0.4143610423553638
Ni 8.915560745411554 8.13897755929807 5.450927513972437 1.9224215470029469 -0.806696986589888 0.10417621499929801
Ni 5.967063678842997 2.3259886846238085 0.3119979875316807 0.33595782255511175 0.40427306199174246 -0.4123177866730899
Ni 4.351908053944915 4.880506302093868 6.454080999689642 0.4656383524731013 1.828014495575271 -0.9256364759412896
Ni 8.57530407408224 3.956671877243083 2.6974243023371676 0.7395073761172684 0.4383820878603095 0.4116523851749491
Ni 4.2036979785917366 -0.02755770906777285 5.873459814218681 -0.6389528170309577 0.9046297917826356 -1.8596035832354616
Ni 2.4295895846053117 2.675805794831817 8.267024138437757 0.3526306552251024 -0.7316254022660303 -0.8960135108685343
Ni 5.476614095275247 8.063164302990282 11.686998856310401 4.995301458355713 3.8116349826850415 2.0088088134499404
Ni 5.0033956435132065 3.51572805215333 8.032527145839675 1.615341326714134 -0.35739645204486187 0.07910718784581214
Ni 6.304890676805864 5.091087302945838 3.273044642856196 -0.7722364909191733 -0.5712369017412227 0.661633546457925
Ni 3.3235418197768234 8.018750618579126 11.948144990464513 -2.204885511404977 -0.4509128733374686 -0.02444116376149984
Ni 3.126673113441229 2.22387723957959 0.9131261747610441 0.5248950812518896 -1.6055922177471702 0.32541192871846536
P 1.4964833027699305 6.114677972221261 5.576943779850738 -1.5308301942439313 -1.0558353402565945 -0.2874220797382534
Ni 1.8701223828811349 8.818532065340818 4.953499834023508 -0.17919226349487205 1.1975216363862087 0.5471178972058319
P 1.485070354312987 5.626183298258696 12.258354701162116 0.4680382201638456 0.4308911787999031 -0.21366972844645138
Ni 4.989404076196089 0.864142656420432 1.8538994258860981 0.09890365374644902 -0.26829641465239595 1.2130960937856978
P 9.347260640796785 5.28353418993637 8.868054580186861 -0.8620255839588639 -0.38631339218952826 -0.3467896230632931
P 3.368793322590202 8.492155252208327 0.8653463221916251 2.1275439001000196 0.7806648241921845 2.1718617481807883
P 2.3376436695080605 1.122955931779022 9.663865698631353 -0.25418902871673643 -1.2282717730848718 -1.0677187219577418
Ni 0.5228191629922888 6.202583740801128 3.118171118477342 -1.3364306268810016 -1.652681200815173 0.282498674294707
Ni 1.0975886523783933 3.1967147318670386 1.0787861456138468 -0.748122371479789 0.2613374668360596 1.02582645259933
Ni 8.880456154358427 4.835943672188984 5.529351970967151 0.4730680692782691 0.4030106503395511 -0.5147070849752942
Ni 8.568564290491027 1.2711101525720514 5.329844136664556 0.09007345704932875 -0.06148433255772637 0.06975814253074437
Ni 8.042712224882694 8.846552436348485 10.968916805586778 1.0294594213662271 -1.6573752638567327 1.2997803226478195
Ni 1.7584411898648626 7.90963873532967 2.7889280354999126 0.660137935749005 2.2733316199925167 -1.3113276611657867
Ni 1.266120478532148 8.420102869617184 9.88928818702403 -0.7463845628530759 2.057379523269792 0.005896825100409199
Ni 5.706278737511177 7.831051369201191 6.916124815784704 -0.5005333645780735 -0.38588376085127735 -1.024068846478275
Ni 4.9194834759839345 6.249808771406408 10.966750579562365 -0.8891224401756558 -4.443581286491179 -2.3824973177866062
Ni 7.831507514775734 6.421002998260559 1.9683882414591518 1.4062967557445198 -0.996152322573665 -0.7486867286236912
Ni 7.314964542525429 2.935380554027094 11.955801719751491 0.8949107647226588 2.163412846082487 0.004137933427773518
Ni 3.1297916597161692 7.188519127443322 6.149076003088513 1.0269094012508637 -0.4038136058568207 1.5807967559700453
Ni 0.329380857559128 1.4315337584109629 11.715583358375564 -0.9496791187127902 -1.5833825144193505 1.482858808570975
Ni 0.8011070616558753 3.5752783223646403 12.464279293516402 -0.14345341533236583 -0.2552912606419797 0.7892445954413955
Ni 2.408327615375574 3.6292803729345655 6.025840363396256 0.12607918571997642 -0.3866715468598953 -0.30632483018002726
Ni 2.0654457797192967 6.9914642392405675 0.5681190730911289 -0.978058955407064 -0.56900826952102 -1.944015728233955
Ni 1.829208917572598 0.23979852126548037 13.511413590803615 -0.4923662553862488 0.9294594492318057 0.13726322736125393
Ni 4.1360767244390155 4.076414745107408 1.920347734275708 1.6173629851298532 -0.27863610601550726 -0.40690072942257666
Ni 7.227263573999439 3.3344241499123597 4.725775206843391 -0.5189854006356739 -0.619040651488063 0.5458721977241889
Ni 3.193298294604642 6.275334305394123 3.966056374257312 -0.9359707679877622 1.0711285189702393 -0.6596242293373801
Ni 7.518973323466631 6.494544835788987 10.996466136470529 -0.4921608242436621 0.26997405946513503 0.13769414425108545
Ni 4.895950087974837 2.533525611947704 5.977934838066503 -0.385109344579098 -0.7618746880688749 -1.9249571689406075
Ni 4.3136290620567 0.5165001504208588 10.617846691412778 0.06912667959433257 0.2604008139544032 -1.742266919594806
Ni 2.204328143527729 5.186095909757881 1.7054435904682685 -0.3279580921790868 -0.8216379241704366 1.535420384717775
Ni 4.932665152178903 6.599337299720317 2.2401625675001258 -1.1515102026531008 0.956650922044933 -0.2625980787160381
P 8.85550778415891 8.062959502936405 3.370243679335383 -0.2751795149254745 1.4724741229025415 -1.3498147614973917
Ni 6.871870316869971 5.567266046395731 8.862114447715102 0.04619192517503013 0.012338209850378751 0.8695092939304186
P 5.828097533194342 1.5627547383857379 3.977759766427026 -0.8221914826810613 0.35725375581941055 -0.07038163504735621
Ni 7.633447244490313 8.98136672635946 6.984944150252604 -3.6411564449140843 -0.42414074744994695 -0.3786306788332898
P 2.414304053311428 1.4814398079033557 6.110776531194911 0.2648861034192664 -0.6333138735776254 -0.39791112432945663
P 6.800767461801345 7.320559307633603 0.01602094966916768 1.0241418658080554 0.05594874745147784 0.01925190625107652
P 8.456538661020508 8.163004329255143 8.721288345213514 0.46055399597165847 -1.2952089012270533 1.7833549478843673
Ni 7.266650347997259 6.761492396923822 4.3864634084899174 -0.13368193776789877 -0.3077008845919475 1.1277030729311739
