# total energy = -381180.25922596565 ev
CRYSTAL
PRIMVEC
9.12963404842161 0.00000000000000 0.00000000000000

0.00000000000000 9.12963404842161 0.00000000000000

0.00000000000000 0.00000000000000 13.36214226742818

PRIMCOORD
 96 1
Ni 6.9145200477682325 7.4429067463408405 2.6653327448576736 1.8225254474362418 -0.2307230843843123 -0.12097040373850133
Ni 7.310225775120374 7.524562193020524 6.910485662494557 0.5636971417207518 0.9187652027427532 -0.24983203729962136
Ni 7.950852194341464 2.876747679871252 1.5742337497220433 0.3977774269650698 0.598504479207924 0.9319346502451756
Ni 1.1789735485101043 4.32077276326559 6.074215751030366 -1.0641963106267802 1.3001166229413157 -0.44708810027473966
Ni 3.3806760889028404 9.06591830470781 9.18257129044182 1.563556480832359 0.4493313877829616 1.5382542546221443
Ni 4.101460694824247 3.357477688856656 3.415042770246348 -0.23906091482604638 -0.021815553213194686 1.8577274492586715
Ni 2.9736861339013156 8.530072695140424 11.795925376966968 0.5099191766683477 1.2049742360095117 -0.794088039576626
Ni 3.845237516037873 1.2862923964215183 4.702351294934353 0.8553211753554948 -0.5752524506585189 -0.9755724415397844
Ni 0.8576314291454443 1.6073451063877273 1.8840889635620635 0.07613653525326243 -0.5670519171255977 0.5035433550489908
Ni 1.6465842734079958 1.5493536710892755 12.884271787445407 -0.6455757216641139 1.045838634055199 -0.15557796651004174
Ni 1.3565905783796544 6.591495336853587 5.0116313418310785 0.7376705800188457 0.7600198942483234 -0.26743278110052005
Ni 4.329035082054176 4.120212963102431 7.650374027603938 -0.6641077190300305 2.3168092315601774 0.9293944003218253
Ni 0.255938334204934 8.442172578790691 2.624939592097209 0.7984722846872507 -0.04172000544660557 -1.4917828505334825
Ni 3.96519177743371 0.8783830872741253 13.363344767856082 0.1268073221352526 -0.4847992416722683 0.03953713886267384
Ni 2.963241832581821 2.9322923732522 5.971247173729737 0.22608044340597838 0.42065356023229494 0.11504606783426638
Ni 6.014758096508215 5.159621796340583 9.727492669189022 -0.7884971757524097 0.255373793053457 -0.5424775702203432
Ni 7.170332393023682 4.624506557494841 3.389534572792968 -0.6309492300001908 0.5697124946768962 -0.19504619980799312
Ni 6.170254023146004 7.731585774070225 9.760216016408835 0.9393286287164017 0.4333962046099439 2.1064518553164113
Ni 3.7432047262243495 7.094437745410958 0.328803769249645 -0.6982889928974296 0.6655238826512667 0.32137709652745944
Ni 3.485155620633867 4.998054663079138 1.5914841932038482 -0.6678029084934305 -0.20074119331024137 -2.3427714599518943
Ni 7.497081994618708 8.760988528421867 11.866290205253453 0.12040013305732813 -0.6962943310649041 -1.1610171137022716
Ni 8.230958495725565 5.668343263232955 5.210500333773635 0.09710799529860695 0.24792016498888914 1.210165550402464
Ni 2.3651777671644743 6.375889899824583 11.823692245877028 -1.119451631555659 -1.4693396910386178 0.7760478942454635
Ni 3.6778730651733857 4.129579967607501 10.210440266278015 -0.8741671044174041 1.5760525564168406 0.44312628741351423
P 2.0550623587548684 2.3929592434889684 3.631723678162973 -0.1147403636683895 0.025982540106690735 0.33409351565286327
Ni 5.607183844929376 3.6383143609623985 1.8063346094993549 0.47209464962140624 0.6759152531879198 -1.6343070691833597
P 7.822882114275596 5.3652759322872035 1.3449795098323354 -0.40048582703516833 -1.347688202072692 0.7440777690967701
Ni 6.110710550064061 0.018006377178705398 4.40540447063597 0.17901100072200138 1.4422677745224903 -0.4452636454714912
P 5.568775474604976 4.530489586351349 5.132906661269688 0.20541648729872364 -0.3296768746424064 -0.0436241644478539
P 4.587914984340528 3.1943585178117186 13.215305926286268 -0.16155475291876692 0.10510386901988995 -0.4694998923110366
P 2.3791917553859987 7.288269005300982 2.5638742090240423 0.015032983073722498 -0.011992653585501927 0.42385021279272167
Ni 1.3707506407455075 6.254803563810198 0.8806764513400841 0.8310507328439043 -0.44088248568466004 0.3961679163861048
Ni 8.3338859896731 7.905532691063518 4.520706270534942 0.019149833455573473 0.5836668999744593 1.7583023757911138
Ni 2.1169064996099873 4.21164624781811 12.9374802074805 1.1646683373016136 -0.7968702303074534 -0.7088749959433921
Ni 0.8967802127889097 6.6331903754253805 7.4604182973556314 -0.6724882297842417 -0.0288950857677954 -0.07727913349813788
Ni 5.685059623124558 0.2370500343798447 8.19011160015428 0.26180360783920076 0.5928213127802178 -0.5056483172071357
Ni 5.907557933839068 8.80708405059156 0.7020834635937387 0.20157783027892384 -1.2648117769924345 -1.926791651046185
Ni 8.181302416287863 1.8083979067879963 11.246046606946614 -0.023806872611610613 2.095824457509552 1.617954338856949
Ni 5.819858669437788 6.238488907815499 0.9530698843059334 0.7089626705611919 -0.7390196378475724 -0.8923486604224374
Ni 7.293199007672072 1.3352181051375769 6.376454111207051 1.2926524533537866 -2.061554994803721 -0.0030763249324785727
Ni 7.832952100600248 4.247589616956965 10.635543415176285 1.6658475629938019 -0.44484327010462094 -0.4973359406866983
Ni 1.143870105701139 3.9229398311866643 1.7069466746615813 -0.9298859952462631 0.619574669614662 -0.60803761550934
Ni 3.711104933008141 0.7162051814967056 7.02594814395229 -0.6400396223372331 0.5243214681366067 -1.019319761829064
Ni 2.8563429478353517 0.3679352065884713 2.5339436168511136 -0.5437142708409216 -0.37895618049350865 -0.03997088396598277
Ni 8.458688086733844 8.535057475315636 9.035159654729217 -0.34483712732261257 -0.31913046658512784 0.17897449105711113
Ni 8.508563277388037 1.4242959442759577 3.907544529337833 -1.0657945083518354 -0.6431879381582277 -0.04598623692212725
Ni 5.781541595453594 3.1935094618478086 11.362324364722381 -1.69927447519368 -1.4393459728900049 -2.1225125083236995
Ni 7.074909458241029 6.467551425390774 11.918509885924122 -0.5030520172348691 -0.4691378809859275 -0.7114612686133295
Ni 3.5478214285508343 7.993514974119435 4.643117316445705 -0.7384210850316251 0.013611934356479782 -0.3732156784653056
Ni 1.464055500435397 0.30746964047045383 4.590349857733805 -0.1786289347922343 0.16251840238361687 0.6721799545152036
Ni 1.6503730715265188 8.562373340305083 0.522072643684004 -0.2259981681048172 -0.04931298730251507 -0.1265988056688723
Ni 3.412164196639673 1.8073023507055317 11.26305694105368 -1.010914311374188 0.9775383070169037 -0.7582612596860038
Ni 6.871364267753153 4.220438085379888 12.87820514563876 1.828866559162921 1.3995072436265124 2.4107547699704033
Ni 4.6283318741494455 2.349520444819253 9.238905697165546 -1.3913974700351843 -1.9239251281316672 -0.28449359323754875
Ni 5.707984134150126 6.914912622031116 4.7514705518916465 1.797412454418698 -1.5759625678061955 0.7722202929692571
Ni 1.7622019586440782 7.4643066084849785 9.61249762499314 -0.6957292025900534 -0.06291592279793036 1.0227303301725097
P 5.258742232901556 8.304461179224909 6.230646552191857 -0.9281430444132275 0.9665370708103934 1.321307398086318
Ni 1.2900903241740618 3.168074301466592 10.694110017418032 -0.09038893140721853 -1.080165689471843 1.8777666272977338
P 7.774157257507989 6.4557833271383025 8.992120734029601 0.16051885545508482 -1.4655421716693986 -0.6826721122957792
Ni 4.764180828375038 8.002681126676054 2.5416800687201166 -1.7677396099446134 0.2796025836938346 0.1529490135276269
P 0.08177778377555936 8.9359305755234 6.3405235235558255 -0.2610939833666858 -0.11818641323546099 0.07171398070553456
P 7.0582478761535485 0.9328386153164231 9.749233066682127 -0.566914877327101 -0.23111594894735682 -0.5276533607233171
P 2.941778062999538 5.8088848493451035 8.480150030389321 -0.33439664871557895 -0.29630421271923163 0.12143063120437153
Ni 3.7298937198224067 5.7666694216341385 5.661552641448479 0.09577256431663506 -2.1734162371521024 -0.867564511499222
Ni 7.615958959200121 3.503232295994531 5.883124294309905 0.6363922553926331 0.35047324256246737 0.19696887075200273
Ni 6.656224442059196 2.784949209794751 8.582035833095114 2.193992261531241 0.7040698612452648 -0.17169749777972365
Ni 0.7836950880301242 1.9869918074977437 6.536078458348927 -0.5515993300159532 -0.29178909845769746 -0.06227828921393145
Ni 4.84086975414755 5.363888227916082 12.03314339661279 -0.6371242484626511 -0.15402219198714764 0.49355050550233714
Ni 4.944281118698175 1.4065296764719926 2.127627428840304 1.3191612982775927 -0.6526146307887664 1.3230593477804182
Ni 3.183129067966458 7.455688233969592 7.006946636665346 -1.3427997636321392 1.450811293217127 0.6040894294948693
Ni 8.547072073686662 0.4979786265404043 0.24403694329576178 0.5204856393302842 0.6356582054400859 1.6099564082531368
Ni 5.418090865096011 0.6555268949060096 11.27241025110772 0.11525689829349181 -0.3429052004072224 -0.43443878694184535
Ni 6.637307840368642 5.270784220174645 7.202047828647626 -0.5398599300918379 -1.0921853396405383 -0.5495614736503182
Ni 5.353873019395552 2.502012721864285 6.661802648445743 -0.226571524109784 -0.6422114331775715 -1.5956883283698968
Ni 4.003892296046767 6.753929785346984 10.189649350723045 0.24656545073320765 0.035258823202294114 0.08873236964040203
Ni 5.110933458109059 6.7640180309396785 8.05705083615856 -0.545780409341331 -0.09799116923450865 -0.9744792084756055
Ni 8.324683318580398 7.175937988312293 0.5093340653351485 0.3434908977073633 1.4286756376603524 -0.633693111293915
Ni 0.9115455698903243 0.577364446202583 10.698091450814387 1.0801631183686817 -1.1390848324055545 0.1774590828538492
Ni 8.671061633319578 4.5326441799801955 8.05318900096787 -0.01682812730093231 0.015473413045250772 0.4484579840390729
Ni 0.08301302325853803 2.105156660625556 8.951125025423782 -1.9277632709308348 0.14908104593178842 -0.4833756218518643
Ni 0.10395183888463996 3.7177604362091126 3.927681763096931 0.7878909096269786 -0.9305719655696942 0.45433475453482397
Ni 0.0961934758939875 5.963413034776715 3.0189892038380246 -0.25922119182400516 0.4011813104402962 -0.5444820022448816
Ni 1.3273209717098122 0.13735077902197096 8.221324905907094 0.2635445017897074 0.03835366007753395 -2.396934576257859
Ni 2.2848735063198293 4.768718256483245 3.5143503643047413 -0.3949278733314166 1.058138020247842 1.920283674724338
Ni 1.0842079473769288 5.270775090540623 10.145713899962612 -0.6615648980035187 1.1858472853720738 -0.7675020615579814
Ni 0.0230970611085569 5.2623027901695645 12.40952807948727 -0.11098141084658951 0.15685786166372984 -0.04904944922848326
Ni 4.925967072852977 5.731812478943728 3.032952066109034 0.07772496278630485 -0.8826756561090476 1.2734758804253357
Ni 6.241054334975269 2.490582420070572 4.193774989222908 -0.2814797461118894 -0.14788162630704854 -0.27188336067270596
P -0.013062680356584538 3.1367961753122318 13.097451480715154 0.6330053411982711 -0.5710247857304165 -0.3910668477141136
Ni 6.6103936792760996 1.913434346194276 -0.026004849544097982 -1.353704583470101 -0.7766233071329592 -0.5694895800328128
P 0.5743790558778673 7.712577876039465 11.826324319365149 -0.034222154407663644 0.16160823186452167 0.6248204913946337
Ni 3.1128400156423424 2.5451685018793637 1.344993204283366 -1.0360183055306675 0.952288017090547 -0.133768326834118
P 2.2391888176810615 1.9198068307406109 9.14080138887106 1.5788681714887647 -0.9610853036672028 0.7632034341826276
P 5.238620519520292 7.75547802630197 12.266166349426175 -0.06503708290599121 -0.7860888234212332 -1.2578001215612917
P 6.966157257788391 0.6083221222028223 2.176051920648635 2.442662674422593 1.0039278527540256 1.9188888512593407
Ni 1.8115476305250815 3.8274895075019484 8.3602916301507 0.6931781540334255 0.4938438683730398 -1.1437169318609268
