# total energy = -340864.3405265402 ev
CRYSTAL
PRIMVEC
9.30094095416857 0.00000000000000 0.00000000000000
0.00000000000000 9.30094095416857 0.00000000000000
0.00000000000000 0.00000000000000 13.61286723994742
PRIMCOORD
 96 1
Ni 6.779781321379125 5.621749078475504 6.258039463611897 -0.798013085662645 -0.7253632234064024 1.3864169861014575
Ni 8.50187842331182 6.708098970217678 7.5613217095495076 -0.08865497943524732 -0.8570949794264658 -0.9392450678636598
Ni 0.4925015599105588 6.84821764418254 1.470257386618273 -0.001115344551365821 2.116697958524451 -1.1121620398727814
Ni 5.612345827272153 6.45671314081693 8.697600911983892 -1.2045682588203448 -0.4120272520158646 -0.20065737534718345
Ni 4.06327412804562 7.617089220815747 3.508349303593729 0.18260386027958228 -0.9451406074124884 -0.8131612541579931
Ni 1.8235610657085117 5.617386937214999 7.275751202134124 -0.825995429808184 0.8008708668264143 0.0029709097028658513
Ni 1.5151790707547144 8.84670150453142 2.6494315981770233 0.0055648956822871905 -0.8834860678254848 0.723694834565044
Ni 0.3192250318013404 5.802345447036787 9.406041485606686 -1.186539683453408 0.643498270309795 -1.7220462216725567
Ni 4.5611720938396445 9.101742603687775 5.2696907953656105 -1.7455818429006518 -1.694161579447147 2.1892501188605653
Ni 5.905362667935214 6.3665870239420865 11.29256713061423 -0.6582718290745436 -1.978741818861231 -0.8526816808501185
Ni 0.5487480696307782 5.160906061043645 2.8445857993629193 2.488051644080354 -1.4232992038397876 0.5622113012038447
Ni 3.7191579183309202 3.016016090712627 7.531985612002041 0.27383302819990907 0.21758526145077364 -0.4505310645180176
Ni 3.2762192120429274 3.5528570958621697 0.594143171656686 -1.795878791382991 -0.617211311588808 -2.158866878583017
Ni 3.434130585861409 -0.2977761320980302 13.135722488419772 -0.3046862661353398 2.411310385363557 0.35232135151479965
Ni 0.11600784498914912 3.876985583681716 10.579049173379262 0.18201070678027362 0.43583643862032034 0.8909021577838979
Ni 6.352905339945916 1.7982811084674566 7.775478662994122 0.19472275503030337 -0.9902249013456365 1.645994789933933
Ni 7.563320481739022 3.983751083744288 12.190635286367497 -0.60557835533557 1.2024352716377422 -1.2873801492112538
Ni 5.304624199118987 8.943291775299764 9.496132258906284 0.927482528011093 -0.004644954971179097 -0.321420291060569
Ni 2.237890077929733 2.0983666641795247 12.388049616180904 -0.7844446029495908 -0.1922041023735077 0.3261740036954705
Ni 5.9504815320177595 1.368484631606105 5.561155309000146 0.20461018934734437 2.5533244971462348 0.18138644293271342
Ni 8.26005396110894 1.7442519430468206 5.373815758319744 -0.5347256941890662 0.8882845176553927 0.6508367129527372
Ni 6.620344593260595 8.172606515200036 7.603807477276297 0.5520711274460491 1.5615379077404334 -0.24611885011409224
Ni 6.397661467335157 2.758807872337301 10.294594778866355 -0.1930206847375321 -0.39961730838728593 -0.10087337587831015
Ni 8.642796978190123 8.78032068965673 6.096999253290144 0.8845047388979865 -0.9224506220141404 -1.9337714247981277
P 2.0207875165166693 6.694556800334317 3.381803492617047 0.516322251981214 0.5426076680403042 -0.2342598938929772
P 2.4025353329264796 1.1138992785515949 1.5244093244581813 3.085612785538402 -0.4940814383051427 -0.4664978722599192
P 5.648861321064789 1.4569551810089438 3.27168965384705 -0.5846133230481286 0.0537990480983267 -0.4668256879129831
P 7.580499319496281 0.11242140219586332 9.953047489015516 -0.866428855232882 2.385747706403104 -0.9270948056543711
P 4.021373389498544 5.357062903653596 7.2887511271657 0.24400566042583138 0.5068755047460174 0.7328834430428475
P 7.020433865034407 5.2017650942150775 9.869968695025717 0.7964768515237766 -1.6066111459299879 -0.07436993027114289
P 8.429107862070461 8.381524248661616 13.207856865306722 -1.6701508183548461 -2.1597508238498673 -0.7712859540804459
P 4.747144406214515 6.8816545265525155 13.037995642679075 0.4114654659751236 -1.2039529938338491 1.224433373175388
Ni 8.87452991956646 9.702741498847912 7.985771075513918 -0.11253692825916747 -0.06354507174149701 2.0726835006167144
Ni 3.243721724699202 6.793323491262487 9.105660159975463 -0.37795884957724585 -1.5983743598424924 0.5515422515257727
Ni 4.202537115451918 1.1061422938793948 11.1373400083262 0.216840155754633 0.3232347185614885 -0.4133089469417656
Ni 2.901456402214439 9.032971447013617 9.289365833064222 -0.47805780918337665 1.0108916856663686 0.11444545813578999
Ni 8.087019257461924 4.753050503656777 4.336215817969499 -0.203723672977333 -1.2959871741539744 1.9769384471039047
Ni 8.914598372765306 1.1431786403598514 3.1200694364221855 0.1914152879236252 0.5490539378862802 -0.08011300340250718
Ni 6.166374971119809 4.9871830877734356 0.9467520704651341 -1.9509199115529563 -1.1685697292385488 -1.5787337027934296
Ni 0.5888955808268834 2.439562378466082 7.068331850244116 -0.21602023095649897 1.1868844683873367 0.7762533253880503
Ni 5.653930333830195 4.063794980733442 8.34675640165544 -0.4689501904551536 0.6400583913903106 -0.07750796167949232
Ni 1.6118623509315972 4.578230019365802 12.481556625056161 -0.6829801304545012 -0.324517441928654 -0.22381324463835645
Ni 3.6604689815424516 7.735211169661001 7.079575757642464 0.16457297091980044 0.3948954774315844 -0.6499859349166677
Ni 1.9930149071267538 8.095287793881091 4.983657101095701 0.12102182580172705 1.9723261451428742 1.182068792166248
Ni 9.021056941779698 6.1709324321382475 11.657909947545829 0.4270525217801033 0.11667820412105066 0.21852422832527524
Ni 2.373423388053594 2.949207432558654 2.8253095994430932 -0.3480227241394458 -0.6454150277165336 -1.0403935517802276
Ni 4.8963687012754 3.0316323704064208 12.423470389235028 -0.4230835098300262 1.287326927375815 -0.6084363936096553
Ni 3.11439214212493 5.772712649476079 5.206771790676762 1.4788900537312142 0.35245299199665747 0.031106491596817398
Ni 9.084731182865887 1.8737582434973175 9.761337426227843 -0.49682300560602183 -1.0839565239728428 0.22260045527717792
Ni 0.6880557015531749 2.1458944719432447 1.1660729062718664 -1.6181397153948778 1.395085717520049 -1.8398881070844055
Ni 7.707140930163758 0.9277251357601942 12.226396473856875 0.29371331206360385 0.022338258485884107 -2.0336682956957812
Ni 5.300513183261539 2.4680511603017523 1.0877757259750858 -1.1667578728407906 -0.5575645464604526 0.9160604022170804
Ni 0.9342330040757081 3.341400205547458 4.599065987066837 -1.5937795413829583 0.8042307844375826 0.3663492903627755
Ni 2.044653730747923 0.6102458905571416 7.1646561141040355 -0.30813951479126284 -2.4189380771121436 0.3784897823800514
Ni 6.462981974952497 7.846441121333473 2.2294885380563536 -1.3442141274811625 -0.12255394617553733 -0.8995168960361024
Ni 7.509802868065354 7.3660847299900105 9.834560943288789 0.8000290876514093 -0.7712993238168846 0.0841545204617325
P 1.8423954709377748 6.227184522422979 10.670323026355485 0.8379628865827052 -0.10809560465836221 2.0580536665186813
P -0.11398954082384045 2.3815431094190984 12.275661697372113 1.7311972920442054 1.8048290585977433 0.1774068894596751
P 5.788142910352795 1.1937385548419615 12.875675622895818 -2.3562417265241873 -0.3407416170970003 0.8812831466368952
P 5.748651115486893 5.9719760063312535 2.9053804691607237 -1.448711730375621 -1.0176698849304668 0.696802381049574
P 2.2260406792817915 -0.02065645954255304 11.432208666313283 -1.3468837038935255 0.8843049641823545 -1.3027897988981048
P 8.798197097978035 3.36046713429807 2.6278283028555376 -0.0856781561951105 -0.7898220652114204 -0.3141944627360912
P 4.28678503770706 0.8198128296903293 7.56791049605045 -0.02066447032788699 -0.9266978273262686 -0.006451154941982439
P 0.971659990072031 1.0080452706927105 5.001666512871218 -0.3880280608877898 -1.3849180329584279 -0.26304930732084375
Ni 4.01454649891174 4.55707037892305 2.3227769748215423 1.6423697915868358 1.9809190290182075 2.2702756067750127
Ni 3.402721308597596 0.8403344255905 3.957437791974358 -1.4384918524198258 1.4072418932666086 -3.536988200334586
Ni 1.8344896712119112 7.436055708034329 12.80620968593987 -1.5787992659240422 -2.962241742778208 -2.1579505374163355
Ni 6.879608319564645 -0.1577290753777439 4.122942453906011 0.31627731340704884 1.1038362936159054 -0.8322429533797925
Ni 7.180726279711503 0.3688985666200684 0.8960452011175315 0.6531226807734365 -0.9860003217413277 1.3630150622377495
Ni 0.7875460056797817 6.093846234340653 5.19358119635768 -1.5343819161509318 -0.26960356349959375 -0.23748945657386838
Ni 2.3318481824364063 4.405372033595012 9.132682183438463 -0.2038820529320682 0.21900965260212607 0.2710768056110106
Ni 9.23528551246889 8.776888642481621 11.157868114884968 1.8314425474202136 -0.6808527996988533 0.22638486202027464
Ni 7.388109357932181 6.392434338575233 13.236784651550698 0.10420424002375603 0.934664904692145 0.6672262100543541
Ni 3.493721713912711 4.862783003851762 11.12899520419203 1.7436028647974102 -0.011203582025303286 0.43722277744488575
Ni 7.7649183747485395 5.799397048786083 2.304739660223463 0.4075105950924337 1.0447520858592394 0.05652698855245104
Ni 6.669407056265218 3.4471705049386565 2.711710698135119 -0.17272182527917998 -0.5319602156287871 0.1568997706452588
Ni 8.898749569550164 4.852579871734971 0.33183524741113524 0.987512644620796 -1.2054290641587433 0.8223298080311385
Ni 4.725352301793694 9.375906437239864 1.1257217044710597 1.2363332099367674 0.7502445600291144 2.7995657317708047
Ni 3.728756489292204 7.662403404656225 11.374707459671866 0.5105362414270563 -1.1518403322990098 -2.9689520649188483
Ni 7.429814776721324 2.569942967356851 0.3836293967445654 1.8304364747532023 1.6618500117986348 0.3777688450536268
Ni 0.8786617426614859 9.015987929014292 0.30325903673143784 1.0016200305564558 2.562514391175619 1.2420163763644738
Ni 6.251525084637786 8.22816103492072 12.431175288638448 -0.07837262367263277 2.9986624474990875 0.20863885089076326
Ni 7.67310878757913 7.097873498584454 4.819948450842948 2.112403702024472 -0.9949482749632348 -2.2321410046868206
Ni 5.529502347085959 4.322928493865537 4.617811103263901 -0.7091287638254109 0.6340602648253467 -0.5197384767516146
Ni 2.328192912680801 2.1480522902213623 9.120538875059536 -1.4712070832646598 -1.8239336406376783 0.9409499663699085
Ni 3.326648913353082 7.169500044100776 0.9379003650544233 0.3084699015474881 -0.17723462554786892 2.403036318280223
Ni 2.586759068420805 2.177629282136946 5.680663098032639 1.9155423033846106 0.5662057670752184 -0.537246660838707
Ni 7.9886618079313285 3.9291824637541226 8.325356796938657 1.109746231342437 0.11216951761741971 -0.22292955648182253
P 5.960461441554055 7.762500130126511 5.665934128096312 0.3263748068523669 -1.6509719314335503 0.9105088762712319
P 9.219064671619588 4.505310643070779 6.454636240724241 0.011256032529793519 -0.0780743757059236 0.1120504755410522
P 0.9836023981285116 7.773661259151259 7.582244176000483 1.3765292946741001 1.1014809060098514 -0.5305875036509765
P 4.089028433270228 3.104012292131914 9.82753687275588 1.2968909169151663 0.20296134089001175 1.4681672679970714
P 8.468255522124766 8.38439823938549 2.680237244379414 0.22794526452885902 -0.6138637352728137 0.15582067864846713
P 3.402126048382943 3.771066469236854 4.473963682110688 0.11588424746484559 -0.1924208463700041 0.1400490176365072
P 6.631059277124353 3.351082484976427 6.309059774666277 0.21085539892610783 0.3322009266158408 -0.3065914535778526
P 2.0395847179825166 5.454332143104279 0.7595064592873577 -0.017331549299912086 -1.2184676425102563 -0.10981078757725603
