# total energy = -381171.5096384131 ev
CRYSTAL
PRIMVEC
9.19686849724039 0.00000000000000 0.00000000000000
0.00000000000000 9.19686849724039 0.00000000000000
0.00000000000000 0.00000000000000 13.46054667942277
PRIMCOORD
 96 1
Ni 2.2029627305967527 2.2140173666909075 10.030274151072756 -0.21944879702207368 -0.14247511057949658 -0.30522259825478404
Ni 8.381842132687922 4.930514847891172 8.637861802569997 0.3244541927908864 0.40666367371110607 0.34753832830385956
Ni 4.102575946277029 7.14650954133769 4.90632892276604 1.0915739313087847 0.3465569382271967 -0.9967074237461867
Ni 4.915220455358243 3.006336796098177 4.729605573905106 0.799710527969726 0.5060581510510446 1.7628519428350091
Ni 8.15478064306347 1.5650679223683142 10.034151550887477 0.3010098457250171 0.5225960008050677 -0.24972867895253767
Ni 7.822341432667948 3.4052785635626117 4.075476453169677 -0.7544040907234427 -0.3023455338173051 0.9420254588222743
Ni 1.837350415050136 3.594789238567733 2.180285091927063 -2.7856928304434536 -0.3681341501773402 1.1003529630529953
Ni 6.820094279895305 0.8225219459906342 1.5738067869412478 2.052561790166175 -1.309474667117448 -0.7524989032809298
Ni 2.0482714002276303 5.447075368274198 12.683146775398667 2.48607343730806 -2.6099342752204797 -2.033591676821575
Ni 2.560500195485576 8.749652499837286 4.098709582704664 1.4927200176357711 -0.6154310797599336 -0.7927968315690281
Ni 3.628247446646381 3.702383404678813 0.8597306370969003 1.5215266574548183 0.35151968154911073 -0.6572624139734229
Ni 1.5619409870338612 2.8867039289494527 13.15368708484031 -0.29753011470653273 0.5123388418534338 0.8739462466558497
Ni 5.275158302959691 8.03246229027457 0.8210182579695076 1.5599484517661262 0.5956796081646194 0.26895153173789166
Ni 2.9827928124034706 8.082061002800174 1.4869727123903476 -1.320313666714481 0.7423476737795409 0.7546156925136165
Ni 7.340729013081752 8.33920544971579 10.59316757593061 -0.7845744436592359 1.2473161913108326 -0.45695625131807105
Ni 7.915588483715067 9.083416059315635 12.914574018562131 -0.5060856618548704 -0.2895298701098756 0.16886542764756723
Ni 3.322414777199604 7.267899010394887 7.040323415813976 -1.3039573368436448 -0.18158647475866144 -0.17857159919173762
Ni 0.8587603674563568 6.600114379116528 7.818518294378148 1.6654909509853317 0.5575043826464785 1.173622461171108
Ni 0.5628244483431234 6.974059057642599 1.8896989912963336 -0.4079345700037297 1.306473418397279 1.2578232614897435
Ni 3.8448337029004147 0.1452700581437878 10.603599584018463 -1.7144948916878602 0.14248076700645138 -2.687891408622248
Ni 0.65649271597353 1.2504982277223295 11.706758458155088 0.7788226287771233 -1.1696647620749405 -0.746257036136276
Ni 7.162493699017923 4.080080405606227 1.950581341944999 0.022108658973581278 -1.74288629834636 0.494923988811096
Ni 8.270357691146037 5.5247245301235735 3.294213499230289 1.6224689388978508 1.0914505183570429 0.937392073815321
Ni 8.624777417569037 7.924205949622076 4.033708874283151 -0.17475968164481515 0.5028028773385406 -0.4040455193619686
P 3.1116409419202014 3.9721091678812877 11.226715024357297 -0.7170179367655005 0.16505402432127703 0.8470167692548574
Ni 2.1657889875912835 4.513059783873048 9.17610853918432 -1.3132397905868352 -0.42472978718419757 1.4019289656941274
P 1.4478906191439986 8.547634083494351 11.012423386826633 -0.0631753471069041 -1.0858635111875687 -0.5397550290828576
Ni 5.029629501124704 0.13544412369870037 12.310006822877785 2.154529170439612 1.344566882834891 1.912429725897558
P 0.2898466723928174 3.094065725966849 8.845692639887561 0.21997844427329857 -0.7480326399794601 0.39296843561220063
P 6.898129710227173 7.158070005206535 5.488498064587071 0.03922654960079051 -0.5247693543073028 -0.4039689004877623
P 2.9983723078639524 1.1427385179758962 0.8872596239693078 -0.11253872803138039 0.5522251365254103 0.31445414415538103
Ni 0.7816335877452073 0.27632083769758153 0.6419874147691198 0.1368737052323191 -0.1803189209001475 -1.5203611763918075
Ni 8.032305943507845 6.379095232182476 11.782407301077276 1.374089574884356 -0.4699788888299842 1.3655380857699193
Ni 5.51628180472055 6.195240631385263 7.091891177913424 -0.5329755442671789 -0.2765943929951301 -2.243824097451703
Ni 4.7019082843367555 2.9064771965055534 10.06699448845473 0.23995437317459326 -0.195223863036438 -0.7980735065869352
Ni 5.197518337978946 1.8136132971141845 0.5282736522711424 -1.4605984545108783 0.5565484464911123 -0.6654230954073443
Ni 8.703686550420825 5.764146611187745 6.400382304315197 -2.1727562349706 -1.5386638313557373 -2.151373655529766
Ni 6.6688241846568195 4.338613579685086 6.18672341134633 -0.02600182338040038 -0.12707214576086504 -0.6133590277222534
Ni 4.955419968143228 7.6234499516594685 8.901863434736697 -0.1633961770028799 -0.49417682623242626 2.484997430635062
Ni 9.408580546624238 3.034580379663193 6.078446837582849 -1.0648766245232564 0.031223733900972033 -0.3320790563259958
Ni 6.612410592475833 1.9823482458824535 11.803432262454022 0.12796483277846352 0.019007394340438234 1.0863821026951999
Ni 5.3229176417591475 8.508050760907627 6.924657158105692 0.3669370445454455 -0.4755396707472133 -1.9791046015172886
Ni 2.463362869007652 8.116788378749865 8.970888692871023 -0.7518085620821247 1.06582407603819 0.7319694158690103
Ni 0.8628309015123242 7.0912455577355455 13.099521207352678 -1.446689814849586 2.3579797922612165 -0.5614129736722653
Ni 0.980551739672717 7.2025000775616626 5.434723054016245 1.9002761212541595 0.307094104245884 0.30902603116127425
Ni 9.152999567375847 1.0566190401176048 7.9058232486029425 -0.42090681389368156 -0.6702914792432392 -0.8817073786585072
Ni 5.906587712540716 4.604099586448788 8.574960739256884 -0.1302762545204595 -0.7897770709060978 0.7396097060230874
Ni 7.387485893200457 2.6813194586876663 7.752858170475812 -0.2984991634880214 0.8313446099352393 -0.0812085504595311
Ni 3.7887787885960265 4.999905221710139 5.75863768687793 2.0050220927139986 0.09778368120939289 -1.3427431993625907
Ni 0.37871785334542774 4.692086028639121 0.6002097193270998 -1.2635434518029722 0.8716361104654343 0.46122556811738635
Ni 4.837525309165715 0.2187548778771625 2.60789993672157 -2.1536845630511294 -0.44359217130633927 -0.3166668355359836
Ni 5.698499362901491 2.2934415241860173 2.87028659875671 0.8670826867667971 1.146755975797567 -0.34513049019331526
Ni 7.347727830109749 7.233502721715902 7.933498465686579 0.7112059580694139 -0.504585680270576 0.6495753297418103
Ni 7.595601833445574 6.229765676225077 1.0503679285092877 -0.577715824597347 -1.093446722851465 -1.608500392532901
Ni 8.947523128427754 2.4693040461431135 1.4874040455291293 -0.4818707551715637 -0.35634692773442495 0.6422710827709132
Ni 4.261424261267248 6.297059163996235 13.209454137156555 -0.9375928769722176 -1.403481654893228 0.6984427448664746
P 5.7189531987362665 5.0594365523569484 0.8906247582012972 -2.508461060974641 0.20487629852453748 -1.0868682983029994
Ni 6.870603482415355 0.35968125496664966 8.359807355135521 0.593845640279674 -0.6859240435741735 1.5416938764313126
P 8.551368012158434 2.4125777604286816 12.823055059130729 -0.372534593237881 0.06941901402377076 0.4224577033205692
Ni 2.4107383867025325 5.733309510668859 1.5589060203857155 0.7652304919149854 -0.3010972632325008 -0.40905351409952134
P 1.4235097204038951 8.797936060148695 7.007170543773869 0.41578337662418713 -1.2034559995927725 1.7460765231488833
P 5.810719553933835 0.9984856335026687 10.109637609234904 -0.18734214629551604 -0.7992641844609267 0.0854830094651689
P 2.096554960539039 6.701500658901855 3.514495057300155 0.5356929431983419 -0.4945056703267548 0.46773225888765246
Ni 7.595463880416113 9.129538355498818 6.112622401414696 1.3285679363034733 0.5557020393304172 -0.119630087660523
Ni 4.078287016223232 3.1836708170361923 7.444853200658452 0.8708323836172164 0.44127380758580775 -0.4540095099849213
Ni 1.0367354101379351 6.373411567368676 10.474378061635324 -0.21769761865892187 0.798754848924676 -0.272099333338254
Ni 1.3610445886638785 4.823757596825489 4.791551082567485 -0.7257460606671178 0.5937669645229388 -2.9957069644151892
Ni 0.25820760492933026 4.306682051799141 11.283276686123237 0.585615539060398 -1.1867566845602209 0.15824445759861133
Ni 5.942418712726097 7.380183579507646 12.182239325425169 0.45153688007471265 -1.6244949681889442 -1.095296117355378
Ni 4.843687211148313 5.468504072183833 10.665397023095888 0.24999530235036296 -0.0035974875432712235 -0.5293124935932949
Ni 7.202297746451785 4.231957494174343 10.71307450976453 -0.8349258995285943 -1.0207480096351582 -0.31314211021217686
Ni 5.824036619711154 0.01795412694093941 4.566827436948969 -0.3405575261106522 0.7180031834969054 1.5158082669138022
Ni 1.0903531542551754 0.618890398889868 2.7418863567422975 -0.29384778075893914 0.7519080637744664 1.5304015913469449
Ni 9.092668109158163 8.329107287959232 9.132442726612407 1.3629669826086332 0.16452206307720696 0.6792394324651464
Ni 3.3222124460897278 1.9134177154950238 12.168347455358429 1.2255255777983023 0.16410451592381417 0.08620677500507089
Ni 6.491628116748267 7.624148913675405 3.1240042924205116 0.09261807784805338 -0.5613546096305042 -0.25247050336373295
Ni 7.4209441012791055 4.250985815371353 13.085186048217937 0.2773698377085739 -0.25975083907523006 -0.7561992349506524
Ni 3.634676057819272 4.601239360304627 3.311052046006319 0.2164796870914207 -0.3111947566778189 0.7564290915732715
Ni 3.8505817457946296 0.7555779392274451 5.830261060400442 -0.7168179049395526 0.5229448995040543 0.034311371687360266
Ni 2.0465331920564194 4.323043281093236 6.720743267137962 -1.629954962862251 0.29363232231402336 3.514548897494463
Ni 1.086049019735987 0.7410413686696903 5.3184773935842244 -1.3014194009131395 0.7773470726728612 -0.11909324132044652
Ni 4.1705316085896005 1.0664320989466092 8.342146608303901 -0.1795311348915295 -0.9637587367343079 0.8625405759220693
Ni 3.1993514780516117 2.056484203914885 3.016790876670744 1.3280210626610676 -1.7048018327698125 -1.4582271260652242
Ni 5.200148642407338 3.786139287299003 12.263755770533772 -0.7660519593750162 0.4877562674180632 1.4253128918357068
Ni 7.88683907237536 0.9347421370229787 3.583655509403354 0.610788953002232 0.5676458419558547 0.5605377701561636
Ni 2.6967426073814247 2.6441365188135664 5.043881888441771 -1.9349765008498225 1.181003327016211 1.3483911416769874
Ni 3.3088585928378866 7.049206671224413 10.998276763498822 -0.5382365355558021 0.4322368941945201 0.7591580604686602
Ni 6.003458329828348 5.359557966384034 3.7253277525387944 -0.6009848224276166 -0.9887539732270649 1.4021004582749852
P 7.922945978619663 8.098679744415929 1.6255088233227042 1.0959656326185772 3.4093550398639283 -0.04324261273871908
Ni 1.8868203714149108 2.1137071205353775 7.55933582137396 1.6096974981647956 -0.18834513363873367 -0.25814518515100704
P 5.795489539481323 1.3952017587584635 6.895689780979437 -0.6843705830441246 1.8315464199879297 -1.934426541883623
Ni 4.461713666307602 6.700672940725088 2.590885729754693 -0.5807178446484644 -0.5093278229412518 -0.5172709890477285
P 3.6459790093664566 5.365738262103894 8.085521784465923 1.7136523411819067 0.6812011841772074 -0.8584543216678376
P 0.5006315439145768 2.460640595892952 3.8541850789241554 0.8137225259781019 0.20146495885014337 -0.058809613939040654
P 6.85572294897081 6.239541947579559 10.081639582062328 -0.748080205387944 0.5381717437561377 -1.874413908775417
Ni 2.7963998758641724 8.752659875879539 12.78350852401853 -0.4849041426812488 -0.22438917174648454 -0.9653242814492149
