# total energy = -340867.53357399756 ev
CRYSTAL
PRIMVEC
9.22856969915832 0.00000000000000 0.00000000000000
0.00000000000000 9.22856969915832 0.00000000000000
0.00000000000000 0.00000000000000 13.50694459283474
PRIMCOORD
 96 1
Ni 2.8935810589023236 2.4017629034416212 10.389109203506635 1.7432071720208882 0.006307687385582685 -0.38218214362997405
Ni 8.384192323732393 0.8492618787029783 1.7225272667290064 0.9604538407307911 -0.32863454942082115 0.48163369946009316
Ni 5.6519543457585115 5.9719734510239455 10.247394367091532 0.06224795019662828 -1.7565735660254653 2.769152666696586
Ni 7.164636861586672 5.90253769395104 8.390635710971667 -0.9863883012083658 -2.676881687775306 -0.7811872723545579
Ni 2.3578625982321832 0.35849670302457454 13.415015952193816 -0.5342001607028993 -0.5031391776320367 -0.7983637841338445
Ni 3.661868700060806 7.221069564205068 4.009469231052422 -0.4957863368113913 -0.5497375942168661 0.10736232603676349
Ni 3.075411564166472 3.9856715188296814 12.447243552278303 -0.945099469761908 -1.0885176609809641 -0.0630043687466786
Ni 1.1985881521949444 5.125667483138412 0.6530652592661309 -1.240316877174864 0.7054597996142561 -2.4275214479057805
Ni 2.578868381111228 7.362368192134794 0.40171686266034484 1.0407815312472657 -1.4198498118386065 -1.000509056880464
Ni 1.5394453674378665 3.0777279351161395 6.77377279668254 0.8171541773674702 1.2988148734107567 -0.5492686250002475
Ni 1.8096117401530842 5.643242576131076 5.366592210470694 1.1283162810351408 -1.115602175902582 -1.1385387300940972
Ni 5.097261946154042 2.399575732465242 2.3159408983279595 0.4435939710785522 2.0625412699763896 0.5518579829939787
Ni 5.072584751255988 3.535012783430801 10.983374632072339 -1.8489931547094671 -0.5224633318819454 0.8299055634958674
Ni 4.0568883898200605 2.43862181010685 8.055285183161681 0.8250775459796048 1.0013973730226882 0.6572963525351518
Ni 4.358404213196715 1.6125079523323629 12.576045774220198 -0.999875279951207 0.9713918277995337 0.21345452711185173
Ni 1.0161947041900408 7.537877127277339 6.300205983162703 -0.5028931230595016 0.566606859168379 0.21593461322122812
Ni 6.070257716418209 2.476089802360438 6.812200560166268 1.8500285379525172 1.7430037977608304 -0.7181062847336729
Ni 4.206317387497423 2.42575718419515 5.320196500062889 0.27871298200002964 1.1935567382011896 -0.5544033751236517
Ni 8.411029003898264 8.995095940286765 6.573059715322316 -1.2664297722118318 1.2224451391007656 0.399817340213234
Ni 6.125684504958861 0.4543077117873204 2.21326106527104 -0.733458341709711 -1.156019146267048 0.40292400416301577
Ni 4.070814301226627 4.872657021161968 3.6119329103849034 -1.636663228120362 -0.7796739210338249 -0.04074170069373628
Ni 5.226388090886111 7.020209748589469 1.126824027031995 -0.7544853375833394 0.8596316298053905 -0.09421396158026354
Ni 3.682706810038294 7.625954594781832 9.895727728369145 0.5455389827544863 -1.170302138548623 -1.6042673282881597
Ni 6.409121560644684 1.9147159184230622 0.2602096690594548 0.7017185874042688 2.3304594753537606 -0.20095588042420875
P 7.398848727449678 3.3125488865675043 2.95772330849822 0.09024392118892201 -0.2503079484947754 -0.029265324623020568
P 6.7161560685946515 6.981458985172519 11.889299004774776 -2.4373034669932085 0.6349408676580871 1.9422702062977584
P 8.904019187688082 8.588235995832596 13.727512850443018 0.5768732740913936 0.20329609852161115 -0.4720198305194129
P 0.6365765741036961 8.365061499116214 9.69598733823639 0.11205458930611024 1.9985074315239322 1.5666762574082629
P 1.299041131426546 1.2712169943219729 2.88250308404981 -2.034526015710386 -2.9348530663526105 -0.8162170102651815
P 4.437446911140552 9.077783923191234 0.4547709859772539 -0.2652468291927948 -0.12120745944997188 0.9711637709491276
P 6.225546855741145 0.801664608543593 4.719718398495925 -0.01481546774627771 0.5274618135378012 0.2343550247099448
P 6.605007177288688 8.221215785998806 7.5808536526777655 -0.20362339995404288 -1.2439508743830252 -0.7581722995166233
Ni 8.999368767974797 3.0622147097520305 1.4785109686073274 -2.3137398486062346 0.22769175375715625 -1.0428001043391912
Ni 4.266413832215493 7.902913194664202 12.037321568457202 -0.27034506965130856 0.566456963854076 2.155431370538907
Ni 8.740775021438397 7.332864455377473 8.333757268445426 1.5722552941579373 1.3692168201730872 -0.6311063244033454
Ni 5.457277671721705 6.567576099313182 6.122441585629327 0.6264266595394888 2.0656682456411457 -2.1888927355211463
Ni 0.03875537770170983 2.517562993785961 4.024987993558243 -0.24710949616213568 0.13056164697136224 -0.5796055854208921
Ni 0.19112367477138004 5.178879414994123 7.073951400335661 -0.44832480089531823 -0.11787428131168087 1.3084140870634176
Ni 7.490857565569941 7.64994887553536 2.019545085321327 -0.22799591526113636 0.7378266459807358 0.869607767181496
Ni 8.775243728597793 3.1242214683608625 10.958630068616786 0.0812633149568665 1.687943366451577 0.5026046452848053
Ni 2.260307389830046 0.06283732986568454 10.971001888916087 -0.10385431288350501 0.39099279994306857 0.4325973628577324
Ni 5.688776338145657 0.2611906659994933 11.23588675129467 -0.5711654250733389 1.0834829267705341 -0.6668945377465482
Ni 1.7475865244052113 2.4020674462358005 0.5995460160453843 0.6377405418904114 1.0479520808537757 1.63553965603888
Ni 0.695999333246763 7.4205543229621025 1.9333299431460886 -1.7329147889559444 1.0528880847028126 -1.073329640386616
Ni 2.1258655890541185 1.288686676424446 8.108582940713932 -0.6279029869746992 0.5676756667525256 0.7487486922098783
Ni 4.0782709853992625 0.4264318946934319 4.148927682219742 0.27465758098373344 -0.44401383222479013 0.2618663427563361
Ni 8.551395546306408 2.7674726564034873 6.161962934601246 -1.7394032248937656 0.252818630731771 1.0286765204536155
Ni 1.343901207866125 8.332641534390389 3.920417226606555 -0.20476445553702155 -0.1447327962654217 2.0372932940428785
Ni 2.6815823598753736 5.038725129684951 7.976201879511952 1.296781902141128 0.24940909082958979 -0.7184328148351562
Ni 8.260031149402401 5.40808939617697 2.501891037026098 -0.2053758638687753 -2.0781704918732142 -1.2307140639777772
Ni 4.928139181119743 6.4213494152594635 8.268302716263703 -2.241957733666926 0.3754317122800179 -1.3043445449797344
Ni 0.9315779502557681 0.8783134155537897 5.8453731657696615 1.0280113760657907 0.19657652040959048 -0.486632181115949
Ni 6.858912810508629 4.432149712235735 12.024665508216668 0.7629283261443699 0.6294711027927675 0.6891685186534002
Ni 8.369472755347054 0.12305282313056998 4.098101335585103 -0.8836449620008524 -0.262323999119045 0.2000544516558619
Ni 7.9021564519635135 0.45098819533076484 10.81055305637419 1.7567699983069873 -1.1795449973031298 0.587535124680614
Ni 8.628407958955716 4.880307505294535 4.850654265710982 0.05532885447929181 -0.5054799099500714 -0.6455515532943978
P 9.150892650933333 1.781806060187552 7.977620310647267 -0.33218215756276337 -0.07862896265781298 -1.3076167879731027
P 8.786899411902297 6.819765218602294 3.834162401582378 0.6431000064301118 2.9284265940009764 2.0999883590792545
P 5.773540749192259 6.088114998440547 3.089902264027699 0.123401124667181 -0.952495762225979 -0.7087384703655277
P 8.85364965524471 4.90252067213059 9.4068036523101 0.24089745381415287 -0.04608213907004322 0.09969838173360249
P 2.296704868019246 6.228813769351434 2.187651784851408 2.777955095479564 -1.091304736807798 1.952749508562527
P 6.870771522342585 2.2434467933159317 11.211628533452853 -1.313259845191493 -0.38706441142293985 0.7927083856202799
P 5.000749566107731 3.6260526217514033 13.882437461269893 -0.7981521823436706 -0.1473658630128946 -1.0144164109901754
P 3.9189951040434323 0.41819447353935496 9.628925169244182 0.8298937364213255 2.25211461959527 -0.740052707097777
Ni 3.139614722321203 4.2298502397749225 1.3588930190523205 2.386822941745154 0.48387107343104413 -0.2996510177042775
Ni 6.719090753702199 9.011753508271427 13.41721788888143 0.3969132791925616 -2.6291550711233045 -0.8108305491422875
Ni 1.589833357020278 6.438413040303031 9.513589275946728 -1.127992579147135 -0.5642640699678153 -0.5526876779841255
Ni 6.158455155326469 4.250319206971587 4.489221954721908 0.051069564982305596 -0.12584727221482844 0.1789680632992079
Ni 5.977815135530477 7.97475760838198 3.9071806893431753 0.19180378161129547 0.5041779033091962 0.9691066313097825
Ni 0.9592636588175325 5.145268964800141 11.58163787695436 -0.8617882711370772 -1.3551927379798532 -0.02334124582910174
Ni 6.526601250641771 5.060984439368609 0.931700690230392 -0.1915430717507411 -0.7897796420092592 0.005276932128223171
Ni 0.7159727262601719 1.5392423389084138 9.890433298035184 -0.47411939336091896 -2.2672267926463596 1.2475123664820387
Ni 2.7401745477615873 8.93836792344371 2.25584906789465 1.3991303199030678 0.7006487513788578 -1.1798841258101034
Ni 1.2634096245075552 4.164253567622582 2.65362809994056 0.557989292702697 1.3252887513315692 3.2892531547733097
Ni 4.297597168625559 4.72112390963391 6.203617928846324 -0.7226183136714135 -2.1071468245009064 -0.12703100811028445
Ni 1.3568396623339893 3.662643899900535 9.149901502566824 -0.8502023660716905 0.3206659293930477 -0.0965958315488788
Ni 7.304901889730091 0.7730791144535712 8.617538549774368 -0.22262308098499725 1.1690088736584965 -0.8200507821889746
Ni 0.9870970244916263 7.490248479981584 11.882802091832282 -0.6889430329061553 1.2239042401447955 1.175264624760221
Ni 8.338418618910277 6.443802524903055 0.2497878454998546 -0.0019082727663063913 -0.042328842675198076 -2.404254764068356
Ni 2.5600513278587487 8.412201032227378 7.833838274659552 1.0508579416466612 -2.0731704675554616 -0.20170124323066552
Ni 5.10382345908318 0.44731337894766665 6.930372392877398 -0.43539318043531466 -1.0241863458927456 -0.41376994573858417
Ni 4.630176357008515 5.658654287230458 12.468989753496615 0.9684098623530742 -0.3529145050141083 0.6393317976369313
Ni 6.416070673493687 8.004630487920124 9.696067626791221 0.2597459539792237 -0.0312638431102881 -0.19101728115425812
Ni 7.696728494435221 6.869405694053538 6.093388203064611 1.456675465307388 -0.4042838606250199 -1.0924283088892799
Ni 8.30771516811528 6.637971627616229 10.718570981105536 1.4810472092835332 -0.23442135917150597 -1.2455133337741389
Ni 8.911318986178866 1.5124702587291876 12.85280319128702 -0.10696277660549966 -0.4447761643121115 0.22441693966062642
Ni 2.8717462634166124 2.4843124578032816 2.918634779436817 1.59136733239704 0.41994727819388966 1.2350749120496343
Ni 6.542243675979168 3.1466284351568503 9.23721023023025 0.4546435440244944 0.5025581083175861 -1.1475612453076816
P 2.7023004984490937 6.3317953766316775 11.321587862147615 2.1133195289705218 -0.7884604089772034 2.188546922145953
P 1.6945960782179943 2.10015479436976 12.072844178255849 -0.21864686994606858 -0.15760605268366407 -1.0216846625168146
P 4.583710509472353 4.421306143049043 9.113689518624987 -0.6015535504468931 -0.8799934812911941 -0.9258753314249731
P 3.3456979082854565 6.72837469463991 6.548233940454981 -0.9168808412358467 0.37114414064825757 -0.30394733108678623
P 8.705291171631735 4.25837574816306 13.10099357140286 0.2497006539280796 -0.28927533089690827 0.19928466336937292
P 7.043825657992653 4.679438461109414 6.424145671824203 0.2299954621896684 -0.6137819741922848 0.7637955592406718
P 2.394269304990903 3.561111178035025 4.86054175509534 -0.01264699934004919 0.6944732186957653 -0.8524461678005448
P 3.055579368266728 0.8521504209629224 6.200929646544977 -0.1268872834435686 -0.6262443683253537 -0.38398011607066124
