# total energy = -340860.7405941987 ev
CRYSTAL
PRIMVEC
9.39213629227655 0.00000000000000 0.00000000000000

0.00000000000000 9.39213629227655 0.00000000000000

0.00000000000000 0.00000000000000 13.74634083543553

PRIMCOORD
 96 1
Ni 2.655701613420615 4.020125398022476 9.274312671084159 -2.1876745468433287 -0.9449801705752241 -0.4640267850116073
Ni 2.224273842632605 7.6363138075601205 1.14297506091803 0.22844611542467752 -0.5311230644394724 0.4058062108068173
Ni 6.258496836909632 8.225632777971885 13.486493163717684 0.03300062329573671 0.22833272977526484 -3.633471160454684
Ni 8.264074790943157 5.201158333546146 6.969532255623347 -0.332611274680382 1.719800877281806 0.9676711844148367
Ni 4.506844673907448 8.55336197431186 2.074198778653778 -1.4768653099917015 -2.1550747585304366 -0.47487066970464675
Ni 9.0988572377791 0.8702471526701769 10.422598984954853 1.7991852300484048 1.2010540750194993 -1.1115660581599953
Ni 1.1874571566016936 6.142419427109501 3.2313249710020093 2.544495843111011 0.028057677468164587 1.0685005944290888
Ni 1.1124139893306326 6.589813829231779 12.89753109447692 0.37266983326416464 1.5345253837073314 -1.0417377245129478
Ni 2.8900354085911997 2.849630439179422 6.89725413321394 -0.6261093854093863 0.9600460637694112 1.7797806002695478
Ni 4.889902943888703 3.822759050458761 8.446563055744157 0.3673463641687222 0.46226146558106834 -0.4086894458918833
Ni 6.60085898126066 4.999302544936679 12.612460040994069 -0.2498137824671762 0.6804481080612669 -0.8635813584817579
Ni 8.531731884921966 8.024349909663236 10.241050872975357 -0.014807497326477723 -0.22003192321905332 -0.17938895288671042
Ni 5.26566352413659 8.679535930396897 7.655158189388988 -1.1391205707394962 1.3518634164963041 -2.2085012537806934
Ni 5.448359355144936 1.841760316543931 7.29420712931044 0.10164419260606365 -1.1077618539225567 0.39501811905237777
Ni 8.74100746103383 7.024134377932114 5.247830675363428 0.3863221339402766 0.7803431791867077 0.3636825421638898
Ni 2.695167369224494 5.363961620339208 11.33116323518645 1.6216382154664395 -0.43338463464571814 1.6401205905413432
Ni 0.16190915543834405 4.3213593784836455 12.958496388979198 -0.19170890790464404 1.5962187469520701 -0.7148553818965431
Ni 8.927685557739663 3.1887898651275184 6.338135576364139 0.30313897625287795 -0.623627499527797 -0.09249389356536328
Ni 0.7524641309581032 2.164070250366335 12.511589438719419 0.3085120676393332 0.2731156904179103 -0.8621911630024506
Ni 3.7459032009244564 1.7673839909344777 9.657834912587715 0.9039854733304173 1.522225740404372 -0.4339631328570075
Ni 8.327800434239045 6.200284377492105 3.1376985232850756 -2.894003893546732 0.3051436653877326 -0.39276583268309134
Ni 4.562061041915779 0.9757396251092957 0.433551332755467 -0.2593698015867275 -0.3516778043935298 0.2996078231711679
Ni 5.054227756726561 9.345663789662572 10.191248132202952 -1.5423132551828664 -0.5914288033080652 0.5862238620683582
Ni 6.878236936081217 0.051736581591068885 8.942420880033977 3.334150272396316 1.4585081476407527 -0.7065921134464863
P 4.4213386670444015 4.383262947380212 6.127788357525664 -0.5126440317986785 -0.36130607151191324 0.8517820518539847
P 7.9610469124909 0.7181255422397393 3.3229170820442353 -0.8390288659533743 -0.5336982813658164 -0.1912106281119868
P 1.134429156299765 8.048299856664638 10.980315295888062 0.2544178568980908 -0.300617752492921 0.3382409621623336
P 8.958670214664224 1.523028786567619 7.549256219816826 -0.0657140543683578 -1.180245365804264 1.3948131805849528
P 2.466243444435402 2.814766830054243 11.180846793310392 0.07436761627829773 -0.14215089447085838 0.2738168302499929
P 3.305252352506887 0.3711875491910307 8.15732565069667 -0.8826926253899121 0.9260208558639018 0.011934803764372994
P 6.117924736215517 2.200323895631203 9.959814628653556 -1.540914832173443 -0.7164157844051274 -0.2282455693780972
P 0.8425262630330633 5.853160420149033 7.900818900670825 -0.08474330308566697 -0.18711023279036806 0.06532093269499718
Ni 6.896636130659942 2.3955676204410676 5.01481647531194 -0.016316991992468673 0.5461437062180208 -0.4046530710389805
Ni 3.6030957718435443 8.021579229519936 4.193911848746299 -0.46111166824734134 0.6686809402230097 0.125574478169416
Ni 1.2889767554794034 5.600136274181274 5.690325200093301 -1.334819830750456 -0.4527838651079363 0.14816804719921578
Ni 2.0485563687309427 0.6418538835695474 4.10072589221147 -1.143074670291238 -1.0053123918063782 -0.2895535242589594
Ni 5.424437584551771 6.538194649341697 4.926867573854751 1.958811912706523 0.5015913735289427 0.5372191500348813
Ni 4.629346304785602 3.7593715240617156 11.051948178548844 0.4302455747961042 1.2174667120495677 -0.09922889829635168
Ni 9.080767983690981 4.310915323163818 4.3334104282865855 -0.46497732185033464 0.3586760900882339 -0.6471574643289371
Ni 4.922512440354926 1.020023546721693 3.2559718145004717 0.09698535367781361 0.6999794932259752 0.8767657183825158
Ni 4.250195163413204 2.2255042124589517 5.3065277690026305 1.0166496711960686 -0.1040564015919821 -1.4243366439653662
Ni 5.138371903858156 6.309768507764791 7.315390153022975 1.4043640574981815 -1.357365834371772 -1.0835957981993145
Ni 7.725031924962178 5.462541480624197 0.9238762496811606 -2.1678168886874536 0.9201101468064219 -0.9667214189070577
Ni 8.240923175508467 6.642287693505048 12.329216697192189 -0.3871891099262622 0.16520006298083809 -0.5236108152228273
Ni 1.7071428301238911 0.5377984079505128 1.4224296170256496 0.18885035540992637 0.30139448275794545 -0.3915674414996159
Ni -0.09032605109877964 3.752656146765244 8.99230627160388 2.208296593969055 1.1041713083578208 -0.08767796023395867
Ni 3.3536500297218783 5.734077526803628 4.736287983821708 -0.9075150837502305 -1.435005179422806 -0.4245025016647399
Ni 9.31266921561711 9.529824793899238 12.706292176491132 -0.26110298222775036 -1.5148852408789006 -0.18397862913992186
Ni 2.869222435040177 2.682234397843737 13.522852940120245 0.3464844331180484 0.021050135802079876 -0.00024425480032216
Ni 7.289020791767626 3.1891467662985193 8.516875404072234 -1.1241888891303284 -0.6279847480552281 -1.063369958070743
Ni 5.396599293213669 7.230413862634782 9.287701161064746 -1.9243354761962084 0.6014741033592094 2.280865466475717
Ni 2.8727538782058737 8.025655416578214 9.402854384674704 0.07831811628561351 -0.8863333074662928 0.21176145568014498
Ni 0.8265436650674608 8.226618952260178 7.792181941072463 -0.7693995356910105 -2.3894608935886334 1.2178320658087864
Ni 7.367219716761224 2.9763491391570387 11.560892066037509 0.5550255820886828 -0.10525890654051549 0.16504348279831577
Ni 2.4214429553386614 0.3847976935830826 11.227818744268593 -0.34094164892294826 1.109837762614979 -0.9667227044586383
Ni 2.4162584962230635 5.037537930914211 0.3193025718499139 0.8444790904346683 -0.3439647520199883 0.4609203781721417
P 8.589202365589255 4.573444310843505 10.864186229339495 -0.04076818305629753 1.02700196096467 0.5007907320045182
P 1.4174611770398686 8.247657337077095 5.005606546672891 -0.8827373625849184 -1.3954040200914162 1.155585658274055
P 3.7518108545181357 6.319498760742615 2.6574288272455395 -0.501176397478711 -0.1544723921506888 -0.19871310713661905
P 6.603319720913355 3.4700937328290897 2.0914915796023985 0.8601669334835702 -0.5532461215907569 -1.5149988836386294
P 4.837391511071119 9.441538714756813 5.472267037533983 1.6524724272384765 -0.03899206499248123 -0.22767992668261433
P 7.048525755329229 4.894289071437588 5.214330804396917 0.6680235091446688 -0.09679200672008491 -0.6905114058345398
P 4.440132331338443 5.186083955139381 12.864223762300028 -0.9831381697021843 -2.0336119885365496 -1.2535279765484992
P 0.2964646537602628 6.5329726216817825 1.211601520819931 0.472975766674779 1.1607684880265752 -0.4755221872457165
Ni 5.682646189635126 4.659579590823843 3.445946550970028 -0.4956073880313659 1.0884824368676547 1.3836257965095655
Ni 1.4474220911318192 0.6381026644196023 6.732655070002575 1.065773939526545 1.6565825927521085 -1.2893133616782246
Ni 4.510103745126854 6.607602534965369 0.5516809242888552 -0.5786352510878229 0.6772995351299561 0.8152816429351055
Ni 3.2371311895260355 8.27233987069266 6.686701226595335 -1.1515587965028489 -0.5708563784733522 -1.6947930423835584
Ni 0.11280988565825316 4.548282778287914 1.7319155282458123 -0.46126079223069594 -2.23866209363479 -0.39367548898155424
Ni 8.495910277916732 8.281619301138694 0.7890953400933463 0.14439238220686745 -0.5617608439299874 -0.08017393854742966
Ni 1.5360275029009294 2.899859582929814 4.800002356554301 0.3354927099932351 0.2566986825124676 1.9009170972722682
Ni 7.22426201350305 8.717151435393218 6.311934334344604 -0.1836166178148128 -0.08464611538617034 0.35479346720437605
Ni 8.96865405531618 0.9036531022758979 5.244860881935254 0.012847288276313358 -0.23338777570066901 -0.08315410422167614
Ni 7.841973411281575 3.1824689575463636 0.3090012769984871 0.9542921920047693 -1.6456731449284558 0.7093197967902946
Ni 5.631909870536468 3.072496436197571 13.454217088082265 -1.2173705527913357 0.13731722052764092 0.624369262789828
Ni 1.8723786801614104 3.9898169748956027 2.7230535604565977 3.332048652672281 -1.295704095695917 0.7892484520961375
Ni 1.5514587824786958 1.9378700450401476 8.79606322351521 -1.1987477954838257 -0.8747150065010743 0.0783721094520005
Ni 4.503613779096279 3.3794032668504452 1.8550276479691001 -1.6516062225834396 -1.1416338240796533 -0.35009631883902287
Ni 0.19498262342686906 8.193464711901374 2.940644933852791 0.15256540493596304 2.271256225520727 0.771084379592601
Ni 6.500757594930877 -0.06422812257611411 1.644942469727229 2.2325348976911297 2.383385633928831 1.2280126058862142
Ni 0.1695599894882823 2.1641266031828086 3.031026398554437 -0.4247992069695523 -0.35859458611802114 -0.31129322992889613
Ni 4.290891289043429 7.899396931268467 12.174239877393742 -0.025406098777930437 -0.14382031175348134 -1.0618031278042552
Ni 7.06880337712375 0.6106804447098004 11.313857285247318 -1.1608196529794848 -1.1955295456568442 1.0280028914253587
Ni 6.711827069033825 8.328194903954362 3.8998365544045295 -0.08502175355803421 0.24116304877071365 -0.041750601574224874
Ni 2.9455711092262167 6.078402627595164 7.252183894852252 -0.8579940942019676 -1.543883942104096 1.2224952756124108
Ni 0.8886688883754911 5.948396679989903 10.194135274833629 -1.361950625528977 0.7056883706852943 -0.7527822388493036
Ni 4.730584139580942 1.6058862110563927 11.864411153206694 -0.16157557885437335 -1.0877301320826622 0.507760478454132
Ni 6.617257650854562 5.476197646483036 9.66385621102795 2.0522432304844913 -2.1544466380281344 0.6271378266739006
P 2.6271589118765903 8.87010237143943 13.060232946200331 -0.250281209021898 -0.03470140803692733 2.9961016287504463
P 3.942461824785379 5.579924397339307 9.456176358835906 1.5083541246286023 1.7913721617618892 -0.044972193835316095
P 6.532127329434675 7.641498266675718 11.07471189876347 -0.5397491155455866 0.20444075364901568 1.8895175971860747
P 7.2354574397091955 0.9885411065849473 13.456224187562343 -0.07758303789180188 -0.0006358338117860016 0.4002369442491559
P 0.8306376971842888 2.493884500915845 0.9797124986707049 0.2857395498295079 0.9298469144782116 -0.823654440379833
P 3.0842929591127715 2.2447393071487056 3.4616173300178086 1.8706333586870623 2.1534824743426526 -1.856276832855074
P 7.460840529196512 7.297257695108893 8.48832424960574 0.29209017463788406 -0.25760216816334347 -2.143591954701818
P 6.408423505138411 7.069827119956359 1.4271172321426693 0.7798518413725859 0.371020984806832 2.404232909691485
