# total energy = -340858.7692429091 ev
CRYSTAL
PRIMVEC
9.37662109733326 0.00000000000000 0.00000000000000

0.00000000000000 9.37662109733326 0.00000000000000

0.00000000000000 0.00000000000000 13.72363277933275

PRIMCOORD
 96 1
Ni 7.219688843458063 5.200761664333279 2.8412859199626217 0.5233575615614405 0.06146273529117158 -0.4288970311880097
Ni 7.413663004824222 4.084099853674614 9.42562429210974 -0.9686474322851769 -0.9974571574280178 -0.15479892225217212
Ni 8.851070894559225 1.0258586116124104 2.0300684803543136 2.898441360492795 1.466356440040578 -1.3308317926369853
Ni 5.0545145045310855 5.483598064171284 1.0673707886898145 -0.5722213771416791 0.01960029072943076 2.113086329913793
Ni 1.970778229609861 3.216987437833898 9.151673178456806 3.739122417337612 0.3148413522914707 0.9079285171385653
Ni 2.856981446076162 4.608459260641226 0.1900144142619419 -0.6351468130213062 -0.08828808301413182 0.4298344554006146
Ni 3.124374550909088 5.069976552778429 5.201778090064033 -0.26806810069167386 -1.5582692642914904 -0.3384031987718107
Ni 4.964320785858437 6.027985933876723 3.654136766972195 -0.1875187810826964 -0.2797478510224472 -1.1693302615536572
Ni 0.43595943591659414 8.76236805864663 6.797672443165363 -2.0234275918043796 -0.3140011157783625 -0.5654218377213422
Ni 5.90278928851679 7.783186267031354 9.41384913129166 -0.46929368983750147 0.8523595216240095 -1.0538887580531848
Ni 5.072226941850207 5.8388501090148885 10.40000244071888 -0.4514882862249643 -0.3544908483622927 -0.5325847365866635
Ni 4.76864007944618 4.158981550038037 12.067121607941996 0.056826522070740834 -0.6248287189247497 -0.1896419980732863
Ni 0.38118777889584965 4.550727404328979 8.746524381919198 -2.3761443789853853 1.209037864555924 0.32016867804165505
Ni 8.778702132659287 2.801790654090799 6.231956511032144 -0.558275199374232 -1.5167166376606844 0.7806069743710556
Ni 0.44751424613806257 1.4192547512226574 4.207089242419977 0.27165941758735795 1.8779435191952303 0.2709251105244947
Ni 6.986764197907875 1.7734284846360349 12.682160442555915 0.07262595099684266 0.6600831712516696 0.0785042641544906
Ni 6.837432129753119 2.2756309358667632 7.762251085029023 -0.28029138223074307 0.5745806214024749 -0.7357623072525392
Ni 1.4193297641917169 0.7739500589175458 0.35578838757237835 -0.09249517911694392 0.7169243486104299 -2.068244491008754
Ni 4.365792305734464 1.0931264916163175 2.064048417676053 1.6040968641485664 -2.0584038507692486 0.12444524966097922
Ni 4.52535426754468 8.160885942865947 1.0049496841492502 -0.30750625208263815 -0.2877619795761754 -0.6538040231111771
Ni 7.676255279637354 6.904456217607583 7.782191407529205 2.5076601623399006 1.62329117768883 2.3242109233408876
Ni 2.3779392490424853 4.7257139079020085 11.350596789825666 0.7318971678701782 -1.7096519617732622 -0.21725718868739355
Ni 6.843151868643888 8.68022885752672 6.532943236396154 -0.4672776878487372 0.09462173854164349 -2.0141075999550346
Ni 7.12274395757008 0.5477840818795984 2.95509653428147 -2.6404684392535946 -1.1224677926741637 2.298066403735036
P 2.928984519751936 2.5465965333511376 13.206197293755574 -1.2852618173166706 2.3520675405418396 0.5471875741015028
P 8.124542159356727 1.9984673918138665 9.519110142461978 1.1418189435072659 0.8670621179415068 1.5693864572505745
P 4.139721970232068 3.079995003089393 4.425377920044588 -0.8534581540048269 1.62856965247895 0.92303374821112
P 8.68808646603568 8.274727500034532 9.52726123921238 0.46030382763406535 -1.1152239666275567 0.5427166828143428
P 1.43455739691075 4.429028238651434 6.972346705254682 1.9503033610148799 -0.5461267369371563 -0.996630290651348
P 2.536601055223989 7.157109274020361 0.35215494688356963 -0.861781843379174 -0.7183371697975565 1.2941899730442357
P 8.205659308773203 4.762095197895758 4.8608010132324075 1.2108062693102568 2.4314194974086063 1.3056480942825064
P 6.336214223741293 0.5289492630109272 0.6285955534471578 -2.026497231868639 0.21156990849462917 0.9007417695821391
Ni 7.027458733622533 4.134911763591141 0.24103917347817552 0.1411121687936989 0.5568451517959249 2.078220628384859
Ni 9.067473933674107 2.9739547947029723 0.08909759166226976 0.6090740271936542 -0.2586082408303546 -0.3318312019812479
Ni 6.402450675420636 7.718487581217727 2.4381268424293094 0.9003738447197591 -0.9724102417617188 -1.1868574718041431
Ni 3.839060613621352 1.454126405214089 8.90860021585501 -0.9668134644002316 -0.8304089854948474 0.6693239731236473
Ni 2.6683332055132123 1.4371359677221627 11.417212056998757 -2.607214048075839 1.420342692314625 -0.6898501181014571
Ni 5.042634325556323 2.8543841220224846 0.2975642586506806 -1.7910949968411025 0.40036292830405884 -1.1540414537153867
Ni 3.3538204700191527 5.627004107770357 8.014752240179456 1.2488819931360555 -2.8356200542912005 -2.0206636559059974
Ni 3.7175771102298527 9.23348701082342 5.581113048624117 0.1795812714031746 -0.15288447883827863 2.1640666776164017
Ni 0.05848948729974494 5.092208521483372 12.403639163763044 0.5336448024200615 -0.9104520548913674 0.4120107969556324
Ni 0.9369569913318081 7.028236993176523 8.788421938125143 -0.7153276935472713 -1.4465052096426054 -0.7791291042739484
Ni 0.18511231673391812 7.347182760995437 13.16731807189215 0.15812078753655348 0.8021065390057283 0.013645872918208757
Ni 4.18047276567352 7.000257155717413 5.758614361984859 1.8238341389453365 -0.41262529061117975 0.8981123023790919
Ni 1.9561131941587722 6.7128074582822626 6.5988852621719385 0.2029464284916763 0.24541899583359025 0.3289981034078269
Ni 3.6969766736019487 7.882850373047736 8.31556080974195 0.5837651161152204 1.1256209935911647 -0.25292327463043535
Ni 5.7427303657865565 4.5589975841677655 5.172355190612644 -0.008643791717927049 -0.796335440849906 1.431052365422645
Ni 4.016785090565045 8.21544850123544 3.3411695327873048 -1.836605836788708 0.7637737048638008 -0.7605320579980516
Ni 2.606072441194012 2.376476496145829 1.7974935827723642 -0.33168619176295133 1.622703166395844 -1.2268970042245322
Ni 7.472754471200667 0.24401156237714935 8.551195298799405 -0.22639771753608104 -1.1609152980170845 0.011134676460580823
Ni 0.5814911595263846 8.301572766336621 1.774740273932459 0.1503110616841476 -2.146825116927135 -0.07203305460785014
Ni 1.1070882804824753 4.030006126361742 2.2900765583833538 1.4052225488437349 -0.04754946764418908 1.3236324466750689
Ni 3.9353491360300668 0.8136609870754139 13.4049563448856 1.9899420584524246 -1.332326889125273 0.05626782135379342
Ni 2.952022877874266 1.0937734784744537 4.014642532636289 -0.3746231003357935 2.130147656271454 -0.254822034315045
Ni 0.03224807539858328 8.611207549371054 4.218988174637006 -0.7663003279403964 -0.6969273366632126 -0.8536054782159687
Ni 4.589987317010379 2.2015556289207274 6.881646649040883 -0.7518772105365309 1.9263512210746567 -2.270460726202625
P 8.125001613792215 0.7675477020083364 5.5031905140274535 0.27458687564679807 0.48193400430933137 -0.5580831379680841
P 8.622684533637123 5.527977611990979 10.361123218855457 0.5481800199217591 0.8701232733653338 1.1984498046274328
P 8.1122962921578 7.211249884438894 1.0127135264468854 -0.2815059713641345 -0.5296706482636621 1.0782299059017109
P 2.197317396168878 -0.06603110367654201 7.736368797717232 0.848973635870912 0.6970484356221092 -0.310722959247723
P 1.8072030739549745 8.11240881161139 5.140447486561167 0.8626089672661597 0.2842153998754976 -1.3630184046718592
P 5.952325977959309 5.8876647986302135 13.018883346379765 1.0319451639025583 0.67336034797655 -2.525587179131967
P 5.823931904793224 6.414509010196914 7.511218308747925 -3.81210729433577 -1.5069184206233401 -0.1062382397346493
P 5.720920345032572 7.957357004565863 4.411406754557298 1.7250412997451385 0.07493428741504514 2.0088206405244824
Ni 5.3841308671986825 1.5112675343949935 4.679978500666567 1.4343850293403038 -1.4016338030512119 -0.45332585365433536
Ni 7.852648276380244 7.048021663765907 4.860608792499193 -1.1352037521835934 -0.9987545360832025 -0.07215749600085637
Ni 8.284094744545811 9.291021958091886 0.0653484856581026 0.043381195199112384 0.032377387889441014 -1.0585180292950802
Ni 1.2988308060191203 6.736511556504994 11.343213638346008 0.3771872615185439 1.1383986049718073 -1.7593619274038796
Ni 6.2213693681115405 2.4577905546060856 2.008138438849834 2.3020714111293707 0.9111578227091405 1.7597596770629307
Ni 0.5478581571865444 5.751338103986108 1.0596041334058397 -0.24075244359585635 0.68348560933601 0.08556502765601394
Ni 2.8414256316174944 6.072899949100965 2.396887525026859 -0.2970585743867529 0.06319745859409116 -0.42520004195239675
Ni 5.4186649628293475 8.205237360822245 12.34315901979689 1.038516903582805 0.6356402077179568 -0.6623711959548979
Ni 0.777456915221067 5.801587416634692 3.9493456183944144 -0.41418543600944796 1.0141086499417697 0.2894923320037208
Ni 9.232071141032426 5.946053018421728 6.611113313790713 0.8168731557919414 -0.4444691745946539 -1.7947781021196443
Ni 7.422861470155116 4.215278783317024 11.82244336780233 -1.084265056352197 -0.3597361559216321 -1.3650614032438166
Ni 0.8082928714771094 1.5066354835555829 8.570779309696556 -2.212164818675209 -0.4648963321007542 -0.027235181566869222
Ni 5.2711519591742775 4.042083214380286 7.9832702347273905 0.15578956830021556 1.66060508364794 0.45572392157286673
Ni 1.6620623554464053 8.919360826266564 9.748335710975429 0.37072042284727763 0.9027328318702389 2.3604891889466315
Ni 8.45426166485678 0.35766089881252056 11.21753315933564 0.1603100818783884 -0.02758408026585572 -0.365366614734532
Ni 7.399860618517315 7.267472104748823 10.997899874240643 0.9485306069306438 -0.7667369012571827 1.2702817989680704
Ni 3.854053830812075 6.502714885189492 12.513016511610491 0.18186466812071259 -2.3767624721853586 0.01940488688917303
Ni 1.0674251730923825 3.6446926341676322 4.983366578702588 0.948652734330805 0.5519209750214301 -0.6315992048793639
Ni 5.490846192306637 2.040840342711226 10.628226586095392 1.7688963492568763 0.5511203334970056 0.3635478163582384
Ni 2.969894717752639 8.499213186565552 12.180409944463769 0.8065337215391465 -0.20719774756886253 -0.27390604752968956
Ni 2.1859435547352652 1.7533250089281485 6.6047043932467115 -0.2860907625213396 0.6094211261204279 -0.5889191495123342
Ni 7.384801764978666 3.1144259558876013 4.120973416277814 -0.31912686704070203 -3.2035204911911794 -0.9424039252076157
Ni 0.3321227334962897 2.5310500955136024 11.334924705264957 -0.5288198702275925 0.28409430091660104 -0.5940243319493834
Ni 7.518352979767575 4.540525640536917 7.139363080865163 -1.1929427587662744 0.33093800074301716 -0.780573550029959
P 4.3100201632388915 3.652953437385285 9.856436900686752 -1.1989848511952963 0.38909815402351694 0.041494005478728536
P 8.640312581366052 3.2216007354310436 2.208983788181822 -2.446631943482986 0.008482840660030551 -0.21723713408273557
P 1.7551815799123656 0.5248207367263271 2.416539985258276 -0.46649607248770625 -0.29819088821898326 1.1208629100808891
P 2.7739983490543367 6.246845647728297 9.78165647183156 0.0020849075534867317 1.0851217479255377 3.01038873479708
P 3.8870126540924947 4.079270893791422 2.4750294725580213 -0.019112809570050956 0.6516098436733357 -0.987192542277216
P 4.2571266434309685 0.3504662174176227 10.811903342133938 2.107097202209894 -2.6054759823388096 -0.1477070484023972
P 5.083188211953994 0.3052408983717844 7.239916090564898 0.6560424255233926 -1.3742299571169623 1.6193489052116306
P 1.0544573060662599 9.066995725996355 12.088159932776783 -2.868700124674621 1.3173543269758408 -0.48516562387275153
