# total energy = -381164.8189444375 ev
CRYSTAL
PRIMVEC
9.35242742599916 0.00000000000000 0.00000000000000
0.00000000000000 9.35242742599916 0.00000000000000
0.00000000000000 0.00000000000000 13.68822289581028
PRIMCOORD
 96 1
Ni 1.0989756571671914 8.838558040662598 8.812682680465466 0.2338217779142941 -1.042852040623049 -0.9826344905928882
Ni 8.335163649289964 4.145650382977192 2.3889914732510666 -0.726794042315658 3.360525677066051 -1.5688421547113305
Ni 7.656149380886299 3.409670480800173 5.461573357510511 -0.2711824779509394 -0.13619056312236547 0.9737456727436907
Ni 7.833293703542853 8.709344907152069 9.747875827645942 0.33183017353998334 0.605976362104937 0.656420634798418
Ni 1.5095378566445206 7.9293898925136626 4.596792763860297 -0.9011521176466804 -0.655703297016419 -1.4776628661923326
Ni 4.529548812648606 1.3534551999307654 13.723400884542986 1.4435810940172753 1.9871858358635262 -2.4829886277351494
Ni 6.010945215997442 6.541854448046681 13.123213548376837 -0.6541516362585831 1.296194147958458 -0.8878813686797031
Ni 5.667206108510032 2.429826040675334 4.37586505349894 -1.6510647482576726 -1.040710054579382 0.8722542036654074
Ni 0.9511511936272777 4.809672710658696 6.38155852290165 -0.6798274437581324 0.19337292587062826 0.956154956245121
Ni 4.250968065118339 6.640793774871225 0.9184523025811814 0.4062538398671971 -0.8812718337829855 1.4414517063790981
Ni 1.9619334627657845 7.293939229776763 7.15234254747633 -0.674771883612096 -0.4859747500376082 -0.04972590647021759
Ni 0.19734650054422817 5.949050853115805 0.707678522377061 -0.38680395867270156 -0.2535807057087762 -0.3534948029976106
Ni 0.5274525749744352 1.2367182042389264 10.002408679244272 -1.442760912108825 1.0242387963972361 0.7234675490455863
Ni 7.236384393092933 0.7864998431582857 5.662228746780566 1.5823916112609908 1.4490706563769367 -0.008567944174669115
Ni 4.705103222689585 6.853496025553767 4.808714086875776 1.4641823152073943 -1.7875283625357667 1.00027354383089
Ni 0.41394310189221467 2.9968917560881887 8.339207638789816 1.113190481137296 -1.183756207171 -1.5648651723414533
Ni 0.049363045742757045 8.76018470114188 0.3333401437388305 1.2708232732938372 -0.9787312988837402 -0.2529770106865063
Ni 7.402997882778088 -0.029418994844435796 3.303118278275168 -0.38133650780022715 0.9601951877527658 0.20614025283862564
Ni 7.624369833429091 2.47357669488511 3.194625447116445 -0.8783366624140615 -3.665596066013687 1.506705790391902
Ni 3.417386233199289 1.1326630997630895 11.643571660361424 -0.6728330147181703 0.5127828713693878 0.056137723533832354
Ni 3.3351316364111363 8.414967910164702 5.654728100205911 1.8960656827172377 0.6451283497140502 -0.1385606060164388
Ni 8.409852132513409 7.254500044483342 12.439418319213862 -1.0611109868332371 -0.40474691630436743 0.6551476816232652
Ni 5.835156995277701 3.2835155909678373 11.573323709549012 -2.565007847021434 0.20794516725784828 0.0882438600397577
Ni 6.036608276098259 9.184139576298644 7.487635478004173 0.40754761897795616 -0.31940686017496606 -0.11137376118900173
P 7.382478657610014 7.242519585303624 0.9977945535546857 0.9451349509855336 0.39890845524571944 -0.9218525834188253
Ni 1.7013187277915196 2.7222390279611077 2.6322724197446994 -0.4800596701047539 -0.13578972813952098 -1.0449035238354392
P 0.5137531396844651 5.443598927770074 2.8213756909985266 1.8518324239304753 1.0877409307159396 0.5964645659597598
Ni 7.315328230669828 7.703510071976146 5.251705827497268 -0.8703207340881204 0.37942746370297237 -0.0214370868278534
P 1.6264899581608194 9.395915936693292 2.6864500949845045 0.3052655356775775 -0.666919734557529 -0.3846023230356925
P 3.1915344699432233 4.382463190853577 11.69302729513297 1.6482933561601227 -1.1876521997912965 2.765174398775128
P 8.070396436660904 0.9878314129113179 11.608775955148198 3.7950071443203734 -0.5969461335818688 -0.4431088039120175
Ni 0.41888211867036396 0.7774410822203659 4.300675280180232 -0.7078923203151486 1.0398214813268414 0.31435027158766504
Ni 7.459056331117847 0.46053128249943504 0.8782359305915582 -1.9188058046272307 -0.03913090456319067 -0.894251276761789
Ni 3.720021423360498 8.92628380733376 7.965259256363759 -0.1318932212985922 -1.3084343987783917 1.1894288320757451
Ni 0.1735950765529613 4.481608271075432 9.941837684804424 0.4392958579238305 0.8844183498317671 0.34693617594348636
Ni 5.563740206944674 4.136896511164377 7.1544094338765785 -0.8023554217917407 0.23624452842317378 -0.18766764795573485
Ni 7.846312282136271 4.163391937281584 8.37542678341534 -1.382013200606807 -0.41405045309348043 0.2882008668858069
Ni 7.33117124226268 5.610165655319476 6.681194389675712 0.15759679671228344 1.0909697220658823 -0.6921538265339693
Ni 4.085289818148228 1.73041412865655 7.338735485341959 -0.24466000618037864 1.5310795912505761 0.0801453993023394
Ni 3.4984156620307334 0.7681223238076639 1.7564045237076331 -2.3981728195403345 -1.2343380338836096 3.9320181464615054
Ni 4.380798458820799 4.2786231922022 0.09980910254953547 0.7577478103846951 0.28515693785316054 -1.155429849422481
Ni 2.8008742354420386 1.644100578485105 4.345230243124946 1.3055033411745258 -0.23699040545026281 0.8217338263183525
Ni 2.1273217844942316 0.6847706873147642 6.654830832781325 -2.509287927751311 0.9173629230785879 -0.22524174955476695
Ni 2.6091588312850926 3.87477603541889 8.067619701039936 -0.15932663491919657 0.18842766605021097 -0.7480290404350344
Ni 2.2182834909594473 0.6637688769057278 13.691370692038147 -1.450151033925309 -2.119978429047936 -1.1694449327546503
Ni 8.870309530838355 7.392251943982227 2.7361114831533606 0.4727783059519922 0.8467159501849868 -0.3903132573775407
Ni 7.8875284285882765 5.687528932707946 4.149366102284063 1.1851271193765975 -0.06714204506413599 1.0185168063117944
Ni 5.013237640015254 0.9204125713119142 10.010826798922388 -0.13052770840963326 0.0330319907543044 -1.6142619776070264
Ni 5.918702227012615 4.587496451272755 3.886085925571922 0.3982651652347657 0.5468037083995229 0.4330177382246026
Ni 2.1138729942518935 7.439154366141704 1.5355039353850126 -1.1276128272102128 1.16154984627729 0.2893038701419986
Ni 9.277373922561418 8.71592901586598 6.18617322633087 -0.09564812292362881 2.813978564762025 1.3791317652939539
Ni 5.301180167123117 9.50169188776481 4.718466905844854 -0.8135543758313537 -1.280866516462452 -0.7726057013331339
Ni 3.5254348240683657 5.393806605621111 6.540835033487283 0.1825328978323308 0.03896532551960386 -1.1793632203096271
Ni 6.281913087827247 0.4984768851769304 12.223952426308363 -2.5102747171446125 -0.7768493071008362 0.7272391002728765
Ni 4.14752086840728 2.948090791217173 2.3262039535765626 0.44754472819618407 1.2034050917501793 -0.036568286042337014
Ni 2.5325718053501087 4.989875276993446 1.7194867527739717 -1.18252027788137 -0.448894300245543 0.11987665645369032
P 9.53246137308977 2.260051430613329 6.03282428407319 0.012019650168695429 -0.1532248928968329 0.5956161019165356
Ni 6.217652560876549 4.985133596428172 1.5547493599751956 -0.6748168779174185 1.4006354436936845 0.5467507436744004
P 1.5578524953037127 8.063849737655591 12.25324516338627 0.2136213917070192 -0.16791771902231725 0.6421188734637651
Ni 7.447767951547262 4.848036366829818 13.254866730130916 0.7606439009855674 2.003603615099917 2.0456933451811157
P 3.9105771265507885 3.2970672579088305 5.732709573029026 0.10225945759255936 -0.0872609273011981 0.26822776619798966
P 4.066463382294384 5.048786215614092 3.12064120165743 -0.004822361089307824 1.465942492431611 0.11668694587179904
P 2.6027898283956405 1.2022825674709927 9.136997732004119 0.8251665061489852 -0.38644374711980545 0.008073778147069966
Ni 7.785231580416723 2.9404685630895613 12.563954303906455 1.248304523366031 -3.5137932502753615 -1.7516033665043833
Ni 7.078552832502044 1.930687003656152 10.075229482765772 0.6060606942886272 1.1259040720492222 -1.3816064520866917
Ni 2.220836703571518 5.455504567532588 4.4483987375069205 0.5266282618929125 0.11156350860230464 -1.0561274175757167
Ni 6.352103053591328 7.258007204664758 2.8367884909424577 -0.6513046537280911 -0.5908888716441952 0.5203696825777103
Ni 8.454631553709733 1.1849057578254683 7.809390770231749 -0.17774164709127452 -0.8961862890009727 -0.06048134521450874
Ni 6.274150573292379 2.091567455498085 7.728876660136294 1.3006439561996956 0.47809817550300887 0.6350146583188161
Ni 0.2828370371264343 7.122050971178758 10.57334442901198 1.2205247821496013 0.3019922642429444 0.17495714236760193
Ni 5.843087853501277 5.182123769497967 9.60027582235764 0.31751324269667897 0.4303425053852847 -0.8310939273770138
Ni 3.9381013196545447 7.827663542398286 3.0062077087727457 -0.7033733493988725 1.0990311589177781 -0.475365092842562
Ni 5.308549879717666 8.764701923455545 0.9930650311447063 0.9349546680184221 -1.6896660055696384 -0.267544624088036
Ni 2.2467522792053978 3.0773974489992084 10.348788912158968 -2.3001507970678903 -1.3015713531099713 0.669427331470731
Ni 9.239524649883572 1.214384608203667 1.858641516345424 1.8116591941456994 0.013695238098905445 1.1563845000262665
Ni -0.32496036901203285 3.148354313789625 0.6797895846144378 1.8803115052067745 -0.3193397543824565 -1.4178672341909389
Ni 2.2908302683654393 5.756596607213974 10.482440707595098 -1.895744551932393 0.9320416081366852 -0.36601890360655026
Ni 3.456208158300781 8.452770420706795 10.377452230889647 -1.4630890821432156 -0.19256637080893285 0.009478114693764321
Ni 3.8276772122892555 8.09836019384073 12.756177544857671 -0.2764403839157691 0.8400107702506695 -0.05408855431428749
Ni 2.4681335822835515 6.083529403112036 13.23228155380531 -0.511253579209055 -0.16862168706787736 -1.649114052289205
Ni 4.299965430959514 6.262179466539811 11.061055735296035 2.5588004326591416 0.6204293043054734 1.7894001256371828
Ni 0.7071454340294857 4.53639478932273 12.216656597888305 -0.050582598043558046 -0.38806842720742196 0.9507731231079174
Ni 0.707720608299238 1.7980695866628602 12.311638912785495 -0.41417206627300934 0.59974400804198 0.31444823061811006
Ni 0.3469114507768393 3.7845905804071616 4.269055659227297 0.2778136101142119 -0.8825028779766091 0.6822730770851475
Ni 7.534623942493433 4.773965143798303 11.012161246153514 0.8792406622855696 0.7720701405446381 -0.46900264095964384
Ni 2.581728162452841 2.887617997262404 0.22839188247012612 -1.2525409300448815 0.5748410741527132 -0.4771309264937332
Ni 8.969604249894616 6.610866007989804 8.426825852548749 -1.9760159352896358 0.7377793376825681 -1.3106514610343685
Ni 5.5253578459192525 7.882075963559568 9.400769846384373 0.6326888383991168 -0.1051645470544963 0.379708742388817
P 6.699957229024932 6.978126469760579 10.982129667330726 0.2806927314342198 -0.6096031602242469 -0.14556480524841384
Ni 3.9554594244457677 6.386136535991793 8.672365410199214 -1.1389848164925802 -0.3544260565626283 -0.9030418784702254
P 5.522430536221164 1.187851772377858 2.247236734931791 2.1126659545469226 0.5035204722308554 1.238905598649634
Ni 4.261031276732216 3.480805041706448 9.522718014484438 2.5004693010184162 -0.43377107145085936 0.14804360580620957
P 5.706402130697542 7.194925083535015 6.787660549870933 -0.6502718415882027 -1.0181018302615628 -0.08981866072604532
P 1.4008907104378159 5.715296288917614 8.611835566438828 1.7536044560948123 -1.0709449422045232 -1.1999646986100625
P 9.329457589362239 6.760065278320833 6.062088963869643 -0.7446740079198723 -2.499436745988844 -0.5324849777840055
Ni 6.481362949237611 2.8052698762027473 0.9303532661301209 -0.049710736961566006 -0.7583381356705262 -0.13065266402327175
