# total energy = -340864.2863571104 ev
CRYSTAL
PRIMVEC
9.40016891596618 0.00000000000000 0.00000000000000
0.00000000000000 9.40016891596618 0.00000000000000
0.00000000000000 0.00000000000000 13.75809739215329
PRIMCOORD
 96 1
Ni 2.4589244046506797 5.936404120104907 12.377115086250203 -0.7380639588025225 0.8707382812415133 -0.18342918439435504
Ni 4.584556417627227 1.3544421491186447 11.045716511391202 -0.12447404601638562 0.8961855176700243 -0.4735740623804102
Ni 2.4249427937554295 6.038715559381228 6.861686254115061 -2.1167506661392577 -1.6188907346282893 -3.1563651736616154
Ni 5.1698955404035285 0.07753541387200315 6.236077747406765 -0.2212922779887157 -0.08540973302507225 -0.08033720359817131
Ni 0.06365700437663739 4.591296338792343 13.493969844205564 0.3856564753318197 -0.2444157513800565 0.5304216674970735
Ni 3.028668647074223 8.131719585796942 1.1743405513907181 0.5259080958974361 -0.031403454011945914 -0.7143568449935698
Ni 1.4119429828243835 0.983304677094782 13.609688744510901 2.4495452604750394 -0.2932466568398305 -0.6256743547544966
Ni 0.3802311955038256 3.980971566843269 5.956087133950983 0.25618034811515233 0.097246063538368 0.1975280856895824
Ni 4.0829728005429535 8.167177023223466 3.207700505571201 1.106818773282997 0.7419854053441157 0.42425233332714685
Ni 7.532599815282761 5.488617670144704 3.349463514077474 -0.7609105243833928 1.370992166905955 -1.6431424080868025
Ni 4.53223507703443 7.523594453391295 11.948481480605095 0.42785136353231473 -0.821216777472618 0.5676036758640096
Ni 7.718459956533351 0.7831318385415337 9.185800015243736 0.5678307042731511 -0.0022859678206992888 1.0940915555243158
Ni 5.236890544788161 6.876834626440841 7.011979915978856 -0.4134804395226233 -0.5951918698949233 -0.28506232125682524
Ni 0.2058937813999563 2.511565350989103 12.084644808444619 1.3176415191989566 0.14810942604713848 -0.7339571357230005
Ni 0.5002318727836551 2.3194540973608246 7.932561025477607 0.08003844141082989 -0.295467061529917 0.5477539881279341
Ni 8.166237006324566 4.394268796782816 11.068018412317613 -0.7293798007649632 -1.3468276538446096 0.4239450864993731
Ni 5.415700559296998 5.136788145224255 8.824347537329242 -0.03387531259120618 0.42002595395062503 0.2296239377828626
Ni 6.186984424844792 9.285533928183272 11.65016429768835 0.8139377273127014 -1.074053663036834 0.49652784296310615
Ni 5.091300727486465 2.9726342397307692 3.3863497771903264 -1.7589610924210355 -0.5227883193215319 -0.12829367687279195
Ni 1.4905095952344805 2.776687717154977 1.5607326176499372 1.0632694279371366 0.4768175090183724 -0.609685178415092
Ni 7.493645514992328 7.390854667097567 1.0964761316041 0.776122970457773 0.2077461638731648 -0.6128455784209446
Ni 1.2542269475268712 6.815507923956578 0.7010053821353008 -0.3622200986857504 -0.8891399236771526 -0.8504587050568709
Ni 3.6696661704344176 2.850084236621121 5.455264930554819 0.3738080606336659 1.062178765976119 -0.8297556681815645
Ni 3.4379614050244536 4.63825018289242 2.2341090230927567 1.1184368171378996 0.19425507136526543 1.2720255211320544
P 7.577250617980531 0.537633265157105 0.8197172962467378 -1.7179170299955318 -1.9356588716288277 0.636030244067524
P 2.562721070627264 1.8356179993277908 7.079586871364672 -0.5797613942724661 -2.0273184422183537 -1.239201275513182
P 9.108265541388631 2.671114419239471 9.927691432396708 -0.7761075438388052 -0.06307661674551071 0.48073072802984945
P 9.35274513645465 6.9178099630639105 2.4217138357077066 -0.9456116335116361 -0.14425585662900317 0.32616423350345763
P 5.924456505319882 0.9388240174557131 3.55118550048011 -0.416166985215851 0.988474237203117 0.7293564037261955
P 7.705393721638636 7.409561003385686 5.788100474016085 -0.5086022576291369 -0.35437592005098323 -1.1400343408030174
P 3.244543527906704 0.8089682030078115 0.9555563182561405 -0.5538426175241752 2.0409584015992914 2.5224116096174622
P 2.53971885711117 4.430497048066438 0.3135802373041903 -0.8235796212778397 0.5873816298218851 -0.35894888413364634
Ni 6.744339244540828 8.581799676990462 7.671364169881541 1.2816311625426184 -0.08318727145245673 -0.19946772591445647
Ni 7.277281825372419 4.890983126330785 5.68303008514149 -0.10791074234106576 0.29767486781451313 0.4559653481597115
Ni 1.8430535329980928 7.664455985691522 3.2936612909080485 -0.40748205584734337 0.10103381271557439 0.2815126562323539
Ni 5.221897275250699 6.699444037449344 0.532572214173425 -0.37297168077529963 1.0856907330551302 1.2114109927737913
Ni 0.46520872316442335 1.1509566910136715 5.7106007807862404 -0.2752607617853711 0.5145615605363655 1.04956364831527
Ni 1.8443319559805975 9.430907541598222 7.96536103513094 0.8768618776407481 0.495295770328218 -1.1538848735328644
Ni 5.954931853182234 4.435084330533072 1.4899333648754542 0.334300746567663 0.9800932122282733 0.30900957610104196
Ni 8.531489972561312 6.550347957114748 7.607347139032625 0.2047405442776216 -0.6993158915000472 1.1849368577426624
Ni 1.3281686767943781 5.079879522164824 2.6010370994433436 -1.9369703913513994 0.22948406977088864 -0.05499281129611175
Ni 7.576667807503213 1.8170996664194525 11.384385799727044 -0.5007470232507764 -0.25598880092963655 0.8089490158488585
Ni 2.0316585235934728 4.553958867568019 10.451930396761382 0.04714554733755106 -0.9638101587975337 -1.027476072387611
Ni 4.326549979386029 4.015921395144386 10.591698689408188 -1.417015941934237 0.45545652684409305 0.8624580435105921
Ni 8.136043663531884 1.0291117005781993 2.9166891339927106 -0.11454933070350594 1.193677837160086 -0.6496002694424747
Ni 3.5614890257089575 6.039326570365514 4.636176505613445 -0.9781414878185413 -0.3235183112401783 -0.2590386434995539
Ni 4.001736540139979 2.383939256625393 8.58653830217782 0.9310656173766609 -0.3398257901509502 0.9157773237590229
Ni 4.228581418182628 2.8884651266032253 1.0441115502339533 -0.5689254799992266 -1.9608166018413777 -0.9441520182469739
Ni 6.763994997896835 8.468706243883753 3.0318853849022602 -0.24180479611977065 -0.6142751117786195 -0.4053644952837083
Ni 3.1600548090335345 7.356920057047263 8.230712765420146 1.2045734010266675 1.2856775646978504 2.3757851958737537
Ni 1.652183101676363 0.4318033426281992 10.945763574514222 -0.6805465813123441 3.80653597089558 3.859833396767139
Ni 6.268916297752951 1.9322611367037426 7.773434964831745 0.6005299942783852 0.45558893865689926 -1.2021010282267748
Ni 5.326314352380558 0.17239627920763992 1.2774444249128125 0.2700491356774446 0.023572902223933597 0.09911885508104866
Ni 6.146714100895897 2.8758594999889713 9.93952342510317 1.099498842582816 0.05943490622786538 -1.6788223779869151
Ni 0.01613633008652457 5.934853092221721 4.5303625633718205 0.5979228956728412 0.9430266463932792 0.931699394305918
Ni 5.894808372328563 7.503337089219991 9.673799448121999 -0.35289367907850194 -0.06337949269791021 0.1746684074825895
P 8.274009943783499 2.451742675543081 6.538371201805857 -1.7606011991276196 0.07559506092749563 -0.74974010958887
P 1.102498819875355 5.524836521259337 8.504884674271734 0.11121229591047298 -0.211181671917275 0.09766695312587051
P 5.251912014832589 4.377028886856982 6.866913688089846 -0.11603568544104532 -0.49214076963900405 -1.044949032361394
P 8.207973756635743 3.9747580551415376 1.5747379294266546 0.08512459768448566 -0.26293720722301167 -0.4284355181705589
P 3.5773565109623964 6.555198444313074 10.317857666505013 0.2725356495447242 -0.9120209420403841 -0.5749076657245906
P 9.183570295159543 8.941008334567279 8.177909196158213 -1.1298738553302476 -0.30123867390637155 0.6059529650661692
P 5.9718239568554745 3.5064698366163163 11.962486792381812 0.7226000588389685 0.22526977457922492 0.8407342786802552
P 7.461167931135318 5.749444159082603 9.553210320263458 -0.3989431651383968 1.799570124191649 0.12416834185050875
Ni 3.0637876784171425 1.631314726520774 3.1587218650708935 0.19806467491934276 0.17004504977796522 -0.9727388287457313
Ni 8.887013763894439 6.862536969408565 12.644736957350252 -0.2091772398927365 -0.4390382333870697 1.0937274873166776
Ni 6.984579363392807 5.309629052425075 13.120148623935341 0.5243443509547421 -1.9042716155667978 0.5434052242409352
Ni 3.301386349783212 8.88209747551319 9.895993122548887 3.6456576752185472 0.04598109471580468 0.25968681860651405
Ni 8.865261772853884 0.14524953118429473 12.878101792603674 -0.8835657720234847 -1.1117460353812854 -1.058094054383784
Ni 3.692969189358159 0.12350694031272809 12.892493451325839 0.45020659129906343 -0.4296007421232537 -2.0867075828099484
Ni 7.780623274057636 4.176438680800622 8.164949183173073 0.005359464539700447 -1.1890678491919005 -0.23206494312418743
Ni 6.139316167901551 2.6775817355039058 5.591855026066442 0.3286036961828857 -0.30467186795763657 -0.47302076098010143
Ni 2.6067984630167045 3.7950832250857114 7.402062488583156 -0.9621759656282204 2.9846764176326404 1.041871936097967
Ni 1.1192123203378044 8.257916854474324 9.769886095493801 -1.8428711009721293 -4.223946598710545 -1.3517238055946463
Ni 4.553357256752722 4.9736858130960435 12.960788499081652 -0.39391434446523776 -1.5974176523561778 -0.22141569094045738
Ni 0.2879807570964352 5.997796623772093 10.620384245095034 0.024902676778950663 1.508283419291667 -0.6741684457001422
Ni 6.4118458672307606 2.299892345694707 0.014236555933846826 -0.06120485364409459 0.17482550188574406 -0.39899947229762894
Ni 0.4090276731847409 8.081550883902628 6.293587041264593 0.3523738020192899 0.08990093602720646 -0.7547828142191002
Ni 8.361478516226184 8.375061760415294 10.94969848525302 -0.491724765147508 -0.1618745981520309 -1.4473709000770105
Ni 2.62666102009047 2.933106529132006 12.460240780619966 0.23784169770696453 -0.2271636491678281 0.23363254472162345
Ni 7.362672960468532 0.18705772277978974 5.146326496697398 -0.49289358864462857 0.7110169819870593 1.153984632335522
Ni 0.2412431168831065 8.985771939292917 1.4040684612622947 -0.394294867733108 -0.14164335870682057 0.760811022691051
Ni 8.93901549874161 2.0283496641093435 0.4837251760389637 -0.784214746326972 2.681266704216879 1.366581182322453
Ni 0.019695234065761555 2.9647004971040496 3.517147488570926 1.991440240264506 0.21817558673660492 0.49484068506867035
Ni 5.701277693182946 7.106837961263794 4.640785408468753 1.360254982994109 -0.3495245054959529 0.4394215848684174
Ni 9.072732902610195 8.597422757850188 3.877884613625355 0.7519689989193887 -1.38629794402509 0.6953211685183573
Ni 3.119427278663058 0.5011070285165314 5.287993623479983 -1.552137697472456 0.4345989666687934 -0.19971506603857217
Ni 7.2110294343379175 3.299402914126532 3.4121729814200195 0.5112466372305194 -0.8668253193403522 0.29534184880596237
P 5.25106599962358 0.4707200422426765 8.982882327345697 0.6337100805747795 -0.9098365327945558 0.7301395617491232
P 2.014531415695507 4.011334112677752 4.369874418239451 0.15275155280484018 0.42596108848813735 0.4552017305208096
P 1.321080949376669 0.6320936832938101 3.920603681595884 -0.05916134085150456 -0.8009130329182593 -1.8622240515774444
P 1.2991785556322892 7.985725561228719 12.240262726023785 -0.019205626394173374 0.026187199918329095 -0.08689274532850197
P 3.2787225423507227 7.9642837757648 6.0418552158235554 1.0185965105097943 -1.525058838977793 0.07771853502840165
P 4.799143475308215 6.1611809609699755 2.7448784853130856 1.7316045547849532 0.7051142433493792 0.08971941614401968
P 2.709871315981135 2.2374282227627744 10.35647638076254 -0.38898939635979457 0.9545814411104139 0.15564224408907387
P 6.699237233731584 7.274048167240201 12.653404853175013 -0.34456433327720015 2.136609352736398 -0.6967525016482452
