# total energy = -340868.1201404113 ev
CRYSTAL
PRIMVEC
9.24567775891641 0.00000000000000 0.00000000000000
0.00000000000000 9.24567775891641 0.00000000000000
0.00000000000000 0.00000000000000 13.53198396760577
PRIMCOORD
 96 1
Ni 3.5045649318924275 4.775207680336318 9.941569478488784 -0.06133546568468792 -0.28110127972654814 -2.1516670184004685
Ni 5.86210182779081 7.147167833633486 2.7388868969544857 -0.5398887264472444 -0.6813598212422588 0.6736249144918464
Ni 4.724827981896586 3.711843782933048 5.765788677374857 0.2541810582969365 1.1812694361934042 -0.2961777144436964
Ni 3.8232079722717467 2.4174951165593597 7.806412399213993 0.34975899010426215 0.036442044877117885 -0.6236221002111582
Ni 0.8886372288303686 4.469878416017416 9.645287109916492 0.28906835709242473 0.9518894961005475 0.6275000951093258
Ni 2.846291162482992 5.885835482754067 5.18536166607202 0.47673420527594673 -0.10253893650619116 -0.3378727801896375
Ni 4.56538626789527 7.771195612398626 0.7167351148313965 -0.29410026308937737 -0.37674426044385434 -1.1499847671475099
Ni 1.9716315493804975 4.439635803869065 7.508140360774894 0.9241889448614858 -1.7115643483046266 -0.22595985866771406
Ni -0.03990434546997279 0.5527926048674338 11.959689220514687 -0.2671440462155077 1.9360363095729045 -3.1801265377472716
Ni 2.4380112756413492 6.10594733460848 13.183197503433572 0.7891134691801701 1.2380221676034162 0.8725334254687231
Ni 8.059337161650642 5.533621386211293 11.337786098512522 2.0274007175195146 -1.2452212564550167 0.6383136407850619
Ni 8.030712543120744 7.437287957938925 7.321195528963214 1.2333743844187597 -2.4621737478723276 0.2238078453217178
Ni 1.267240339006228 2.0384962913728155 2.2058347387999664 -0.2651910362541949 -0.05258523029588362 -0.3346475883841204
Ni 6.519987278731817 8.281464571269755 6.009622164811361 -1.405245174551554 -0.32959177112776783 -0.38364355866684896
Ni 0.33284440151043104 4.979148841684014 13.529953876359356 -0.49643631169056446 0.8423707858424138 -0.10630483130652661
Ni 6.067272664288532 5.687561921909868 10.122154208528269 -0.5254401551220821 0.43735056127200167 -1.9336791221946374
Ni 2.0022070059303583 1.5653487289479178 13.139055863818815 -0.32933517503227155 -0.5535844787667822 -0.20450734522089298
Ni 1.1385589951111676 3.9908690938548066 4.584568275667872 -0.1538887517330769 0.4216092392773449 -0.5205982536487486
Ni 0.11962705160619483 5.440683832767326 6.353957094716159 0.7051906051132693 -0.03131552228382994 -0.9271583119024547
Ni 8.97215368711518 0.19967797930501743 0.5225527664224291 0.14665135344437322 1.0149522288889874 2.5770046143719942
Ni 8.62746557231767 0.09056048967651448 5.900012805122848 -0.1355009932545086 0.8940275907867571 -1.4218311039346931
Ni 6.943957080833548 8.203865597328727 0.8008957463210911 -0.2844000050824779 0.00017406368401905506 0.6954746633770861
Ni 2.846596269851043 6.851833147037716 10.41094018152432 -0.19704857495000258 0.9944507665015262 0.34923448505935983
Ni 0.09742725459323105 3.037538008184194 11.31321201143545 -1.2732285403012202 -0.7894883360210855 0.39033614019567614
P 1.794632293199506 8.422109822263552 13.55864229006621 -0.36438111089281117 -0.12997440700932453 -1.7164111348739663
P -0.06141256578202045 2.479274735750823 0.10810693704280604 0.10712295633244776 0.7974530993941169 0.08284891427643151
P 3.308538070758423 3.243642658141708 3.99401909628799 -0.08042847776039697 0.5528352593055834 -0.041933921229624554
P 0.9441501275956166 6.163584890136703 8.24900299644467 0.49638566095828707 2.0187749235237167 0.3315897753944031
P 0.7684831735884489 1.278788190603076 9.80485641427172 -0.3734717603401697 -0.9242277685192211 0.0977829098784445
P 7.865945318695262 6.311053451361463 0.47717313054760974 -0.6950252345444934 -1.206838028691128 0.05292435880285724
P 1.1428859723308031 5.446610312249775 11.644394040073893 -0.558947028630276 0.737363333191072 -2.397252878829226
P 4.776335653030325 7.512233422345691 8.87956654486058 -1.861443464657678 -0.6229243028131853 1.4905278950804588
Ni 6.582173707747349 3.8351348966592034 7.425134514444885 0.21939171853189313 -1.1438341741650817 0.1986737692582514
Ni 4.407229703110897 0.8746161584167416 13.26001799130218 0.9697159827590074 1.3491375329247088 0.45939288578402176
Ni 3.2473964033365204 6.437941133759495 7.4557312360537304 -0.9108539183154765 -1.4532132177904005 1.8586155082905798
Ni 4.726695608816173 8.896487059838474 11.413213262733695 0.6235326258211454 -0.7579444997765334 -0.9025898785344714
Ni 7.481130962160105 4.089113666367302 13.538479315876934 0.31456907246669047 0.724220625161527 -0.4597705808384146
Ni 4.252373845308168 8.693498203306211 4.645218997597547 1.0458658877487086 -1.4513681941618617 -0.21664937990006558
Ni 3.8279047766041714 2.6492380311109973 1.9256148863038984 -0.9383459530881583 1.3463753967985395 0.012266733182495004
Ni 1.9105730930589728 8.281233429324264 4.235822232875281 -1.518662705643462 1.2986472374846407 1.0154618215355544
Ni 0.7976024358817017 1.5478004324460624 4.620901940363864 -0.3463484217608164 -0.5092992836961616 0.06982190588914428
Ni 3.0375749908954726 1.014186137080103 3.5340133403160627 0.26577879043686486 1.502764803466283 1.5784130862292172
Ni 1.1565973125374691 7.783418398476314 6.65398766107657 0.8097229179004054 0.09331484680476186 0.16285984488343563
Ni 2.5228773523486896 2.5884199624127855 5.873489729161377 0.903432943261057 -0.5967214191655723 -0.29113063893809216
Ni 0.10669419747195065 4.306664465465648 2.3873126013168373 1.0484526746392784 -1.8786423450344678 -0.42390034930436676
Ni 4.241242049213208 4.477108536072447 0.31857924520236314 -0.3536318427961071 0.35829916636478937 -0.029517292732826585
Ni 5.997412322682621 2.709972888708831 0.8003114194828839 -1.182434403035783 -1.3871132408375337 0.4203920790407922
Ni 7.543613252865869 2.4257699982080214 5.370965874599838 0.08095169725371865 -0.009927800636673223 1.0335492751648845
Ni 7.3649775117107845 1.1816623451067685 9.974154945396654 0.33551559281137056 0.8977469486198733 0.2219993313580693
Ni 5.407602797528317 3.003301263217718 9.640956434425727 -0.1489332075000145 0.392669159204227 -0.8909255548226657
Ni 8.732320804471275 0.1229749115447206 8.157783289939607 0.650452333030125 0.8768533930003157 2.047457121949758
Ni 2.209042064435632 0.012417869879684998 11.090935746403439 1.7129907963385078 1.3417229856281925 1.3146042750345295
Ni 0.39084346304140566 7.184760759648524 1.5098580198094371 0.32944881779200036 1.048602569953581 -0.7419278126333029
Ni 2.9331265685659353 0.28129882309763093 1.4452298072817131 -0.7162530335750181 -0.8468103096710061 0.0393119102257452
Ni 8.173382597557064 1.559117142097417 3.0248178046398038 -0.21930687212757066 0.09190151139700302 -0.3586174689361566
Ni 8.659825444686739 2.663883184777456 8.499398141429838 0.11554563317850422 0.42824165699219796 -0.16709728000355092
P 6.894381756364133 0.4056605863153116 12.780620350671143 -0.17487563839738915 0.9755297612273071 -1.2084346837542865
P 6.747375479030359 0.9606536625038421 7.668710972038 -0.4813873877772419 0.7843196473359524 -0.4938945191053172
P 7.652111282080449 7.436307916090033 10.444648073719508 1.9618908087421632 -0.9563315910323015 1.8975844333546092
P 3.81786397049194 2.086499850612875 11.38288836405275 0.38170983197924585 -0.20320199614590811 -0.08107690997767326
P 2.025949906571436 5.648471196088032 1.8145169724864085 0.2520537275412885 -0.45256275023606574 0.18861792768414612
P 8.760834474867334 7.340448728455029 5.083465975388512 -0.09826627727276625 -1.0193956093723218 0.20894918304233046
P 4.20988071004867 6.77274561896771 12.114860355931068 0.1694516391683404 -0.32722275667495904 0.0020864502153835037
P 0.5730175250981023 9.265556027046625 2.551942989710588 0.40442655685047124 -0.07540659906577335 1.5373412558895718
Ni 5.888119165175542 2.590028710353419 3.3377451669909632 -0.5523842878110938 0.6963023014847041 0.3693636517090671
Ni 6.220270140849494 2.309847689704194 11.69699270119036 0.047092325502112446 -0.510217681745373 1.8836608812949818
Ni 7.990438370537983 5.953338176515947 2.9056687545768884 -1.8497652569888015 0.35727149643122347 0.03999839476980853
Ni 2.2701467491462557 3.660160443920734 11.997890512130265 1.4243212173463986 0.0739176732250727 -0.6393315405266151
Ni 2.0093261778515537 3.6845875247204716 0.7609211336996883 0.2613932597746595 0.1563850357923694 0.8301415907660736
Ni 6.299977129333422 6.948783324655449 12.151153339644651 0.34111545549665123 0.6149731662869086 1.3896938570805162
Ni 1.4436941001958552 1.2922314061529696 7.485393219635003 -0.4800753538340377 0.3259284633435677 0.2667876913173534
Ni 6.349006958811472 0.457581539247593 4.340762525264827 0.8952817749088323 0.2590440428161926 -2.385712996510427
Ni 2.4199544668594086 8.716205588031478 8.773691514443456 0.5937762204943192 -0.5169022928544 -0.6704606578312517
Ni 4.36329424211152 8.230308235893167 6.950230273234237 1.0651674162907978 1.7859651318137049 -0.10667686993396468
Ni 4.735876566891168 0.641692570807524 9.085550076438656 0.22636249342277145 0.027624960806120168 -0.04099058347974876
Ni 1.0073813182047788 6.305820397715494 3.629589610209783 -0.015075406275883713 -1.037403358803652 0.8683281291381238
Ni 4.93859729876666 1.4007664180788293 5.758603861141142 -0.4527481267739944 0.09830381537892104 1.5451175574008809
Ni 4.623384404858463 4.999554052632168 3.577409778298549 0.33504816625664874 0.24909310225106776 -0.6136469912763174
Ni 4.794161319866773 4.303668865852053 11.618182543454946 0.74060240895366 -0.056577125064096116 1.6318349534937833
Ni 2.49783081113503 2.712580169853996 9.62408214783693 -0.5132279293266064 -1.4651796461236575 0.7314297413154565
Ni 8.854372997369586 7.61386191294021 12.47489259763821 -0.009841925791086276 -1.206296040144729 0.23716266936206898
Ni 5.834688393055298 6.052313157576202 7.070542429566875 -0.2416700703141193 0.559752812361023 0.9975263201030563
Ni 3.4852784479604617 7.451008543823411 2.8272099325986244 -0.5386360849870659 -1.6365449573749427 -0.8172199976083991
Ni 6.656037427849205 8.443938867595945 9.104278121430308 -1.2930666580730699 -0.21768527736374765 -1.8671903944437842
Ni 8.174288673983398 5.3752706621927056 8.471996726075492 -1.019396123592954 -0.36647347464546565 0.9356524654163951
Ni 0.6161162522547933 7.97350028877223 10.27221063497477 -1.8011487815326785 -1.1609505221303942 -1.3477817902277627
Ni 7.904056002668206 8.298439635746789 3.281735775326795 0.9025338284855553 0.47806577960317664 -0.16555821765120518
Ni 7.360419392545656 5.322866160310452 5.28747370561651 -1.3103516704057627 0.07602829181017227 -0.5915082503957491
P 2.7676751639817923 0.11579009531100515 6.152154458648165 -0.9884264146843171 1.2041093169060553 -0.21443720274009523
P 7.508599870962534 3.8405806008950267 10.086903212704966 -0.8906373341582856 -0.8308530150108014 -0.33543280328957714
P 5.848362750550685 4.870225511289726 1.5836070935063289 0.6024498370089173 -0.05504731868313101 0.9602766917229784
P 7.6752809506967035 3.7379628227737975 3.7119048044066587 0.7605042900839095 0.9207598645752788 -0.49686568591849906
P 4.985944414881519 0.9062520942125261 2.0362255529002886 1.245201973181307 -1.3903080936257475 0.18512971202522954
P 4.474103690781034 4.4593753260141975 7.914505467740069 -0.2768957262856328 -0.17856440010288602 0.2427674171433561
P 5.04747440077185 6.641290571726729 5.160814391460626 -0.41421217548232536 -0.09511153369386846 -1.261919285935988
P 0.3377307422381606 3.0800958631884305 6.518235222784977 0.0638183800075417 -0.15455106790742415 -0.71213001254558
