# total energy = -340888.39906355017 ev
CRYSTAL
PRIMVEC
9.06831696949688 0.00000000000000 0.00000000000000

0.00000000000000 9.06831696949688 0.00000000000000

0.00000000000000 0.00000000000000 13.27239852439107

PRIMCOORD
 96 1
Ni 6.496487652397418 2.1667473118329155 11.260567715508856 1.5598150115120557 1.6759021190163266 -0.12884929226594585
Ni 4.811721371568284 0.7378853001009459 5.967469262827003 -0.27065025959655326 -1.6010164254510297 -1.039353026330855
Ni 3.0663333938010453 1.6858000689294999 4.785349799860625 -0.5584623756843737 0.9399932588835941 0.08116561303673764
Ni 3.648628143806968 4.468014033146735 4.674472398769748 0.44509420977316244 0.42900450330015155 -0.3805332951726414
Ni 3.8343835424726587 2.770914841646573 2.6246165956431695 -0.0636322321386646 -0.38589018860918056 -0.06463959035725643
Ni 5.386707058338289 4.594897919991607 2.5357579742584124 -1.2453894066017648 0.841653448060415 1.1004504078628081
Ni 5.3406762829220105 3.1715621404382586 0.4890325540462748 -0.12878552890754594 -0.3902075850376118 -0.8803873742955032
Ni 5.951064677971202 8.243562337065255 12.257457742176394 -0.7339779616586068 -0.022015585039142728 0.15413917718098613
Ni 1.904355568990123 6.530348746842726 0.3348104129367357 0.14466671891417665 1.1303153137430404 -1.4539750356570895
Ni 0.19122268678595733 0.4077722751992046 0.36513123655412505 1.3735406443594216 -0.3012643849379844 -0.39008880007156044
Ni 8.305825399320605 0.2152201731894438 6.670747146020711 0.6715022117218887 -0.8608369629674013 0.9469727755252206
Ni 8.907907216300194 2.564909891857055 1.2858192914130504 -0.15995629808339548 1.4091311398695214 1.3561170495663355
Ni 7.178316246171874 0.9542589631707976 4.740476141651423 -1.0093307689371522 0.2469128067702973 -1.4951746498238507
Ni 0.72252357166218 7.533621961614191 2.6023593192086323 0.9689868179024667 2.111539811362279 -1.0381137546071155
Ni 7.908614992546803 3.6706732216314304 3.5594847772787768 0.5807219584135225 1.423004041196872 0.2878856496382332
Ni 7.893470903708114 4.160725054471399 12.231377263433838 -0.7270447248738834 -0.33907322825564185 -0.9795741065000096
Ni 8.103601937582425 7.213963799001147 8.631836824592565 1.9019748491128212 2.1084987105431106 0.09568283281630618
Ni 6.969518254848035 1.1053552555242312 0.21038585357273423 -0.0854189889964529 -0.05621331396677416 -0.12169596905061622
Ni 2.3910521246622385 6.842579958103144 9.213075115706447 -0.971718872121649 0.688710090959743 -1.4853910880745256
Ni 0.08475248759663855 5.159092309924462 0.7889653142390097 -0.18387784189599946 -1.976118265195455 1.7111344598560594
Ni 6.534710607160936 1.9241607725971273 6.964345687019538 1.759668660011021 1.413437480554359 0.1322781154418367
Ni 3.612663199894249 4.694477105343489 0.3940111046526715 -0.6544344576063245 -1.2131626853575752 -0.07952987720552755
Ni 6.514034845153624 5.595296478378721 4.683762889198033 -0.9802911871716924 -0.5894521391976688 -1.6058336443340149
Ni 5.366394028997773 2.886508674237452 9.064025542425403 -1.2084184858043705e-05 1.656375876057941 1.4633824450139183
P 0.26969445825704147 5.901887196670478 12.053938417986089 1.043059785758481 -0.6184827221020639 -0.29973766388081285
P 4.154685555569263 6.404988337198395 12.629044713367804 0.26829332932860245 0.370081246601382 -1.6071621333374513
P 1.997269541589648 8.603928173209361 1.11785955738032 0.8875797782788842 0.5738056909096634 0.6823062443159281
P 6.656888037654142 8.154058051533601 5.709467492084096 -0.03283170181804023 -0.2972416369318365 -0.7638942896020651
P 4.969083870740601 1.4046822521634188 12.562590275147635 -0.4065384609871514 -1.3350964814506103 1.0611840061630178
P 4.4548105640754 6.530366883476066 7.882013085595729 -1.535448409742233 1.079357591748251 -0.6774715419314462
P 5.045584190167655 0.8831116710739703 3.473148054759911 0.4884602354636233 1.6680646252497788 0.7156503669940126
P 0.40048225542829324 5.768845922806762 3.4205889981729904 -0.29111264121596314 -2.6646424653966365 0.4363360039645582
Ni 0.9218850726593488 0.19598990085930987 4.857565339661163 -0.2358776320020583 -0.07711355445455106 -0.637355904857483
Ni 2.246176697544338 6.710799180256541 4.676064795176978 0.3185871924871481 0.14275664637565738 -0.3883898151025827
Ni 6.2078794060620215 6.009555320491886 8.894802591880559 -0.6340492090817531 -1.6614144669231128 0.9906663597584293
Ni 0.07123616160019196 2.6551577793556373 9.951657769359304 -0.41760397477269373 -0.28997621361867476 0.6504417915071636
Ni 2.743592003520244 5.498782384061257 6.844575894602183 -0.5792782839884604 0.20375169800179102 0.06484347883794638
Ni 0.8924837763522847 -0.052800273810338964 9.18780443764251 -0.647529245846059 0.7550206412615191 -0.37865073343794786
Ni 1.519668507537416 1.2672609813481543 11.567147551820607 0.2309071753706604 -0.048614161463277565 -0.06641442286949206
Ni 4.26546411200844 7.190857728126309 1.4495450283926172 0.41008864023225505 -0.38911512330438147 -0.4561633231031305
Ni 5.832287866229198 8.24522183901584 7.747815601356605 0.35408101451838375 0.550875050255419 0.7474052908081064
Ni 5.492280401008957 2.9942946861755693 5.062013259478464 -0.3170684418497765 -0.40860331393598015 -1.3956328482727705
Ni 1.3014576035102476 7.91600567063275 7.035645326836419 -0.43471183809757385 -0.6451741153503211 -0.4328231057152933
Ni 5.259442302193284 4.503153760242496 7.028809629730669 0.48175197020551225 1.0324935802068607 -0.21830645588751435
Ni 1.0900570053021545 7.852663478693683 11.38854070718578 -0.928654179721691 -0.4189427481887753 0.6247143048340724
Ni 4.8551858133669885 0.7135132922189936 10.519649970313504 -0.3941773683186373 -1.4252105619298874 -1.0957370615475386
Ni 8.413656752842073 7.168277619618324 4.801104186411197 0.5000350847854163 1.0644526496119604 -0.580537096096226
Ni 7.230821799690442 6.298127293560604 6.726344995523705 0.3278102537473129 -0.5965810369329662 0.39089124136819775
Ni 2.620281033443303 5.710808696119571 2.3069416738858273 -1.5307744013053313 -1.78653128872982 1.8979202194274731
Ni 2.323719873388427 5.66070624651852 11.130047433679364 1.066395118050312 -0.8981575537947307 1.610984335297019
Ni 1.583355295509938 3.3987234730185913 3.6674421804019546 -1.0262848802929874 0.8971607370991002 -0.5276762435414526
Ni 1.6368039539621728 1.2753136465510022 2.595841920017994 0.21726438777624518 -0.4000975904578142 -1.273254508443149
Ni 1.123174497780533 3.6702560790646164 8.030703553536645 1.8086448327994078 0.3296696755535548 -1.5093519697654973
Ni 3.6663929761632503 2.8503532956746658 7.194542185189278 -1.1074700337137506 0.471056438164879 -0.74075847491555
Ni 4.686306552023932 7.107438283080142 5.658010235972566 -0.13535829702905722 -0.2953729591542139 -0.18400896815722506
Ni 8.456631505540605 7.330963220675856 0.17643770328739547 -0.09470889893881108 0.28634787283746815 -0.4150806941302077
P 0.48595386053685274 6.017499165894695 7.508607010080345 0.020627960662996735 -0.5648361404212014 1.3676523038994444
P 8.693432458741013 2.0426655348390352 7.798436758671174 0.577743849621805 -1.1226991919586793 0.7837522048682567
P 2.2851795275414646 3.7487423598423724 9.933115782264416 -1.0810542627243833 -0.21291536677893008 1.2231665906478226
P 4.285577638382219 6.3534168202968235 3.4872692374782384 0.23340371654026898 -0.3850319543739434 1.2412324470105978
P 6.896273461105466 4.059830963202385 10.051133575901149 0.6272504409923649 1.1265789866290596 1.24639522215846
P 6.575508963858697 8.056374144365723 10.20379324604847 0.41317344980516585 1.0959484062273963 -1.3483949983317294
P 2.9010905274426086 8.524172328097823 5.6768034154392115 -0.5549088540051604 1.388503436316841 0.2105062431168052
P 7.037503424922077 3.9800297765074983 1.4851943948852242 2.4877374552740448 1.5497450288705634 -1.5555135559232243
Ni 2.9705356965005008 1.6910778292313664 0.4755198553764962 -0.42556616704256384 0.20976833650951615 -0.49188237377129485
Ni 1.7278770582777132 1.2690020981487702 7.014303043553872 -0.6867735360586624 0.8349145866746845 -0.006171161807718404
Ni 7.299550571731413 0.9097879382217375 9.072081834954918 -0.5600742002561838 -0.4588863784612484 0.04813670760622678
Ni 2.9236434310005843 1.7060314834199877 9.378581870079977 -0.4389824404484698 0.48624111632511746 -0.6498553228760743
Ni 6.616597506689895 2.091171960706189 2.375971514040239 -0.8793604756928854 -1.1989917931738319 1.1002781439510019
Ni 4.5455934822575035 7.231075712557199 10.349617219090039 -0.6404916222729874 -0.0269526173294439 0.5107522140926042
Ni 7.685951545034728 6.295950897559834 10.713811698532167 -1.0567195426337608 -0.03165593634238419 2.5505052825298846
Ni 7.894459350225131 4.18076603431182 8.012400970001838 -0.6715574904398564 0.08656312990322511 0.7378240748775745
Ni 3.263669032854164 8.407771415323325 12.652165293549315 0.7680108828735999 0.6452877581100499 -0.9387331612242479
Ni 0.3356165862886875 5.24461560443804 9.762592435109111 0.8341699951991763 -0.6829472203340368 -0.6374199253261991
Ni 8.848799928245958 2.863257510295896 5.633801457790672 0.6236652947442678 -1.848527013706326 0.592316091009025
Ni 3.6848016590030936 2.7338798363668095 11.550065563709566 -0.9706379803526444 0.9661318649521747 -0.3986606009009715
Ni 1.357454458946717 3.6415911300711463 12.452907171362181 0.4408953412004665 0.17493297399788582 -0.19861977609186438
Ni 3.3563744341702817 8.711723253464148 8.019023561665849 0.6507112431184664 -0.17275242140679928 -0.14399797498192618
Ni 6.0544706929577705 7.702165695240462 3.267730731890601 -0.9720824261086548 0.8694745840377414 0.9523376393815598
Ni 3.192473678678987 8.82425199502061 3.4271453911253094 0.45381179215181844 -1.749051032396175 -0.7531288235554449
Ni 3.829377831670888 4.899629633366039 9.006715594735136 0.4858132847590795 -1.3771553582938734 1.1148588699786544
Ni 4.915154591504862 4.768937053519821 11.396715794663669 0.9398798732341813 0.09759059136198031 -0.7566409504737613
Ni 7.921618958651402 8.954581842200032 2.288519388570979 0.2814645766032378 0.7136852728478419 0.7232076105159803
Ni 4.816455032869958 0.3797538971842962 1.334221431638501 0.3932283741418066 0.5774749122311346 -0.06795297100120555
Ni 6.3179778387509575 5.841619164082497 -0.02496960995049692 -0.47704402320688166 -0.11222428211475512 0.47186787832258087
Ni 8.214788568271745 0.3049792784195196 11.165178999290122 0.008102831612792495 -0.3452667586608634 0.7207231535312297
Ni 0.5902603593687398 5.143621761685658 5.519950555663742 -0.9279224437619891 0.007144324354265115 0.0979034946167088
Ni 7.518414394558813 6.146196716073542 2.238097734223148 0.19118054620499977 -0.6583021680918468 0.666764182816271
P 8.843721670910828 1.6321791124605374 3.4798504476106147 -0.7922314459838614 0.3344843233333788 0.5674288408490421
P 1.897699424554436 3.4486536246029154 1.3846031853929845 0.871421166241151 0.4221476282793182 0.26289375557958594
P 4.838735886927838 1.2554358964106391 8.041215546220362 -0.5844968520749224 -1.9824634906871923 0.7961688333650547
P 8.756638625930032 2.1503971368771335 12.481933946190779 -0.8416292796906989 -0.6663643762746911 -2.26528818086275
P 6.5282993072753355 7.882235259354141 1.023739498663702 -0.1793169619981944 -0.24355314626944508 0.9694868974673366
P 1.9702912994967738 3.5420300813526038 5.800196907197849 1.6636271583037157 -1.4242895927775148 0.9899392517844177
P 7.117177655183586 4.025588999456943 6.051005689158212 -0.6482728088803029 0.7080005637582387 -1.7798659608945027
P 2.692038623252013 8.825449012821032 10.368755901421808 1.136734072785191 -0.5375055709270484 -0.3649781210468617
