# total energy = -340864.24594915775 ev
CRYSTAL
PRIMVEC
9.30715964844869 0.00000000000000 0.00000000000000
0.00000000000000 9.30715964844869 0.00000000000000
0.00000000000000 0.00000000000000 13.62196892762196
PRIMCOORD
 96 1
Ni 2.8396330523693507 5.347195952214346 2.4563409461910863 -2.5495922837973124 0.7962076570227901 -0.6810425471121561
Ni 0.9867729975921354 1.1032521017946724 11.31655971117759 1.4985129701684643 -1.112254856696904 0.6839823464667705
Ni 6.1748258253351125 9.08159142094161 9.002460087361841 -0.6358075865337567 0.8842314306319417 1.2248177530980002
Ni 6.893022114179936 3.3443975539530815 11.3372653494612 -0.01512168613278686 -1.3541355003599322 1.8430888734098905
Ni 8.632883942499062 2.870849266152436 6.197341706189031 0.28785762461377523 -1.3194132663873988 1.2775479936121805
Ni 1.1805201419935907 1.8577928494418057 0.21638774119594908 0.6931701836136256 1.9313980394699446 -1.0414970692570515
Ni 2.3148767716544136 2.4971574952506335 5.527658987512463 -0.7611375527925344 -0.9106518296069994 -0.5907975974819696
Ni 1.2430363339974613 0.5395937547796342 2.103191007561391 0.25305697199482224 -1.2367304453751862 1.6627218728806268
Ni 8.738538819918734 5.494425912212742 7.9397146062072235 0.162042748298779 -0.4535148297366899 -1.1932512911456288
Ni 4.71982823531619 8.167767941426941 12.44794642616394 0.7383843182564187 -0.05221010634465202 1.426423865511698
Ni 3.1946825823029013 5.430495031927706 9.675425441280298 0.6582589735587373 0.6807666677429501 0.10631794393264916
Ni 7.082069142910414 7.854693701941129 0.09188307314572158 0.5154326502874091 -0.09234014159631838 0.7297950339255109
Ni 5.108355618850742 5.271305371657615 7.759345573222527 -0.07905396601037352 -1.131973932392386 1.012947796864449
Ni 2.1899839950428404 8.170271567398213 11.724442264116822 0.5276631309153299 -1.0678580757490834 0.12209886091598973
Ni 1.7941318767893604 5.373488678492586 12.007929042774839 0.27477559461883644 1.0048886740053984 -0.2376547785071391
Ni 4.658875646149398 6.293296661722974 3.6488487099356055 0.8252904333213593 0.10155600376763156 0.24132837070398436
Ni 5.1464591308447645 7.319950838820334 9.947796679055447 -1.9638019097219468 1.1762203038052712 0.8951550195229809
Ni 6.996294358705014 8.706661797793789 11.60569965866442 -0.3739427864393172 1.0709215451657557 -1.5067986072160244
Ni 2.3286420609165437 8.983009984927767 0.19223845380687019 0.5680140239285508 1.5223411829363136 0.7138670498413447
Ni 0.3740044914692182 0.6942815418813062 6.359170876962664 -0.05292487302348949 0.4946802482314061 -0.023647978436243146
Ni 4.271930479771414 3.6600219552088893 10.301382192761183 1.4872844484424965 -2.2720766645394934 -0.1458507119199488
Ni 3.5553629438818795 9.206605190629864 2.521168105959519 0.7187485463033622 0.05644599880287053 0.2515179096424765
Ni 3.612387911636489 0.6606352286889298 11.468117500457183 0.9059233137830784 1.4694173383540887 0.10353549609150556
Ni 0.3462291346436784 7.464956387639791 0.6954067774944175 0.49386726541180753 -1.0858552836574524 0.6940615850796433
P 2.3134620833732487 4.072012688459349 0.30579697128158 -0.669801169870382 -1.2690458696784401 0.17482961565080213
P 4.630581880526089 1.5669254931063934 3.5451036616955065 0.18811476279548248 0.786002434355014 0.570877718629591
P 6.881341628700577 3.5267061990285344 7.1782055880593765 -1.6253190067521366 0.058906287417905 -0.2551045985524703
P 2.318292499280649 7.469116688045588 2.121866754304724 -1.0852780709977439 -0.09625310349747938 -0.4340078700520139
P 7.2759186660690585 6.390603016851823 6.729048573801167 -0.17494171574863418 0.43919044269421775 -2.4813369510643395
P 8.281222218712513 5.695711856007251 12.314151351256742 0.8556281650729523 0.10907262385965087 0.9171320380147044
P 1.245297973815377 2.4529298721447237 7.658025970811847 -0.3793940393618756 -1.4416923616349944 -0.3651598980403647
P 3.82121265482405 0.27375148956525924 7.921923970355594 0.4423670406499865 0.053205123268069664 0.08699507523432114
Ni 0.37622797193218155 4.833980549582601 0.787157688971767 1.1108806020571966 0.8662969576407081 -0.061032075511656174
Ni 0.42385363906081136 6.653493050995239 5.7649534016425035 -0.5608396176672986 -1.435936947208456 1.3612199180105395
Ni 2.6463419587953765 7.273349889979574 4.472882296531093 -1.1472110610571145 0.207008771486508 -1.5824065236593265
Ni 5.324095581728473 6.62346815365945 1.383229150513034 -0.527691413050104 0.7880919698941911 -0.20716843699282383
Ni 7.778831042863632 3.9338013662533817 0.02844640304311897 -2.4381933257973296 -0.5309348596880663 -0.08374031574244933
Ni 2.7669162132854983 8.613041077923768 9.609454431579264 1.036651311128976 0.9626819587303614 -1.618529751744445
Ni 2.369910007223699 8.336180997003842 6.552943150695429 0.0806508781838482 -0.029135998134007884 1.2185787141668238
Ni 3.1202439186663136 3.6474107537550786 7.308254531169409 1.556618873172261 0.5464671509957104 1.9978186329870238
Ni 1.2268977190004815 4.412366213156318 6.470952657642147 -1.6789576180131986 1.6722989750461006 -2.5848014847085934
Ni 6.434439739248462 8.293172611824463 5.483905098837549 0.7360111900385519 -1.8388372972223879 0.05779505663159724
Ni 3.524193265897517 1.9824715613792554 1.1653876309649924 0.336498268439614 0.16906108859814112 -0.2078289533949582
Ni 7.897785851558208 8.857372635536631 7.352920521499284 0.5062964923140958 -0.08350531691350781 0.02407503867133273
Ni 5.8155508448775555 5.0713224302273385 5.477461752146425 0.3507187829143702 -0.1459620406868325 0.21706718416377455
Ni 4.350250229021461 0.10562602522446436 5.315619551349148 -1.5338700095115196 -0.10266646322299094 -0.7595103016017565
Ni 8.194935540721165 4.585767906356275 4.886731669582532 1.318825769315045 2.590386692105855 -0.8059421107017345
Ni 4.337536648810461 3.812640760699357 2.813100201369703 1.8622657034486576 -2.0366726297397437 0.2798164994768536
Ni 7.551112765394717 6.191346033881618 1.8135475427323817 0.23736990027686858 0.06461002267090163 0.12811909896814067
Ni 2.7552729564451166 1.7097997023443594 9.504115997590906 -0.7817603712492085 1.0252600385728987 -0.4988202385417087
Ni 5.988589558847476 8.401219429298473 3.2061350423685204 0.16777682256907878 -0.10122304590824503 -1.0071198773287622
Ni 0.019149481174328385 7.934595668347744 11.731648797906997 -1.0727262024746622 -1.8140796306617337 -0.2991774205019686
Ni 5.023148571389757 7.541228561746048 7.456447782201361 0.4998376240626295 2.339332095253042 1.544017896578799
Ni 8.206429883005633 0.17193860768812042 2.6511760975666747 -1.172346936892794 -1.1125901285491353 -0.3828400889289471
Ni 8.806555543331609 5.228436593874403 10.261960786947341 -0.15761145200030277 0.25751937864155006 0.6347796594898746
Ni 6.207866242428121 1.9613536159189633 1.9821188200249384 0.15484031701306883 -0.4574630157511605 0.026144262495535617
P 5.708471972016973 1.2597333785791114 10.646331592939994 -0.5114597816825901 0.3925028088296918 0.6183577664884253
P 4.21450530414779 6.89076047436202 5.784133596443989 -0.06306504678128494 -1.4743618268435577 -2.344844026210207
P 8.343757025035872 1.6335182210783592 12.019331244177836 -0.4404950204382543 1.1279660967845735 -0.3545456128596281
P 3.6656434796945727 6.54966237688549 11.68714568287265 -0.17873177891868575 -0.5421435839196921 -0.8872702174582655
P 7.3184337717819785 0.9150445788731493 5.375514847168965 1.8642814483271055 0.5548227220492574 -0.5672758602109456
P 8.95076067641304 1.937638972889953 1.6784578419047234 -1.084654578481132 0.6549561344377495 0.34218374886016556
P 5.6074799816293 5.434562260736056 10.2837283721578 0.719022111679723 -2.6322907885388083 -0.2107222157823532
P 5.502364919474808 3.4071743464297986 0.5086725779604502 1.1488329129312538 -1.2948129513402153 -0.5528113480461835
Ni 8.951998528659061 0.1161496307475813 13.410310466610124 -0.7891972871432279 1.514618103260443 0.7155140985264645
Ni 9.265547433291841 2.638328494255354 9.984304013153285 -1.0912653989294303 0.6354972543821894 -0.5553235729450758
Ni 1.106863279775542 4.284504452586246 8.69542061025437 1.4973886267560341 0.03378789508372245 2.8501334174160267
Ni 4.723765163888118 2.465662066675213 5.885998598415696 -0.6667464422044582 2.1888138026540953 -2.2344362284789
Ni 0.6499273414028716 0.5591276216514109 8.793048993110377 -0.8775223940428821 -0.6886771808392785 0.3954896593721576
Ni 6.670804368120026 2.9321741417090097 4.371752560179202 -0.9804318265146147 -1.5519772606351918 -0.1641040017031819
Ni 5.866972902465971 0.97615352832365 6.9446573057265 1.7860330089371628 -2.6583463479752796 -0.47630123150358616
Ni 1.4822489537508456 6.814116013865984 9.731943168828831 -2.736152043400849 -0.06968615164222838 -0.06401764050254136
Ni 0.3209899788485174 6.021173925113004 2.9337088923508787 1.014943230027923 0.6850830357301169 -0.32112795663113086
Ni 5.704814258237381 1.0222053547394832 13.040147970683439 0.19796028813099456 0.857331263806988 0.32389806317710024
Ni 9.028717446433053 2.0428936424406112 3.920743421131835 0.2440496262898894 -0.0723521285101657 0.5141234445576822
Ni 4.050215320337707 2.9642745356678226 12.532047783047277 -0.596828634167398 -0.37372809932534995 0.19956722760679826
Ni 3.243405563565408 4.787751887131622 5.058763348868097 -0.04187607140849562 0.031275670184830004 -0.2171268337571164
Ni 6.142492752382687 6.0098471117039365 12.32113916679292 -0.44478027807716947 -0.2111960700949782 0.3327020346219754
Ni 7.999392114489019 3.855677067357969 2.4917304904036097 1.5364866211987602 -0.5874505353866077 -0.6782426157695158
Ni 2.8787231232962913 6.730612176638244 0.08590229229389974 -1.3044054801246567 0.40551721881148867 1.1168522462595991
Ni 7.210470718745668 1.7573313671595696 8.799656145813005 1.1975815430898664 0.5735565510133348 -0.16900709543175407
Ni 6.765411646922965 3.967828342279309 9.268224172434364 0.48211141042746003 1.6267613956256177 -1.6742643263025876
Ni 7.17124104042256 7.016258216356987 8.689971268223958 -0.9307087482578744 -1.2598243510801723 1.7962274329716612
Ni 4.168360406134512 4.987995429034745 0.31492077997912277 1.4579954696703923 -0.6622009889256208 -0.6389001094161513
Ni 1.9859803606029354 2.682276902568928 3.0734298358674055 0.2490272820101389 0.2780293256694437 0.05892222825750498
Ni 0.4630256129935031 8.277638962210876 4.346770281992989 1.1099673462143076 2.175820989938853 -1.139861562670579
Ni 4.811485144480121 2.3322253174181795 8.196692732480928 -0.3716714739066373 1.0280463430687845 2.236784931216735
Ni 0.2908692177673612 3.6716838263687595 12.101389679497256 -1.176459930619903 -1.0431487459278614 0.768374693970922
P 5.3992974324641105 8.825188477140118 1.0881158679021765 -0.2373552449888493 0.4782506419204731 -0.2275336309127372
P 2.3024330990760045 6.03899713602374 7.768744873848507 -0.7878461724319722 0.21931124300294488 -0.7091896989703335
P 2.0638068303865245 3.4634175127658695 10.91680975442311 0.7676108192217037 -0.9385940645432224 -1.27413176884178
P 6.271973958748303 4.8355534595794225 3.143473658672635 -0.7401648071956092 0.9988656077397701 1.1519881707307837
P 8.320759033307189 8.36018416198493 9.868203710352349 1.0170314800155194 0.8424579462395814 -1.0194305763753153
P 1.752882544801694 0.5979207941825011 4.747569155650676 1.1340025327866405 0.04056789412003336 -1.3425074292027008
P 8.110044936691493 7.222011596828859 3.8192320912304183 -2.785260885112358 0.5722602007994144 -0.26788220993311285
P 1.1346730730921366 4.481946539406271 4.066171515003695 0.8004417497087957 -1.3947627869629915 1.4963316462464296
