# total energy = -381164.56233183574 ev
CRYSTAL
PRIMVEC
9.24315410370631 0.00000000000000 0.00000000000000

0.00000000000000 9.24315410370631 0.00000000000000

0.00000000000000 0.00000000000000 13.52829034311168

PRIMCOORD
 96 1
Ni 4.188729420016974 0.46628847428157205 6.0724029008455425 -1.4207620392402305 -1.1750597078382665 -0.6831035434062429
Ni 6.682070258353008 3.4629661974579116 5.322759989478913 0.8522106547509709 1.737044494853602 -0.6301069366045535
Ni 5.538424035604243 4.512239816093938 0.49242534133833865 0.39070123684457875 -0.5383964581724341 0.8686546592396073
Ni 4.946936113725469 5.183912100428931 4.963151379092263 0.9796129301577451 0.25429547238761363 -0.8878183766522517
Ni 1.3009277341672107 4.039286103337763 9.710228316013888 -1.330980659510024 -1.1071802703874738 0.1592425598458225
Ni 0.4731210138467175 7.106589843239374 3.7624074200667503 0.17753030241141682 -0.0749761963965741 0.6977567745430435
Ni 5.824166903727766 1.862246000823265 6.502562658408657 0.5886620391962055 -0.0044978878703535435 1.124264222452954
Ni 2.0800147131539304 8.512325702581347 5.352914855654955 0.4938585236610591 0.591330330056988 -0.6024858324531753
Ni 4.224287834122919 3.8321285319984226 12.309607543345194 -0.8229399308113117 -2.735571488307031 -1.6627331857345367
Ni 5.403473984669281 7.630880034275877 10.190509077083496 1.7983861311858769 0.7800598436183339 1.0048169402271983
Ni 3.7542087423147423 5.7236476020895655 1.7979367556602512 -0.49789875516870374 -0.31861804572508357 0.7044537269472448
Ni 4.781169386775632 0.5380162749843392 8.977698180284314 -2.549645505632751 -0.9630205730167029 -0.20238104290650955
Ni 2.0280127277731013 4.751924046970274 12.948034975063901 -0.016770277479803378 -0.5977089798898222 1.0812398963726282
Ni 7.239293807710144 4.336425780557368 7.584108749841904 0.3893966591005423 -0.9140333444847225 0.30409928328361824
Ni 0.4890386496491215 1.6673540950723278 1.7718544232131088 -0.2820464172486368 0.511513517738661 1.5820864213157462
Ni -0.05480266109543779 0.0923391101945393 4.333855259381683 -0.599010215199749 0.5844030068095354 -0.23845799113472477
Ni 4.987818584635423 7.184981033785909 0.5522895536592549 1.0873745485154565 1.7257506671073377 0.12363046706916771
Ni 5.625993678245191 0.6962322692897396 2.0210997727666453 -0.4858389957906923 -0.028729763834524715 -0.6603068572267015
Ni 6.13689978203828 1.0249826094677335 4.333016905298135 0.4824042590775305 -0.9211892388032136 -0.10081346917465218
Ni 2.569966586435406 2.062693042232552 0.5971715373801382 -0.07444937735882662 0.9361304334940781 0.40272345811643545
Ni 3.9940963225828985 1.0042964304271549 11.420244189174594 1.6644370557995205 0.3552940609898784 -0.44283729541818573
Ni 8.125924885507022 1.3763518722240116 7.898140291313812 -0.6691100573406283 0.28705389776555723 -0.7927958031277637
Ni 8.782466126459786 8.896212381720447 9.499213576437892 -0.13083495523740693 2.3838247783487785 2.5002553852353975
Ni 2.3442487615154213 0.15171713260592273 12.775373779415956 -0.647305302760711 -0.3498752039671523 0.18247736200404704
P 8.573829650452666 6.808793902073441 5.595396064984232 -0.8591402919912687 1.7331765272577635 -0.885358088037217
Ni 2.8908704130354073 4.623684525965365 3.940804917194849 -0.15722578652610986 -2.0829928529625223 -1.1349245303802777
P 6.106055376560886 5.933762982764467 2.0268351499313813 0.6801719715817447 3.5175784283494065 -0.2841431518766655
Ni 1.312407731650856 7.534464693090767 9.56524574553887 -0.7318061508182687 0.1497551891806776 -2.7231656584435098
P 4.117760482271861 0.46280750241978386 3.713880860655205 -0.9832129888041776 0.7568515238226706 0.4682981586934516
P 4.77175985582688 8.096189658530461 7.503371646766102 -0.36934282577346067 -0.7620502944147908 -0.24857862450849447
P 4.6899394550819276 3.866466849753449 6.754053170110967 0.2571825641274216 -0.12122648561336542 -0.08957080638129734
Ni 8.324338432998111 6.558424584972391 1.880459636122398 -2.666671322901207 1.746459874630231 0.04586410952196617
Ni 8.954351821472564 8.31845054378951 7.439801853936978 1.03552799615781 -1.5054505778285623 -1.972515635445861
Ni 4.792640141105104 7.7754614518597585 3.0670532504235055 -0.5268120957689444 -0.8836794147832137 -0.4071892071972729
Ni 7.121554509846478 0.4318799085548261 12.102733736838983 -0.6147379103476509 1.59441434675348 -0.9222122807510892
Ni 8.608833475308193 2.1100179916015254 5.486831521953307 -1.0301649320736839 -0.316079595573946 -0.6041999869308045
Ni 2.5516374117091027 6.486956516901903 4.750012562687168 -0.034194643603837886 1.1036899978460282 -0.10595953215196591
Ni 3.603221818888536 6.676163882836059 9.235033138370609 -1.024888257055777 0.005531471341190474 -1.3286656382236022
Ni 0.46265961195300587 8.238746825350319 11.630975163917459 -1.0492630863557155 -0.9871614319289644 2.021025153010474
Ni 8.501307862806383 4.904177282518267 10.933888827182077 0.11137530385089851 -0.2727205118620206 -0.0232060058028181
Ni 2.4961507572048167 8.738172931659763 8.128892862312172 1.027633938121714 0.6307389137615975 -1.466754703920261
Ni 0.673747372446973 3.4804634883085885 4.075857567141139 -1.9149195821989473 0.6925240653891944 -2.006474251779493
Ni 0.331851418403246 3.3043074560675945 7.083859078495589 0.40575658851580443 -0.9647272712951642 2.5386396414405508
Ni 7.042617973203698 6.853623199815535 6.996832009004633 -0.4614726511311859 -1.3367923810957947 -0.14257075561709637
Ni 0.44892890642808214 5.101232086345833 5.774686450805502 1.6206007753408609 0.2609677422014667 0.07437147293303965
Ni 5.5331739240336235 5.387899269886718 10.595262176769563 -0.31109911164021903 -1.8616486386899487 0.23457459691991858
Ni 6.068121471832319 4.29721632055284 3.1040794774122222 -0.19282965177264855 -1.0287341131644283 0.6094152125831569
Ni 8.234116005109332 5.237245100010763 3.948678235919944 -1.681533606270491 -0.3388325729997455 0.459689333978518
Ni 8.944637266436082 4.473621917956522 1.8768880813497082 0.3053501249715838 -3.074847576602098 -0.641616994126682
Ni 1.4095070662448133 8.760985036160276 2.462405849947737 -1.0486599055540777 1.1775007131795914 3.0947633416894185
Ni 9.00206498331683 5.805504975451211 13.176162490276951 0.09872650473863642 0.07893363838242536 -0.029514978739981428
Ni 2.169285096162825 2.660327661636789 11.759100994126031 -0.9439944096231871 -0.5554415865801788 -0.13581158251639192
Ni 7.429249869132365 2.0640702722044226 0.9423451138938337 -0.004891780874662543 -0.15182775543899013 -0.6226239979639471
Ni 0.2763157751818396 3.2709119400382782 13.255831084730282 -0.3068192533179426 -0.2660497847100644 0.06561609533791281
Ni 7.134513411997903 8.572415447864099 0.4694524059552047 -0.07839782048361336 -0.7704017517032796 1.444936579603905
Ni 4.581055098916595 2.8293479788557425 4.304364051675307 -0.11341778820222402 -1.0476697737266667 1.9580878900563055
P 3.1954600725189564 4.760455478272532 10.518299977858268 0.8040410370242799 -0.6306959763388041 -0.10905899701289604
Ni 4.092877911236456 3.362613272594837 2.217259839270204 -0.27379034788743173 -0.8696946704683474 -2.1977044202755054
P 7.000284327088483 3.7353342214921947 9.906415187664551 0.17223382989916788 0.05279554653447681 -0.9638386980426239
Ni 3.499522872214609 7.65802717808382 11.25484811270712 -1.8207007355226772 2.8482871082359074 0.9548118119536653
P 1.7789097227938386 6.308286346725683 7.30535832785073 -0.1245241825280307 0.7877695535577659 0.5327361745628632
P 2.199316104072941 6.874448026168718 13.10287999104218 -1.4700403166500682 1.9459317143097454 0.9557386946433089
P 4.804693214147514 9.186170128147143 13.102460351842698 0.5031751730762947 -0.26580141614468417 0.7529269919572839
Ni 2.367023893399239 2.0912636317832347 3.691207403467297 0.903415202649244 -2.4407960535275 -1.3714829904994446
Ni 9.189469934187128 5.5472420046858835 8.168611620111667 1.311562145774096 -0.2690939708530269 -0.10241578066476556
Ni 4.0060015051585305 5.937201436117057 12.497502381386695 1.062866278961447 0.21415258162014086 0.24382002677758655
Ni 6.615380900990284 1.3972044280397151 9.805683293480357 3.063366829656008 -1.7166353350696306 2.8767674750637875
Ni 7.2591018871042285 -0.0075488840136016255 6.060606787489158 0.7947467562065473 -0.28423956824521374 0.373512383770118
Ni 3.416519347735433 2.1307134137962773 7.624977356020597 -0.9224915025544049 -0.14246174084305788 -2.303914892096013
Ni 6.382795412519294 2.8337477202423895 11.81896428213153 0.46014313368648496 0.5905340594079379 -0.448894300245543
Ni 0.24696968499598942 8.198197107990614 0.6815753997166182 0.5130978315066455 -0.9991795394357631 -0.9697740896904524
Ni 3.01618909732145 4.57930814277778 8.215203587354672 -0.36564712208942834 -1.3413308923960965 -0.008068378830431265
Ni 5.369801174014756 5.449994779625148 8.346400917695142 0.575884170705247 -0.12636843482562107 -1.127372686174949
Ni 1.0663087517780223 0.8321925969758793 6.495487023888745 -0.09717998618712295 1.751136197059978 1.2366114032988185
Ni 5.620512487820229 7.7037530617807555 5.349722270203385 -2.8875468250674787 -0.24586276823922815 1.5929243924715146
Ni 7.14523547083931 7.757714595846393 3.8453351506817017 1.9338925237570246 -0.121913484378061 -1.5061332057178836
Ni 8.886978470700994 2.3151697984851887 10.87966756048416 -0.028352068780131814 -0.19272192255019066 -0.04506603910070303
Ni 3.3902872761906777 2.6164596519287526 9.72017117695846 -0.21062425675190824 0.24242751730543413 1.9231067459954299
Ni 2.933194815996448 8.45515679401746 1.1441564448591484 2.9872536914415133 -1.6425345992994744 -0.6896919952570381
Ni 1.8561177896061496 0.42851817338187775 10.61600104178893 -0.26144930982357556 1.4944668251235487 -2.904022711235315
Ni 5.047862114147308 2.084386725078056 0.047565271377487416 -0.27625500737784037 -1.0027873113916792 1.06979025977479
Ni 6.536296473880727 5.99428715629338 12.511409631156337 1.4232159000973619 0.9595783801043731 0.2301978080084616
Ni 1.5734251623599245 6.132472311189113 11.031292261548346 -0.17513711958889194 -2.228771573993955 2.0822996835502394
Ni 6.666809810812348 8.437927554637819 8.582929535736602 0.10854374793937435 2.4803442481337674 -1.789258457852996
Ni 1.3518482705097248 6.153195462846386 1.69732687111115 1.5875926958459563 0.18419125937136022 -0.5213639281701795
Ni 7.727877694173923 6.691868001777053 9.370925066715865 -0.5741317067905144 -1.3310950736007012 1.1544628575235214
Ni 7.5135197057333265 2.626654850982264 3.277620621337497 1.8136510277647475 -0.8816469577342171 -0.19923272708551495
Ni 0.09744872582172061 0.9364331924843814 13.19208567197186 -0.15226201476293133 0.6075750740506246 -1.6330081478662781
P 7.512844955478652 3.925207094526852 13.323742387074757 0.4654195515940759 1.4397264961578753 -0.25872548313450927
Ni 3.771493440619426 5.993039330479941 6.6240324932967996 0.6852951517409229 2.318376833157614 0.7842594835219784
P 0.6935203278551972 1.7260573672290362 8.948829036853821 1.0030778460489047 0.33461005027796564 0.3876539653778227
Ni 5.514364105290291 2.6497719795705064 8.611906824070923 -0.9601851604504367 3.791934161822005 -1.109884042471882
P 7.584377725628356 7.902896818451562 11.125382025143368 -0.4368797922831702 -0.9515544813586322 0.36139451746066154
P 1.9672574753898475 3.910510479390784 2.0736840768604123 -0.7855185527400601 -0.31554917699177265 -0.6698165964893497
P 7.795759418425044 0.1907629887815776 2.4678574622793423 0.3714179631349345 0.6621158854109823 0.03909439489830041
Ni 2.1689800720750956 3.2059325661976765 5.647939699199634 1.4650109817562769 -0.2428484068929366 2.304533242406302
