# total energy = -340864.7864801686 ev
CRYSTAL
PRIMVEC
9.27321158441899 0.00000000000000 0.00000000000000
0.00000000000000 9.27321158441899 0.00000000000000
0.00000000000000 0.00000000000000 13.57228250439118
PRIMCOORD
 96 1
Ni 0.47895766154297864 7.313540758490814 2.126952923683896 1.1465266333955804 1.6009958566257394 -3.9563680360607796
Ni 2.8031341734339903 5.561367457080042 4.486575358979579 0.05809356170862253 -0.8398809295410246 0.176224953336432
Ni 1.8887584326967168 7.460966273949022 13.349683658754817 -0.6314457100206351 0.7442850000115698 -0.21231912795582789
Ni 1.8722150234894301 2.1437253812137276 2.451005297421919 -0.252894478275029 -0.03566557172240954 -2.9720206765418427
Ni 8.852550748551867 2.6534738140189678 1.5505653388352683 0.9488231984703981 1.104347686034685 0.1497014531246067
Ni 3.318975106154694 7.358933128485022 1.4803420905706832 0.02006103241593319 -1.3839698101125455 0.39109641540046836
Ni 7.53988130329544 0.9612610977731709 2.5102481360215108 -1.972237699194126 -2.838140506720209 -1.2898183263391012
Ni 7.290932669002381 9.166263491535336 12.37774538533071 -0.5470718744592449 -2.3511195748062734 -0.13795331144974304
Ni 5.712474437479558 0.4674273504396489 9.552185804673636 1.2465867693439758 0.9393319711505114 0.019703134855882196
Ni 2.96339381352386 7.678682732115321 6.966218187967608 -0.6179875276332002 -1.4064589923539972 -0.5219655663099204
Ni 0.2707666461668846 6.221165724180745 3.8071475579046687 -0.0018082568533323697 -2.1960689415546115 2.5084754591523444
Ni 1.4110489454134358 4.466386650355597 10.501580901089385 -0.843241104262509 -0.09884863213879751 -1.3162441246307979
Ni 6.238450990303156 2.6078588869502215 1.2362581829985555 1.4650649749226639 3.5324070087218065 1.2558540535785145
Ni 4.439383058645047 1.5540975050724068 7.165649727818365 0.13886091086567698 -0.6397030649334209 0.28054103634770394
Ni 0.3088183419859318 0.3371748952454396 1.6550855596072245 1.1352443756135417 -0.2277298060839433 -1.027004017847199
Ni 1.8954165985099634 0.39163924799048266 6.707286014239255 0.07770593662291134 -0.20922891906627836 -0.798872862559779
Ni 9.189789628956236 3.5378692621737535 8.708654617367365 -0.0843111006442548 2.5903800072376355 -0.586279912117274
Ni 8.137734517983208 8.872284142494191 10.137218804546903 -0.20890804539174992 2.9999030047744077 0.22643576986286806
Ni 2.4579110579805885 7.733515231354494 3.757744523963066 -0.23391819428284233 0.43206257340018495 -0.10690492678437072
Ni 2.6664192171878986 2.903767063970691 4.314968090051728 -0.4282668538031786 0.5684822218142209 0.27390887574316697
Ni 0.21640337142652735 3.8089437789604146 3.8875361005487536 1.7195018579841483 -3.203230984975219 -2.03312913536286
Ni 8.79122700130535 2.691837089742368 6.148257881204551 -0.21212809499094434 0.8103865196263335 0.5199325950402917
Ni 1.9846712586109354 4.456130478503994 0.18866441404886108 0.1952634580251218 -0.861130325838104 0.47652697436114705
Ni 5.143711287076126 4.071255110937162 13.039963960617008 0.2925249481824575 0.45938980046022815 0.632807366254852
P 1.9359498057101037 4.4338098585701715 2.4115366548949835 -0.32176404755323296 0.061829631712287066 1.0296985339602265
P 4.944374333982049 8.728734829417512 6.798763463122171 0.58947065114043 -0.0564925357700898 0.8051679515398714
P 4.695370060420355 2.368878954954154 9.38375368334252 -1.4790209228821238 0.07746656691859562 0.2182753455392628
P 7.540233685330124 4.45932973645047 7.331108857562117 0.33832735122855284 -0.3441136188930267 -0.09289318588631099
P 2.9981590832089036 5.358590142542072 7.249987731214346 -0.12758508084154158 0.7451347496063748 0.24757538005496071
P 2.9544544376966044 0.16389195701055076 2.254193439802698 -0.19232957220777844 -0.21542682034687416 0.7320223805941328
P 7.356920841602745 4.359893090189408 0.2930483186126629 -0.5943675742214152 -0.3422377420265525 -0.2826555115875455
P 2.3178021063478003 7.947058744373215 10.692488504985354 1.7010392804035865 -0.023015744168882944 0.5405027058821594
Ni 7.053019156321805 2.875780511847602 3.631074310347766 -2.035677098595694 0.23105192847864078 1.1542425139825991
Ni 4.291104407734445 3.85170255690593 2.021021320130915 -0.9402657958186904 2.360552438084399 0.9923316632759942
Ni 4.222213719953654 4.674125133013464 10.919620054725733 1.0551905075837442 -2.2760161088032156 -0.7745864792085886
Ni 0.31114406341484857 7.488452072654402 11.46243026827466 -1.2043147480486422 -2.2638169956338627 0.2550858294993929
Ni 3.7033404470923768 0.4727724295131243 11.106958399538806 -1.1737278764007204 -1.463119678270835 -0.4621905031338169
Ni 5.375504480206922 1.9413097219218816 11.566353294229941 -1.1829684211623819 1.0422522022555214 1.2798941252468536
Ni 2.793860961994928 0.7176640338015942 8.685608832299009 -0.23594088113982592 0.9775208235154068 2.2721807942175256
Ni 6.8381403008558586 3.9573337084082856 11.20910375086122 0.7988432948734242 0.008301577887159897 0.09860154912499793
Ni 2.7513525607582676 2.658240244698646 11.81647684441233 -0.5593056975212755 0.08800449033544198 -0.13552233341074724
Ni 6.114820535397581 3.0480396875396187 6.432230507781804 0.5000453691980614 0.943000164030718 -1.1503987147564767
Ni 3.898810471016365 2.30861235381169 0.4414141377107921 1.1555566048083323 0.16866179627719338 -0.8900948313912541
Ni 6.028245833402498 0.31567680916626206 4.32019354469764 1.2769622963120393 0.3131565083898801 0.12725855074005826
Ni 8.7523536989528 8.437426165270816 3.9725389932049158 -1.747318108865468 -0.10221857705229491 -1.1718088050011368
Ni 5.159067725219213 8.556030539576419 1.8129851673858532 0.7099283769085708 1.4531276000551296 -0.3964067718697883
Ni 8.829460452068602 1.3705621042704912 8.536463136118854 0.12092438099191433 -2.4802727714658834 -0.36367868550914784
Ni 7.345561157589895 7.227726459833733 1.3068032117000763 1.6298965988204894 1.4269879655452844 0.4842917059082305
Ni 5.183901385453022 6.310642941356255 7.500301382231235 -0.1701635776337005 1.2861614463128044 -1.389354985683859
Ni 6.908088134740705 7.875599377023803 6.196900511808151 0.3476427150922077 0.2599578128797136 -0.4146698318450343
Ni 7.85189704858556 1.8259602448313887 13.213987828445878 0.5169927956856774 1.629201629635994 -0.7716831895188646
Ni 9.170631174123134 0.39390283890275773 5.773417983057073 -2.8049593919825497 -0.49117532040194123 2.6675552681680577
Ni 0.9860112991040275 4.851725678494381 5.590056918630212 1.8994130019229158 -1.6511010008122466 3.1838165850043487
Ni 9.090241704157904 5.544249108763533 13.178591053061835 -0.12082333663767578 0.8246795392102378 -0.42446033557289475
Ni 3.641080105490514 3.5867112668232934 6.161395239850271 0.08443142827220297 1.4266161840281624 1.8530930358104536
Ni 4.911213329875963 7.282011839598003 5.100314512183604 -0.12851247775181737 -1.6154225735740306 -1.4978267427347172
P 7.750448115442222 4.789428244046762 3.854595798874917 -1.9596333801665544 3.208804108187622 0.3255201721615555
P 1.7479818098403161 2.4641890221248337 6.513297849503229 -0.09631378153208574 1.0619735919438484 -0.19485208151931602
P 9.08505797896347 7.96954628211294 13.694432913103682 -0.5246881074474061 0.5218658075072625 -0.7824874792232202
P 3.7794456933727587 5.820952464893705 13.292109998214258 1.4716799091360202 0.5765369737978974 1.1346702482776265
P 4.497062433796014 5.815277259493 3.369563256518209 0.8968339498873006 0.4989966162185729 -1.2908470247139316
P 8.841014873521674 1.7246040438024408 3.8782118864467767 1.259093900672051 -0.9224593637648887 1.0061788535717318
P 1.0347512984277376 2.087297889607035 9.9462703985206 1.34437302165653 -0.21752278364395441 0.4563759533345689
P 8.695777835963083 5.227531845273808 11.055262100408324 -0.06498720350466226 0.8241383219947871 -0.958570250554833
Ni 8.075910017318982 6.921497198481588 9.30316205736792 1.234780520737667 -2.561347624561028 -2.1158006435211627
Ni 4.9511530515440025 4.272047958227173 8.359303995502438 -0.40905120010667617 -0.7186683278847301 0.8578429133360839
Ni 3.9081485949355006 0.008113132688035377 4.970943012076106 -2.2739468849790128 2.3821314498067556 0.19265995896400367
Ni 4.839930153543893 8.475520517862483 12.909873786622983 0.20752787721477162 1.732409824295068 1.6427868245195967
Ni 2.553666239300343 0.6982004903121468 13.629421209667852 -0.4354934534586049 -2.7810213931097136 0.3069784046036262
Ni 6.830740278127488 2.760709231100281 8.812483056565968 0.44753855754859695 -0.001913157862312834 0.13197292549659206
Ni 4.2878587837307744 8.157764654691583 8.901625510808527 -0.32918116595291047 -1.2280619710669107 0.612334443112481
Ni 0.8432112615116234 5.757607157553473 8.055109276740023 0.9531819896597262 -0.24476336452746233 0.4089136460875474
Ni 1.0999976141129781 0.32200021204655854 11.676193556404487 0.14690666398828892 2.091611447869469 -0.2874657884919953
Ni 2.4483411037754768 3.5816295469546873 8.724656471026611 0.9109343938444248 -1.283055553693971 -1.485597547658377
Ni 0.18317652751922417 3.2177858229316487 11.823398369430445 -1.0737644139311895 -1.134663049188775 0.5834586406183951
Ni 8.793712221971019 5.078103316144763 1.9160671130636107 0.5909868306746402 -0.34198705946832714 -0.8916932862266256
Ni 4.590063471318366 6.9190305242387975 11.40423252060425 -0.9946011760364613 -0.013764914994576292 -2.130965009966427
Ni 6.570756522221945 5.642674974977738 5.483798898034576 -0.033524614120006783 -1.5424292119354404 0.0678696672587799
Ni 6.346919744505866 5.300122544418786 2.0627693180295723 -1.0731383503114162 -1.1238358766662837 0.9574950152127831
Ni 4.642716765869361 1.65184642685156 2.6554851735801 -0.47915901266735544 -0.8467630013728384 1.1922171934541597
Ni 2.409588353171636 5.8249121261781855 11.768254290286919 -0.9386981942212543 1.8579120544656518 0.3327866239159817
Ni 1.4528618557921669 0.7184939862253901 4.307069168547935 1.5945375025949056 -0.22747886641540177 -1.5220735310972238
Ni 2.95202485629957 6.022867370767843 9.441979250647247 0.09369716984484508 0.8653374219409162 -1.3350597146754042
Ni 6.975393103365417 0.8808141338970198 6.969923763258659 -1.1387205070876 0.45952401204524723 -0.15289373480965926
Ni 6.0661825413997015 6.400296349549106 13.269375793050251 -1.234246759721384 -1.264082612135894 0.5814670641096631
Ni 8.755849699665328 6.278974924291857 6.230043896812503 -2.574695763733159 0.5015029275801943 1.195248781191632
Ni 6.980419183965388 6.841543569453995 11.309905413846112 0.9892404259451804 -0.11867106618136336 0.03936487495086769
Ni 1.156184002222255 8.002039614995414 8.960271154591442 -0.7511737567116031 0.4964784777824095 -1.0210182325774093
P 5.947095960099266 6.477588566893688 9.477701515752802 -1.7252994385025318 0.09797857082901835 0.3985032493875008
P 8.109098841059385 8.59508003294631 7.808704284344698 1.5150166242504426 -0.39803453728119836 1.02477050053099
P 6.483226679448638 7.727181627941615 3.221137161545726 0.9194460308598618 0.18373103190549 1.567502095743668
P 4.771141471088931 2.473397321083822 4.691056162458904 1.2665714399960188 -1.2791055679072874 0.08713082948123703
P 7.259468662589643 1.6229696464303207 10.816185727013291 1.8902156516943638 -0.3083007229594755 -0.41095587332855676
P 5.8168073393804445 0.954853308668779 0.319681909186793 -0.8817778268851265 -3.016241594033431 -1.3286386416404083
P 1.134809249855217 2.17671946751391 -0.10408901644003966 -1.0169355778676035 0.627434789089029 0.44916863695285225
P 0.9761353289214264 7.414563123907955 5.396801337597871 2.1608103754626335 2.0957727783360096 0.680010506303216
