# total energy = -340894.25889043714 ev
CRYSTAL
PRIMVEC
9.02315325651163 0.00000000000000 0.00000000000000
0.00000000000000 9.02315325651163 0.00000000000000
0.00000000000000 0.00000000000000 13.20629686521678
PRIMCOORD
 96 1
Ni 6.337501728909674 1.8977224658566771 11.135311581477419 -0.07570124748805672 -0.13492506614638053 1.4015764674507152
Ni 4.659592292863874 0.19653600206147884 5.818416881807207 -1.2729655164478206 0.5251989856455535 0.3374300362252641
Ni 2.713451588102178 1.7803222223991286 4.796355320306939 0.6465627681677316 -1.1454470271781563 0.8916331224126516
Ni 3.3922724101415933 4.264315030151952 4.7275772390118185 -0.506998660587443 0.7757031093115351 0.9513282242804391
Ni 5.246458162856877 4.698725707349724 2.6368883304136075 -0.3661289468218533 -1.2869592596237514 -0.7213384185177254
Ni 7.413575884164217 6.195531439880308 2.6479949294199794 0.36329559113811627 -0.6788313983934502 -0.07985203643163667
Ni 5.147564406166789 4.269539435728919 11.784493150599353 0.5237769084870463 -0.19558587436154704 0.1504514439167538
Ni 5.637656960420632 7.8655907328311825 12.378499041547544 -1.1057653923178181 -0.20146033086445303 -0.3741150503511234
Ni 2.0259414697404496 6.453810170856319 0.5457491664815616 -1.16913614326498 -0.5871535729714791 -1.2217213735608636
Ni 2.828478742325284 1.7759189237435846 0.2593678255410187 -0.01219088563923707 -1.1276385382418257 -0.02554648101053665
Ni 0.6146012376311403 -0.2807120939215299 4.634076620859474 -0.24752627198458016 1.7532239328269417 -0.23756453278617795
Ni 8.64723940626113 2.283128399205556 1.2881381012839026 -0.1625464274080749 -0.5716428789303897 0.4785584029688791
Ni 6.73664090109818 0.6138640460324559 4.737191408514856 0.6889497177743747 0.6829775593513399 -0.8596439711005647
Ni 0.8215860508465536 7.341553077056527 2.5533321291634663 0.1305863295617106 -0.22095314948174205 -0.10573636039756629
Ni 7.6973901380811895 3.7019289742009396 3.799293306460464 -0.3991951332482028 0.8991106617366194 -0.7534599816426185
Ni 7.6990233287710526 3.8116505144702337 12.452468142753597 -0.31913715145334715 -0.16940921596617922 0.41056326587582836
Ni 7.931937976712771 8.950742179986294 6.7786202180347646 -0.059625424972116675 0.17254570471263186 -0.48932746855992504
Ni 6.722113624796077 0.7084970698841259 0.42957968109084954 -0.24795178955777294 0.4632598249385957 -0.5687979532824269
Ni 1.9137746550128512 6.539909096616977 9.252000895564667 -0.9579148763590213 -0.5978357352756736 -0.04837479175896185
Ni 9.078013752806886 4.639272152346897 1.4102610630125818 0.17316174103007598 1.4562183231653114 -0.21043656622113435
Ni 6.352462116554944 1.990525594283461 6.888298447169742 0.4026553238826614 -0.35455743993417 1.0721567031244374
Ni 3.4006368729565306 4.1974354202443855 0.48082577614063826 0.16235205200908168 1.0795406542933343 0.10016040897168556
Ni 5.9623912131140235 5.6229762905178235 4.612153968372773 0.13691150044879002 0.4515677333126481 1.5372731216557975
Ni 5.322270694217289 2.769160534617196 9.106283291101597 -0.07831760206498126 -0.641190705222541 -0.7324579254696546
P 0.2675193419455648 5.695973598147642 12.403723265710605 -0.232142076219026 -0.2634383152291463 0.7890661608820024
P 4.099940252266611 5.94796319149473 12.5099546504062 -0.047202111607099355 1.5404664317821146 1.3709466583800003
P 2.296500711925877 8.460694741497363 1.3903325273350517 1.2493255084313775 -0.2941036055234871 0.3246418833216603
P 6.27117253133405 7.729205775498092 5.753415892350633 -0.9343108637868361 -0.16504425412926416 0.3302767130099344
P 4.595897855959191 0.8395276882372991 12.404172618729142 0.918597052596005 0.7016789924155851 0.7896749981105948
P 3.964033522041602 6.102358362181235 8.346023099501776 -0.46105047599210275 0.6506225400594021 -1.1340364713483695
P 4.703083890240355 1.2508436053759218 3.63590475919613 -0.04598340870864984 -0.7865207687523292 0.7181001140860859
P 0.20741341298209023 5.518334785377774 3.7169389891876143 -0.3696881249280214 -0.03322045261602666 -0.5195831821206729
Ni 1.5786998690013176 1.1351397146791156 2.6348545117313136 -0.42490025132379083 0.3950348312229261 -0.3938495526655733
Ni 1.753388110745852 6.6084128740614245 4.9012260135327494 0.9780270737278641 -0.5985785269789691 -0.7238012782359211
Ni 5.969880430089641 5.563910731093252 9.211088115310632 0.3427208523105581 0.6775345339588976 -0.0841545204617325
Ni 8.577797220906485 1.9862486197696745 10.157847855909308 -0.30879874564181653 1.303444401762968 -0.7240722725091208
Ni 2.1359788203641377 5.402405315856401 7.200006876217347 1.2707859922979985 -0.4792816542881488 -0.7746623267518465
Ni 0.6296617822745185 0.013532924843411823 8.970046313477422 -0.5041033413175189 0.3286031819622534 0.13893727262956718
Ni 1.3835471162920823 1.1949902884131804 11.394392470753589 0.8544351732061156 -0.2790893915028419 -0.6625326612334267
Ni 4.078636588074523 6.581334391960425 1.660929666763006 0.5519867952623592 0.7391193966502303 -0.049446427556585806
Ni 5.614638897161835 7.860014424287891 7.915392221088445 -1.295294261852008 -0.6329210090145809 -0.3158026877634755
Ni 5.277678272176923 3.0104576916798176 5.086788056936703 -0.9269657362756746 -1.2334080658701725 -1.713826919086558
Ni 0.715605509803875 7.528945918200663 7.000393978988777 0.3468063352338414 -0.7583461060903262 0.26477503176269884
Ni 4.981854201640013 4.6945028717538335 7.018367197414962 -0.13891901779712204 -0.5881966695240128 -0.13409151450149162
Ni 8.312065365566788 7.179100230756496 9.320171718664055 -0.46687942396905396 -0.8074040399592417 -0.4490454811114266
Ni 4.707703744567483 0.2579196094872998 10.225410518497663 -0.1832425223048457 -0.8218603245938878 0.09434920160654718
Ni 8.100842377395413 7.088435589586605 5.0628586552266555 0.8041500517983182 -0.33581229811618296 -1.4825677596931177
Ni 7.0921621517684486 6.028458739253149 6.973717027195507 0.15736076944207736 0.028044050621409765 0.5966363156509338
Ni 2.133461360681972 5.161550293289932 2.7326862433153405 1.1171823759055084 0.3159065603311914 -0.6831755342947589
Ni 2.321783586583324 5.309656326347513 11.39064244837399 -0.4948270582219156 0.12424521783503119 1.0914931986695202
Ni 1.1341742373099697 3.4101472762002674 3.9841154513198376 -0.5364110523112892 -0.31431659013625224 -0.4157154995007292
Ni 3.4795082531780688 2.8288938073624865 2.7270079731433445 0.5558881871992942 0.31276158694430656 -0.5550813750272828
Ni 0.9655676006757562 3.492023366365035 8.24747763651682 0.9452797040935139 -0.33191142039988003 0.23995643005712222
Ni 3.6568583250524913 2.7003950857362513 7.215867774530289 -0.10935518809707619 0.0018751055355258027 -0.8717392117022018
Ni 3.9450668544720253 6.786746469610959 6.008706155058782 0.5976156488450676 0.3246755647730731 0.3357248806086992
Ni 0.749128327765099 7.491256208192042 11.198556665363565 -0.42545920915105434 -0.41281323825226973 1.2575553525403376
P 0.00941566013741848 5.604821706716688 8.062629324513797 1.0939874258462836 -0.04979584047620456 0.778222533299279
P 8.626747825837482 1.724784715790781 7.88756662192048 -1.6592025468734584 0.19189428444257273 0.42263922320375596
P 2.027033271251353 3.2369659010038387 10.41918724037704 -2.1453423617340213 0.5680381922982669 -0.9679504062181523
P 3.9327412274976954 6.173749548580138 3.871769075847884 -0.8005299385472278 0.10846532929295513 -0.8999269869903275
P 6.717322330562278 3.9104811090894427 10.36871262490727 1.5694332513281097 -0.014805440443948695 -0.05945110417778148
P 6.3429156206992765 7.620548967280752 10.036956554562764 -0.9264751697925012 -0.14464486453730574 1.2881789909634653
P 2.39149646652745 8.50005373480778 5.810862698130114 0.6789139308049276 0.7704434035744925 0.06724514630090354
P 7.002661497333323 3.9149114772039346 1.5527700342750124 -0.7080015921995032 -0.1443972673028739 -0.39746940880634773
Ni 5.179289812053864 2.7232236627824125 0.5926812920903347 0.7725185409359663 -0.2742899132316695 -0.12962653675160254
Ni 1.4334902680511732 1.1730098877473911 6.967959353277263 0.5895439275805266 0.28384181858616275 -1.2375151460600107
Ni 7.02990239618801 0.36817171115197533 8.902285141523448 -0.08328291649005656 1.5794209586684411 1.0146843199395814
Ni 2.5925323149813875 1.5771569098412805 9.023189075284169 0.19328730813535744 -0.27293339920377513 1.4191201327614333
Ni 6.459828613895761 1.926379999729644 2.579255647682684 0.14248230966834816 0.032673321863305016 0.023338160505308195
Ni 3.985878575412652 6.809412629903432 10.487912085069565 1.044902752504491 1.1114966383746405 0.023425578012791916
Ni 8.029776024503887 7.659204154658521 0.197265975137777 0.6681767468930815 -2.040496117250892 -0.14132891279019533
Ni 7.643630192610428 3.852083262985588 8.218172240259698 -1.0240282230483266 -0.4249817552940036 0.05499949616433108
Ni 2.8424736526014085 8.356369046711707 12.279320153223203 1.1235633397311875 -0.06664890747780133 0.6117862839184948
Ni 9.229151565266644 4.575424321841508 10.476079122248088 -1.0254197040792146 0.13410951222362066 -1.2092258121970143
Ni 8.574557908985705 2.4462128662143745 5.598584903375065 -0.013258921892435228 -0.597860417866022 1.4037356798855631
Ni 3.748551605662407 2.477387859769507 11.187278626450524 1.152940507341724 -0.8229119057868538 0.7847986438549001
Ni 1.1483496106457476 3.359960499310644 12.518987728857155 -0.4246215437411074 0.3813969287245173 0.19363672105497617
Ni 3.0459998912785635 8.331176403584086 8.02369712633946 0.026918935878031063 -0.7168379595442106 -0.6896364594287543
Ni 5.610118297517516 7.714606313972128 3.442340081411845 -0.5437916610460765 0.76246475624439 0.8961423231369148
Ni 3.2671754171898257 8.5270690548379 3.5653698700152825 -0.567860529069822 -0.49585935614117177 0.4980663910948196
Ni 3.773527693118443 4.452086843721361 9.700301814463964 -0.6490037735090565 -0.5332786773298945 -0.7164522940700178
Ni 7.198121037243968 6.105308933206568 11.498946451309708 0.7519216906212212 -0.29835055372529906 -0.9779368280069028
Ni 0.6726219159403193 9.221752579820855 0.2375471346830224 0.16591688654220457 -0.14848069334362815 0.5046800397565954
Ni 4.402080529891392 0.20483008428315114 1.4089139062722689 0.5491081881629833 -0.10182854070272784 0.3570745499290689
Ni 6.193483184153242 5.722384366927924 0.4462355191815642 -0.38350600464772017 -0.09318732008796209 0.2655075390533492
Ni 7.784869606248197 8.797258347751038 11.290855399538618 0.005698850156990185 0.23238350280587075 -0.22007974573785324
Ni 0.15492392745128927 5.058307376862195 5.904693563681624 -0.8671083977984099 -1.4494087564426457 -0.11465834547754446
Ni 8.003094561134125 8.728862848142384 2.5631042038437 -0.17160648072781412 0.3857392648536131 -0.07743648501160857
P 8.607889436103697 1.4743922205216262 3.5580268281179843 -0.3470508471444797 1.2038470643836041 0.8216878035717655
P 1.7428310217561254 3.2013966319461447 1.4704283494163384 -0.6353149631680542 0.17586242779069067 0.8191436969936731
P 4.566365076246905 0.8072248005593324 8.134840715518823 1.29134324762406 2.3119462470409218 -1.2816687006487735
P 8.3792337163698 1.5975311892761546 12.393158055883193 -0.3144587721410713 0.5466427573416263 -0.5891212382208112
P 6.361223598101119 7.788632261041971 1.4834893633587567 -1.109925951453411 -0.3082842678992433 -1.120993265011166
P 1.7914116774148328 3.432136700019039 6.133611857167316 0.5404284010007984 -0.7372118952148724 -0.39387500658687
P 6.81315723839124 4.092784891951353 5.908259513740375 1.8969748247950682 -0.28960726031503026 0.8368449709281781
P 2.311000918769031 8.511098074058571 10.141233524322313 1.109949862712811 0.5919332537483096 0.581688693202166
