# total energy = -381169.02914131474 ev
CRYSTAL
PRIMVEC
9.20846026782895 0.00000000000000 0.00000000000000

0.00000000000000 9.20846026782895 0.00000000000000

0.00000000000000 0.00000000000000 13.47751240740113

PRIMCOORD
 96 1
Ni 5.9314086718182475 6.158553760989839 10.614915355767774 1.626562135130618 0.08678013101003763 -3.4800858307205873
Ni 8.960973679613089 6.915019562682671 12.906133128272428 0.93305873654729 -0.6070109740170384 -2.949161512555482
Ni 0.9777082678393706 6.208850370916269 5.173248513438036 -0.6817917665733548 -1.0922987252899512 -0.5159219312190018
Ni 3.5612522946022573 5.346551735484064 2.1910389333633815 -0.04218691778069508 0.47590528161674805 0.9976258217953979
Ni 1.4167492359961447 6.133294954503535 9.742152226098957 -0.16566080466734048 -0.038114804593850485 -0.8529737581692407
Ni 8.33836205622318 1.979017819318697 6.039394443565822 0.5148518380832746 -0.6420962477559459 -0.7389504751725339
Ni 5.4939239334449885 8.315119902533267 8.209475842229173 0.9022839172582783 -0.40441215867276803 -0.4631448966272862
Ni 2.3932880293828136 1.977995680230115 8.713831498146325 0.4995710006648042 -1.4261978655438212 0.5980401379769958
Ni 0.7201052755200934 4.684831781380582 12.255061837610713 0.3616649975132288 -0.06303367932271724 0.8950652880226522
Ni 4.248194221351014 3.8053962014091818 4.2542985096557056 -1.3601865916500187 -1.7678694506542587 -0.43885594217293444
Ni 0.37422814148043215 2.9566524194760073 7.817604290895384 -0.1278956701034249 0.6087744936753645 1.0822320850825684
Ni 6.179613509598727 3.4612299992853632 9.836319782384136 0.6952100968617898 1.9404051280645616 0.22178207314094062
Ni 8.746296845630143 5.3287057395050414 8.387810566959896 0.39002632226474115 -0.11668900275432807 -0.6146630912456575
Ni 2.938502544308488 4.432501553404745 6.2940525702947525 -1.7018370937145335 -1.7232335571124389 -1.6174313764739434
Ni 7.7998052580636745 -0.06240113093490459 2.2235337479200243 -1.6542197489468866 0.052428135892729065 -0.6374098980238699
Ni 1.7229949987796056 3.997576766983071 3.8047829179560324 0.18045956024306983 0.6965807519570714 1.0769857490819645
Ni 0.868322810132657 0.15511467134542622 2.2854891893784663 -0.3923436575440082 -0.5658123882915417 0.7680934152850772
Ni 7.675960676060646 2.1176972307965487 11.16893592123769 3.2167315905648146 0.9448611284988565 -0.8626675884182369
Ni 3.417959444535401 6.225665019346452 4.650873742489024 0.3948340280660297 -0.811299775469222 -0.1020303723008888
Ni 2.018503696902829 8.201367792972452 6.358016376935354 0.15024215611942512 -0.833435688136313 -0.1454953854630591
Ni 8.365094216350686 0.5092029893966944 12.588630022824182 0.27656328264687857 -1.0549534518722734 -1.0257896858241236
Ni 8.427794622243958 7.604383314479148 3.9705158648243746 1.1791544467329307 0.608871424264545 -0.5424346327975497
Ni 6.264616806235649 1.2454718752067662 7.406971422632977 1.395413533173113 -0.3116135893827924 -0.3102506475969947
Ni 0.08037144112740312 2.309509457960138 13.359948150066327 1.69124054914561 1.6044365068761721 0.35069307188275733
P 1.379316845049434 6.226272777723446 7.243974309307137 0.1892671312323708 0.09956057060415757 1.5675792288385069
Ni 5.600161939435692 5.498196659004466 3.598388173128677 0.8109526765424485 1.2247640170419296 -0.04593687174143056
P 1.5065869742682514 5.941482727339945 2.6809336232921637 -0.9198062424127578 0.16529750779065083 -0.3822901299627481
Ni 3.69529985057059 6.298236894635758 7.157071307319094 -0.5387145036334852 1.1887240926992366 1.4052629151633669
P 6.500629642635207 4.195973043230768 12.25118047161218 -0.0991471372158228 -0.18081308692774664 0.12691659401960723
P 4.639351196168821 4.970754472375755 9.171285703433982 -0.16833835149950363 -0.47175912065885844 -0.6740905412743552
P 1.818578816252388 6.548992475907562 11.741258301469376 0.1940208438672723 0.8965683549307397 1.1117879443628145
Ni 3.8087296640223944 7.077677804671036 9.385928466113974 -0.8510541725490245 -3.523792527579918 0.8893016460659975
Ni 5.66291759609051 1.9529762937105053 11.681202565362053 -2.443980107682436 -0.4970500340151633 0.8224982152882029
Ni 7.0617195430448 2.948116176817311 3.063734841272322 -1.8442726093053463 1.3244953088959963 1.3746318205410712
Ni 5.324506681627625 4.676709919433472 6.082926518587096 -0.03833771923793398 2.2643034483519773 0.2734134241639872
Ni 7.148684241716569 6.714265920609056 2.02426819302402 -1.4368872269368673 -0.7077146570867037 -0.09016987341787697
Ni 4.3878036873148725 4.088749731992514 11.286945101975547 -0.06449303747706313 -1.7652268708250891 -0.3007902735150432
Ni 0.7668428155570015 0.226427750117533 4.80323692590951 -2.1325961178119464 0.055518344782278586 0.2828876822030096
Ni 1.9240801454224907 7.758597398411392 3.6567182437837435 -0.7449784265341686 -0.0480775722335172 -0.6512516890029688
Ni 9.04061765238015 2.276948342489641 2.4231354116154273 1.291161984851189 -0.20889673253784022 -0.2561240409559202
Ni 3.1730328186065893 -0.13678891458698844 2.0700784411129987 0.10438216036251699 0.6187159211587925 -0.12451621210823072
Ni 1.9707578304677253 8.673347423470279 8.726608236753597 -0.35148162922232373 0.09243090153791178 0.48468457047127494
Ni 8.10188879681075 4.546953505945132 5.811058700482937 0.3200907736158681 0.6873121821709518 -0.7696931556720292
Ni 5.056503654293534 1.6148047992143146 9.379163010362793 -1.424671915817598 -1.4474467476202686 0.6649919214071967
Ni -0.016141509985360326 7.394273876783919 1.4842113366885679 2.42226225638937 -0.9018506863756016 1.9693881455604725
Ni 8.520026560183013 5.066798712861411 3.0249736695104548 -0.11145140850447258 0.25090058777345176 0.9530614049214619
Ni 7.663713423918178 7.383785440550635 9.026927434515335 1.0193385308821412 -0.10532112723701863 0.4648695926278768
Ni 1.4410964049169577 8.955669606504772 -0.07704074105226773 -1.2681827503471967 -0.9543670111067629 -0.28069761653022623
Ni 7.32300039439092 8.298627550212096 0.28569247948873533 -0.14695268673487594 -0.8912142897076781 0.42071346693595285
Ni 6.167983224293512 6.096212485046609 7.7876841618267365 -0.40770008539542046 -1.1803775205067542 0.8583172818693411
Ni 5.122905861210319 1.314397200234105 2.1540973533483947 1.3830696668957794 -0.8218754941025394 0.785736325177821
Ni 2.6368702201140315 4.221775148872265 8.542667401418111 0.08091878713325419 1.4127360836119605 0.9162648049184027
Ni 2.973347357922843 3.9162292290683736 13.260335631230891 -0.6437358402418979 -1.8971604584433135 -0.8361818834228825
Ni 0.24872787832310497 8.287973361694178 10.703220806253036 1.3429041504204873 -1.534402742086538 -0.02047215181142281
Ni 8.12844599619336 5.332803504319625 10.886609133973069 0.09003746160507074 0.1374329201698988 0.10454208297914898
Ni 5.078005408994781 7.820312499057113 2.4012349305850305 0.20317808488650818 0.005169974236713677 0.20173132513765257
P 3.968791120218146 9.009318095964929 9.531512381092893 -0.1260025668457701 3.558460511275749 0.48335942390194825
Ni 3.1162718695793994 2.0104186687967496 11.089121591955866 0.9822385407060503 -0.015148168495348103 0.18856676273123654
P 7.510116306823188 7.886226657580251 11.281284661455267 -1.1957288061518438 -0.8745471134646422 0.6089012490612158
Ni 5.267405019570908 7.285531169603179 5.87742223186664 1.2971210306481014 0.1835914210038322 -0.6594900177523609
P 3.814761205491053 1.9454990239814205 5.377096198158169 0.47629763195916036 -0.36731962469584484 -0.05607730260954213
P 1.81941678613582 1.5965904648249927 1.1484368043974027 0.17334506068547567 1.290835711860022 -0.699709270283724
P 7.0526584181514265 6.3827613513392905 4.853494860302858 -0.0011922205358882692 -0.6320463197191115 0.8757812429820594
Ni 7.963761892948346 4.906764882046433 0.35189670450998467 -0.21307503228524594 -0.6981038734698171 0.16598116412123673
Ni 2.1193363367223825 1.7198641222920577 3.723055070632701 1.2860025521374367 -0.39709454196543226 0.13308569894479658
Ni 1.433020585271136 3.4602815278788412 10.477162315391828 -0.9813034304862907 0.1910784734094967 -0.5947637812185693
Ni 5.054781672225382 5.264209683861558 0.34598395217864814 -0.5656722631692516 -1.1179701619141262 1.161410492485948
Ni 0.947559768956337 4.1389174234753385 1.6493641505606877 0.7893525817741697 -0.5079939346211767 -2.5855064811954183
Ni 5.654316894210011 0.41389910911573985 0.11825688831878281 -0.5794880860064213 0.76529991170034 0.27997565076253716
Ni 2.2210345718061406 5.827371487829085 0.37323546946467434 -1.0259074423489105 2.855400065131605 -0.2672720871529397
Ni 8.183227126265189 6.983687050822801 6.698727564770562 0.5380200486696218 0.6351509267863642 -0.8695925976728444
Ni 1.8315995790564836 1.6006974380998347 6.417897152297783 0.45852436713613937 0.19612143515004288 -0.17593698978236796
Ni 6.949532871727756 8.997715436040487 5.505887565011525 4.098198056857109 -2.5910772904149764 2.8837117675921045
Ni 5.1859377716728625 8.642489873147419 11.552721523619375 0.3006347217737855 -0.44352583684477814 -0.3624589541694338
Ni 3.416246670927507 0.8117340593122823 13.18759800365695 0.9911060183990092 2.138059712029679 1.0893872080701108
Ni 2.8160116059633093 8.848345002203686 11.410385432573275 -1.2804502548606398 -1.9823619321123216 -1.322077443483123
Ni 8.879534057095816 0.8278147934599431 9.063748383700947 0.48944033998870545 0.3188874973363863 -1.796994393044673
Ni 4.569311647450326 2.910343072841073 7.631250838972437 -0.7808913383806939 0.9698460805789684 -1.1355264256303348
Ni 6.217865453508354 2.8376054452671315 5.445467173878007 -0.10380957568849863 -1.9276033483142025 -0.8081180353071308
Ni 4.923137524384256 2.806094094265989 0.2460242743915049 1.1000470017768023 0.2550030399775995 -0.9748569035299985
Ni 0.9230836815919192 1.1911235427670395 10.916084494411281 0.2536544963695051 1.27166453824821 1.0936231005283292
Ni 4.231103319113106 6.151039657419725 11.817392930032304 -4.239359590831506 2.396089197538428 1.6665103933887817
Ni 4.006849686462367 0.3216459917180929 6.899556716218288 -0.5901041709593708 0.6726414675326544 -0.1982721629444585
Ni 6.932469594870621 3.6450492829454477 7.604308725951062 0.44841041863058906 -0.41721033887870085 0.6466632983013378
Ni 3.826953206871974 8.496102980434046 4.566693682199121 -0.503939562046145 0.8696357922059538 -0.22678543989280298
Ni 6.861168487096849 0.14030102132919647 9.876698880613244 -0.6551937043698522 1.2241446382903756 0.5334380857258941
Ni 6.381739212250709 6.621739311941761 12.763487632961674 1.0171332957007062 0.19833566919254228 -0.02211585806243288
Ni 5.583605127892718 0.606894623422417 4.405421313479509 -3.5639063648816687 3.3788288462506135 -3.140412249876785
P 8.366917491481669 3.549023459380306 9.618805821795856 0.7471103852755069 -0.5536958075336658 -0.5397601712891801
Ni 7.1540803994274595 2.294315498535274 0.8532246186944707 -0.004373703587663436 -0.22732717132888589 -0.8503273216853291
P 5.28550885243714 3.914212576271982 2.2178861992441035 1.1200519841438195 -0.6218830060328645 -0.9106585144752188
Ni 3.8847086696069733 7.734434398695728 0.1650561250394162 0.395790478442028 -0.4061900765087973 0.03969551881740905
P 8.380564429583274 -0.01677136866697288 7.078605096618966 0.4432982942150043 0.175767039863407 1.4093270579304116
P 0.8967447227174107 3.541767192697401 5.750315092394381 -0.408554977196548 -0.09484413896509472 -0.34689452407227356
P 7.877736457222843 1.0493408801824124 3.8532074479121134 0.3682020273007981 1.2079921969002292 2.827363213599047
Ni 3.4935793201699377 2.813092524061684 2.0163710175071934 -3.0515731794551897 0.2755525819941771 0.5172092825718577
