# total energy = -381164.2007098234 ev
CRYSTAL
PRIMVEC
9.34203713848080 0.00000000000000 0.00000000000000

0.00000000000000 9.34203713848080 0.00000000000000

0.00000000000000 0.00000000000000 13.67301565975655

PRIMCOORD
 96 1
Ni 0.6507046598364165 0.8384394385073021 1.3837640493599397 -0.0015699155902811671 -0.024548121653009333 2.1921390103725855
Ni 6.441848520151208 1.1580109157534688 1.2199682412322121 1.6624812176247306 -0.0523934260000517 1.3376567859786188
Ni 3.0297441380539603 4.313592296038196 4.056756335976624 2.341219284973426 -1.2770324874283427 -1.7897287126211952
Ni 7.249514353637546 5.9892922079474165 0.4363815088483081 0.46866248401140576 -1.3985135122546752 -0.34167852708897284
Ni 9.392204025356092 1.0096687057028113 9.900425800927085 -1.4831470292353552 -0.9142364616344643 2.0605412088272255
Ni 2.6304000702262975 5.2937681900318365 10.49976887397356 -0.9258259662442766 0.4504881270952242 0.5678898396458607
Ni 2.687124920621637 9.208147206764362 2.1802166354929313 0.6237444847216355 -0.3532847438693335 0.08731723446043027
Ni 6.4931363048465975 4.216033400669533 6.071433939184422 -2.271421804564314 -1.0518951246619237 1.5038559796479325
Ni 2.0830127375411025 6.123126234094259 4.613248418199912 -0.8089960670367099 0.4406253753685314 0.8116576730292732
Ni 1.305316159665476 7.657210202798119 6.623755735963626 0.11294959031655386 0.7693242023683847 0.2201298822494983
Ni 3.47636825658169 8.511632932896559 13.569197052211043 -0.40236530344606836 0.042857718595474575 -0.6750511054154116
Ni 3.557270299470958 3.987788745719116 6.218090845708841 -0.7068451099975568 0.9886788970147553 2.0393612323155006
Ni 7.7793760243758285 5.004875029026325 11.309662783352403 -0.5221136618520106 -0.4853157762973707 0.8564162081918864
Ni 0.5708900300871377 3.48642963073778 6.89375649496741 0.8489620659066862 -0.17112182778191176 -1.529852403711694
Ni 5.0704281046561155 5.844070238349994 4.957917278612594 -1.0807125631142485 -0.239410070635349 -0.1853207449901131
Ni 1.8747226742317344 2.494585532175006 10.669409994830595 1.0689461666069395 0.6543840639843633 -0.8883950750913281
Ni 9.475067896075238 2.9628551510923944 9.076325455448737 1.9643629244317395 2.313704367382609 1.247585128701503
Ni 4.518323043141928 8.885818894315353 6.380321862591309 0.15111761674584295 0.47747956808240344 0.17325430074388226
Ni 1.7287159735023607 0.4441877152037669 8.386071280765703 2.2608391439524613 0.9855832888085672 1.4039657936184984
Ni 7.051771450423096 0.8237332034130427 8.770036486814575 0.08058402950165476 -1.9675708898460762 -0.8686029800660654
Ni 6.9786886927414855 2.507785830858902 10.090863230984562 0.22373842553636303 3.6057657241196157 -1.3328207980425562
Ni 2.1208760146577545 0.7261490845437089 6.241882212062895 -1.0857863780927302 -1.1734321995371728 -0.4869494552460517
Ni 4.148798758328416 1.2068884548292946 11.753557158585416 0.5736763644206507 0.23073799678264775 -0.26807324289799644
Ni 0.7899757516832077 3.1356081045691093 1.1780944275090517 -0.4273921645077091 0.8561002196133644 0.262923837486573
P 5.051818766384127 8.150180168297403 4.211836023317321 -0.9879181075893307 0.8864945156345054 -1.3436608260808538
Ni 6.545554476053489 7.718372520903897 12.3623889389024 -0.82936280361852 0.09555196366539673 0.33775785187832796
P 8.03946768443127 2.6596873571151955 1.9897651923795283 -0.31592275828110755 -0.8550617510465209 -0.052434563650632274
Ni 2.114177773924313 5.11257003484936 1.9279087609034646 0.74040649089277 -2.3503109628620487 0.7069476970136921
P 6.4978446916383055 8.473059660946236 7.645540129821528 -1.0205227809982296 0.6961747747679042 -0.21615829919625998
P 2.874012376510761 3.2266182318008934 0.6089205296711934 -0.2309100035841378 -0.09495701039387516 0.7289242012847833
P 9.308630159803274 6.817080789745936 1.6235750806730815 -1.9220888462538768 0.30210924943678297 0.3723435602729974
Ni 7.66317976462332 8.157784586647503 0.9049510071625486 -0.20426591863404822 0.9686338054384223 0.28306457410050606
Ni 5.0319015428922205 1.2149973431927918 3.3430938184682266 -0.022837309609489702 -0.9622389576556718 0.130419207856227
Ni 0.9654341591576977 0.6968702054883675 3.858907867740852 0.669341456625144 1.2617670766288398 0.27176920369234486
Ni 9.1727408854537 1.0579203282805332 7.454719676235363 -0.6376654656781017 0.17913287101184633 -0.6805486381948731
Ni 5.666487451596865 4.407984240767199 8.399853588372462 0.06573539452459647 0.5469849711723935 1.1091147684060252
Ni 8.224468048788797 1.171183188325509 13.577988843500084 1.163233661737616 -0.17969054328752923 -1.9443219466204644
Ni 0.7008471107606495 6.202972626770308 8.64164699999751 -0.9005131985111008 -1.5765968589560846 0.6922517855644142
Ni 8.014076027090272 9.324614385598139 2.9368684059763344 0.5206504470429226 -0.12216313849502186 -0.013417301847170441
Ni 6.266862819763345 6.446743747688617 10.242524666882629 -1.4832447311554842 -0.7141100190900863 -1.2525491575749979
Ni 7.372184645228653 1.7450925648632023 4.274184780158311 0.007453885174883936 1.123320627592762 -2.025056385657054
Ni 3.0280999394917765 5.731199743870993 12.968049097561082 0.11728498446711415 0.9391129131611697 0.1799085728356063
Ni 0.9543358188629573 7.8348864099241 3.3204916934605717 -1.2137010743595484 -1.0345882579523602 -0.31033857932511066
Ni 6.845863606621436 0.6623205489967531 11.167695579545123 0.5453209532064092 -1.5986669513822467 2.3767012799301197
Ni 0.5170294483234209 8.412999703240105 13.688739629719088 0.09079053772101138 -0.042142951916637104 -1.605653410002409
Ni 8.928147665254299 2.9646768483629957 11.610714605884517 0.2284121768629486 -1.195199158900619 -0.46785952849413615
Ni 3.418270126705436 6.568180890358087 6.612639645798044 0.6487266085882698 0.12492450329024292 0.5107650696084107
Ni 7.764017715079067 2.9362863970534705 7.834637911732316 -2.976671287939977 -0.7313240689755276 -3.092409753855577
Ni 8.28955402255433 7.367167971206535 10.783634150512214 1.300926520437121 0.8781751971355327 0.46959219491452675
Ni 2.031164430608604 0.2810701389829402 11.20608948437957 0.30568591104444776 -0.13751339569884707 -1.7064334548359645
Ni 3.991170563216335 3.5728434756252785 12.527723380570992 -0.11234589529428392 0.03433014074043765 -0.5933671579813588
Ni 2.3505967114992217 2.7422896507903585 8.006015717320658 1.663272346067458 -1.6327338111589687 0.7555227777089182
Ni 8.487707975409327 5.244563679651031 7.145805595124078 -0.5652822268196844 -1.2061147773718583 0.012287302007785291
Ni 6.802890235109817 1.0890479965146027 6.245574185197979 -1.1843565597591603 -0.08047192940382271 2.1086840870810395
Ni 9.528878030837614 8.31361911060084 8.966463096975552 -1.5766639647485943 0.05562658822536871 -0.010975525174897227
Ni 1.6492712884295735 7.549234935856529 11.463756885759517 -0.14570827280481358 -2.278106158563025 0.35993027421030915
P 5.588023680439016 5.252607173753532 12.372903401866822 0.0423974911296044 0.6164402377507384 0.4266586287757942
Ni 8.551691588775217 4.566565323682364 2.867040414084865 0.21600788966132475 0.7431406019944814 -0.6731351193396213
P 3.5706294127887017 1.2616327933201854 9.380044429625759 0.3714611576680441 0.36886202948230024 0.48120869610753253
Ni 6.552542319942771 7.783206259662734 5.541878687269093 0.8857946613540034 1.4159882720006711 -0.7307262874905287
P 4.68011778688318 4.978820087038083 2.4288605630591684 -1.813652570426644 -0.1503689115052765 0.6196883123743909
P 9.456010140013563 6.679734157579882 5.178203451999804 -1.210553272759186 0.36544477627063515 -0.27575107115822833
P 7.818818105793667 4.5079160136062875 9.19104193649528 -0.37296139636265446 1.5630000941082567 0.5643633145498409
Ni 6.171013517217861 3.0093598126977956 12.085333073340884 0.5418080549571443 0.22486276894879337 1.1706806049339644
Ni 6.342019509722255 6.291535140233386 2.935090616280973 0.4271944466746062 1.2891922627193282 -1.1616470339767866
Ni 8.265264725612981 7.4165873484448985 7.110022789710826 1.1022908035056564 1.1653715340162254 0.21935186643289317
Ni 6.163754754247311 3.965367856234792 3.4027212398480575 1.2864234417249394 -1.5368211217200436 0.8809039089206054
Ni 2.7322843288579794 2.1819262283161107 2.66173980270674 0.057755975863545694 -0.040818062457626474 0.19981071107617202
Ni 4.950980815928381 2.7256047721991075 5.158131150688963 2.0998456628538027 -1.358875071927447 -0.5464931191376394
Ni 2.52115428621393 4.907260081433949 8.154887620885383 0.6476727134024588 1.2270571839514803 0.20538769094331724
Ni 5.184382275460192 2.2640147099405916 7.98639463641069 -0.7218369554206988 -1.0957342333340614 -0.17792188142288068
Ni 4.383732311974989 1.6541478318924139 1.0390410051310042 -2.120890142228928 0.05644188503781248 -1.3913388488831069
Ni 5.130646876996096 8.75138697778226 10.149055715437395 0.43435676875100027 1.7285272014112103 -2.3032361208614334
Ni 2.3856947455794737 7.751807672347395 8.923925998605146 2.2228613791571075 -1.3088655727785392 0.7926721330657058
Ni 1.706014822899483 1.4635796133129468 13.015727119049497 -0.015210903412483483 0.6562974789569922 1.159778356199164
Ni 8.116436729623496 3.6541098579686673 13.653860199311309 -0.8047784294109366 0.262280033254987 0.5823080719537198
Ni 7.475442183341249 5.808280893510641 4.869945181905935 2.051429990554577 0.222686587233081 -0.16337432262600896
Ni 5.395633764588948 8.373286702740996 1.8791507999048884 -0.08006698065592018 1.8501730339501814 0.49043792801528446
Ni 4.2598568975741005 7.253568797819295 11.332674089593146 -1.6497995083920036 -1.865736435606077 1.6588325651285496
Ni 5.573963914324889 4.075566528050244 0.7471854841023757 0.4959334039122168 -1.3527437622187282 -0.5826813961327385
Ni 0.5534064073080077 5.5925639105595915 -0.03080910476264644 -0.6120691052662361 -0.5032278806911011 0.3843462411608284
Ni 8.705984676576506 0.06114456823493654 5.46312157614049 0.42021852957740535 -1.243610460324471 -0.7712147345228783
Ni 4.1243132786040775 3.5026941176512003 10.086501433776133 0.3027880206713624 -1.1972701824970349 -0.4959884255198684
Ni 4.878075556955188 6.402836172448484 0.833552618803448 -0.20635185462879943 0.09589623437869291 -2.039400313083552
Ni 1.6262525085590012 3.816054074306481 12.522663733177362 -0.8746579280108936 0.8843221905735351 -0.22176458963944393
Ni 1.0404600605946162 3.240304316423616 3.865579950769895 -0.9024893484008651 -0.22099454424263876 0.5703069337277855
Ni 2.8730314625958218 8.293907411929204 4.5960749510586485 0.4940428717577233 1.3587444598868534 0.8057937580493284
Ni 2.02606367825092 7.114353758196215 1.1589908954646795 1.3744006783668716 1.5325086103876187 -0.1789770621602724
P 2.962303970892571 2.092270696490671 5.083421944316011 -0.3401942292339625 1.5521032446900946 -2.066312306983048
Ni 6.0189812024395755 6.329202234567051 7.307584457401945 -0.48785756888261783 0.8566769180524407 0.16930508628814714
P 9.10307731341845 9.262714046546835 11.774175969077438 -0.2304693165022934 -0.01007795306129232 0.052015988055974925
Ni 3.816969593960424 6.869732511884957 2.898938800394958 -1.2231143972536482 0.08043619106988081 0.37522705246837956
P 4.199871676166249 6.512418269803116 8.752931216545493 0.5138977017001214 -0.8234726633863302 0.6957155757432987
P 5.365748587313802 9.433215569037833 13.208229139346988 1.1094983769976894 0.01747810218010538 0.009063909974481164
P 0.37934930542628803 5.824732221169764 11.54135184744985 1.090007101042297 -0.6423590144990292 -0.8236194733768395
Ni 8.383656364127495 3.667198052205141 5.1471654673236715 1.0764992963638493 -0.790278950243181 -0.39929617760244135
