# total energy = -381175.24797247886 ev
CRYSTAL
PRIMVEC
9.16200271281455 0.00000000000000 0.00000000000000

0.00000000000000 9.16200271281455 0.00000000000000

0.00000000000000 0.00000000000000 13.40951707963907

PRIMCOORD
 96 1
Ni 3.661035509684224 3.153020782199306 2.7008246401589324 0.09586872357486716 1.455105806827423 0.5675872208037773
Ni 4.664174026810111 7.032276872954728 4.739339097223584 -1.2355909324541043 1.0091932149180232 -0.4881874414182108
Ni 5.172161268286833 1.5549476176698493 1.686461753486051 -0.34755966846009817 0.16709110935596386 1.4804424858199987
Ni 8.028406457990622 5.302087629029575 10.709577686089101 0.2722607986167827 1.817742681335618 -1.4019353934520309
Ni 7.804871915334854 7.693040509987845 8.806740578882081 -0.010687818731149335 0.20569442355045867 -0.12956097362098978
Ni 1.6025900318763413 2.059828940220417 9.637339344358338 -0.49044461288350377 2.0769967832800873 0.4682192258264001
Ni 1.4229323203042061 0.10817576625693308 10.613405059611386 -1.4002145541061821 0.2366394498687473 -0.5381933410226925
Ni 2.1292402729181834 5.7837341126517465 2.1640549670995775 -0.9854753024757932 -0.5911395542024206 -0.2658793205704711
Ni -0.1643855692181349 4.55846283928809 1.4712518065125944 1.3779598564730398 -0.7097615123134035 -0.320378480059616
Ni 0.38793110627718136 2.230975151254508 5.262390503592289 -0.9929461569315415 1.1805402713368636 0.9414744714148109
Ni 8.306024302773489 8.34230583359228 11.009052404589474 -0.8402172298345206 -0.23147873160341426 0.7230618289667353
Ni 3.969373549627548 8.07054250855517 7.254066054090046 0.48790410584983707 1.0573168098981274 -1.1412149913746796
Ni 8.812307411742056 3.516770614665873 8.687328532474602 0.7482272724887695 0.3455675777307339 0.27593284815173125
Ni 5.249424437325938 3.0282984390083487 11.601820238346921 0.19202746758632736 -1.0841097617212556 0.45099977662432006
Ni 2.4711937008852805 0.8522036841186271 6.169343567436634 -1.2070015508521859 -2.6455867343167663 -1.167226842057409
Ni 1.6209140373403768 7.025973415075099 6.73554709047287 -0.5402607650746826 1.135721058139644 -1.3254440459625108
Ni 6.130827424151506 8.57724706964941 2.7199997956767725 0.43162548586276633 0.10119116422904509 1.0590150235361566
Ni 8.224674880515904 6.356414255419245 6.5861111611125684 3.905978527864634 -1.2616308081612917 -0.7065628028704476
Ni 7.538156853803086 7.599899590214153 4.50656284241203 -1.2148868671375337 0.23132677940658228 1.176655848680793
Ni 8.492874186490258 1.0341060863601066 9.416391235073819 0.17636405001745756 0.44039834695939 0.13908896771608306
Ni 7.584241727545135 1.9774075636431858 7.170109125854929 1.1864707778886856 0.28498801637546406 -0.19628495731110066
Ni 0.7323417833770055 3.2007181684221906 12.987144369836741 -1.5266233552514352 0.23858628918247296 -1.1432713596830761
Ni 4.805855237058032 4.61394792783319 10.169495949042123 -0.9043932502917973 0.883302233949453 0.005233480484797438
Ni 6.180247266888009 1.1098850109566252 10.416834290995945 0.6276489619823642 0.5713585149207515 1.3996118875251766
P 8.429665529642069 4.011088148066425 6.5765634380655325 -0.7458168632750639 -0.348297060846755 -0.5592902709023078
Ni 1.9700321514439114 8.39488656727133 1.8401745057216587 0.9514889182280195 -0.7361780546337192 1.6543025384686798
P 6.252489658429968 6.751131657120032 10.401104964705617 -0.11029184097873262 0.35164052339769114 0.4534646932250448
Ni 8.218747064748289 2.8841801360337107 3.148487423247504 1.5046064846607121 0.2959298600989484 1.4458477785642647
P 7.267392187063765 1.240645113947982 2.301716806748963 0.09371491045665796 -0.7090143497347338 -1.5094075055937812
P 3.616627282442134 2.072637420039778 13.111155741615693 0.9515256850032259 1.2520115399039728 0.12984328074809898
P 2.596145094144538 7.912461313416936 4.917296341088656 -0.5362097349337603 0.5968204066372819 0.2784551003529527
Ni 4.3515848175991305 1.7091990956660994 7.09537741817068 1.3692656711331515 0.6923304613211495 -0.955815056407199
Ni 3.6141443797017576 5.9013100937117295 6.447764919859101 0.19836703665110997 -1.3193209637839085 2.3799303283903788
Ni 3.100101054419172 8.161026447536576 11.548973806588643 1.0400713925541185 -2.045417980032542 0.4654650601200306
Ni 1.1902907469328126 4.834083367475379 6.262405693986832 0.4162443754210057 -1.0562220341720518 1.0957692003370547
Ni 2.5549435678586545 5.453956986315501 4.431161392328071 -0.07062203319293645 0.12658363616022072 -0.5329675738473789
Ni 4.234723472752244 2.2157387407111626 9.343657760185424 -0.15411038082557973 0.5551482237094763 0.29068403831897677
Ni 2.836995821963819 3.3758223646365124 11.51412246439632 0.6057807011543631 0.25252938162612637 -0.5263588102816096
Ni 7.486354890356257 2.9012581091261915 0.8484903244113403 -1.9971318913326443 0.10989383420936556 -0.5900846305753451
Ni 5.742450128341274 8.438314460221093 11.982141385154888 -0.20175986438274285 -1.3770733401030282 -1.4198266719101549
Ni 3.715384509890553 1.0660723138921164 11.111165673638629 0.16909451293923783 0.015206018316477039 1.0151175508222583
Ni 2.621194009613874 3.9603214909283144 0.4495281668448096 0.5071233590907652 0.58362036300724 1.4558509125235637
Ni 0.5924013536481669 7.2560404656787965 4.0104917016885695 1.7539592683310696 0.11958303647267148 0.3782108176870519
Ni 8.76942007695348 8.592877446310231 2.1566932979044013 -1.321325395808447 -0.3350044575029069 -0.14800761036195156
Ni 0.40267918207491027 6.018143952550419 8.702159982497193 -0.7149643966705815 -0.054833660010428144 -0.21449273856837897
Ni 7.942650112418935 6.203051491688001 2.7074615949380063 -1.27637582768095 0.3542165116549835 -0.5332539947395462
Ni 9.248492037807955 4.847047601341184 4.212143717019187 0.05355993550432712 -0.30812845904766933 0.056300988584574
Ni 4.975498879644073 5.87002185438189 12.359042356342993 0.15533371170971957 -0.1487789413103373 -0.8867318284562922
Ni 4.719943137439903 6.335625671220297 8.716816438267601 -0.29933837155986515 -0.16544611755337313 -0.981515803607413
Ni 6.880205951608698 5.496651919046704 8.641857512915598 2.1886214841376304 0.5256828672605075 1.6759329722542622
Ni 7.395559443281962 0.8646466000289804 4.423759410320873 0.6130906045522151 1.1756171230036334 -0.723844986989663
Ni 3.098222843859108 6.850722626817064 0.25735515954073823 0.7009493133384121 -0.5140918199887985 -0.12989495992164082
Ni 1.1338802961117795 7.09535726176467 10.927697485130249 -1.8932850346483072 -1.100732714989917 -0.9490443133422688
Ni 5.947633179524812 4.3598581060661425 7.092655387158998 -1.2494584344648159 0.17375977962539108 -1.2249722763979936
Ni 4.963725706133429 3.764914296659841 0.46226609924313383 0.7356280956675202 -0.31583971164899804 0.1053488951511605
Ni 6.612061617650736 3.111315345763161 5.377658576164078 1.1661541778185207 -1.047416777175596 -1.9212655790216333
P 1.522248429919278 3.629994644428148 3.0008353358191258 -0.21484009460546868 0.1258207898522672 0.10010255915055664
Ni 2.0694123950781074 2.719474812920228 7.4618602760522075 0.08424528040332588 0.9595097316499669 0.025936517360103717
P 7.9814603559917625 2.9106399999237778 10.739172787314066 -0.04737488973953777 0.4327418588553966 -1.5554752464861212
Ni 9.340753405319372 1.7481284452744428 1.288193159526334 0.4793988965923034 -1.5637863374549776 0.3251165089652336
P 7.043701890361554 9.132125441108599 6.377512515310536 -0.20739340851943638 -1.2590854160316187 0.01859576072431636
P 4.211699359886684 7.95733680279836 2.0751230713809745 -1.5120801673299378 -0.6171295505082791 -0.12213357080866707
P 6.582559968853638 5.224778649976811 1.069508064916623 0.45750183940889594 -0.007108071799690985 -1.1340755521164212
Ni 5.753719391701656 7.442212361193396 0.6526790858223847 -0.02918510620438845 -1.1191266441160725 0.07654328377337785
Ni 1.0134824182103348 8.281671699511786 13.189815199871157 -1.7472204069453392 -2.3733940699337577 -0.9604684960188105
Ni 6.338447568061758 3.1809190805183 9.023814077211231 1.1185185782184284 -1.1785720918668992 0.7370717700925822
Ni 3.488982260379663 0.6585693373787989 3.482437841828183 -0.3520166757901873 -1.7021433121010425 0.2452279628687067
Ni 2.515134665988037 7.14303632398209 8.864911050427935 0.14447671439055762 0.4018078882807016 1.3374978918032514
Ni 7.908759864313202 6.5153658408170205 12.83805751278053 -0.556971392961144 -0.25011511575767886 0.38700964692560447
Ni 0.9653086078453856 0.6811316853066656 3.638015061619756 0.5780246140870174 0.09223369792544116 0.008943325236216855
Ni 2.4660813033608147 1.491134268641346 1.5852866735166529 -0.5677353163458674 1.2225718944866169 -0.21839721582910773
Ni 5.243734833629356 0.12662712355894354 5.158493392611208 -0.4807219862791011 0.1181031094930353 0.848145483542662
Ni 4.628790372259059 5.5288380346442825 2.0827925838679464 -0.8177013081201918 1.7395857732182172 0.3654882279140609
Ni 3.741945155810672 9.190313320459643 0.2528199681883895 0.956211006294037 -1.172015521695304 -0.471400194657543
Ni 2.829611247761813 0.46480214159935634 8.613187773966569 1.6418218895031658 -0.053472003776211134 0.24545524838816438
Ni 0.8677855021649696 4.234805930776833 10.784871940741098 -1.3860218075455677 -0.05782385298700365 0.4171332057838622
Ni 4.852911283089675 8.443307751710043 9.70021633670763 -0.6356036980530667 -0.14738103252154616 -0.015246127525793098
Ni 8.375609713523163 1.4028583723183554 12.111716841192994 0.49338415512780187 0.005160718265333047 0.33028494054005053
Ni 6.125522624569667 3.9309755961776616 2.9012425337215473 0.4737501829469583 -0.12863460515197844 0.5370463719024429
Ni 6.28769007292638 6.908021791903104 6.917607995361614 -3.8201723307320914 2.1007995421266403 -0.6886632968822075
Ni 4.726915421518968 4.403295161018638 5.025095549033304 -0.23793065787634504 0.20074556418561557 -1.3344768455887404
Ni 0.9169973674394563 8.782045316718202 8.045992006034455 -2.0065161607610214 0.009310992988280739 0.14159527907770453
Ni 1.0828296168889768 5.686497777656843 12.813718652522924 0.19555373557203096 -1.052125495505175 -0.11167303759697542
Ni 5.961760987737582 1.227717528093105 13.07147694018387 0.2657157984094134 0.8155914608660405 -1.0402076610216666
Ni 1.6814290653853536 1.039539153980193 12.76118006405644 0.36821102616186263 2.6064319184941755 -0.8862523177167123
Ni 2.287578004132913 4.732064467054362 9.143520223906409 1.9016853428968605 -0.41327346571813983 -0.7916143812251528
Ni 7.6870577222038365 8.787139390237202 -0.007021758893818371 0.040123607493763154 -0.029708839918342382 0.9789822385522817
Ni 7.177934392388345 4.129736083446054 12.300295594825297 -0.6278127412537382 -0.3278555051629515 1.979558401225255
P 0.3218254241651272 6.657065375070406 1.1346654797459135 0.21979178218378922 1.3538092273687652 0.6983278165551651
Ni 2.6503841503180823 2.8723336665012114 4.980764282614163 -0.013179731915067626 0.8054384315924386 -0.3644741848272497
P 4.076834679671383 3.8544453873571176 8.035827680203555 -0.6697746875078207 1.022256990080517 -0.606372311991775
Ni 6.377862503814899 0.3838521826608871 8.271942568810656 -1.4763112372604443 -0.10737338178035702 0.20805598180409973
P 4.6770008306349355 2.106399400107263 4.451785060477842 0.7565175375220198 1.7648388913580508 0.6918054420556149
P 6.248559159257932 5.914585835670423 4.221182032714323 1.133177980002816 -2.249761803092377 -0.655639019437387
P 2.81661036588508 5.947633179524812 11.249753791764222 1.6567119192411208 -1.7963837560438674 0.2092152922195236
Ni 9.027532017919883 9.040835245886774 5.725019418143611 2.0318189011918686 -0.6843183896499505 1.1064971282775202
