# total energy = -340893.72706992633 ev
CRYSTAL
PRIMVEC
9.05052711580830 0.00000000000000 0.00000000000000
0.00000000000000 9.05052711580830 0.00000000000000
0.00000000000000 0.00000000000000 13.24636127529016
PRIMCOORD
 96 1
Ni 6.140456967406051 2.006275643585712 11.234716419190496 -0.48813113425897875 -0.0926504737478856 0.6421322432002038
Ni 4.43101146832324 0.3188663684208101 5.95112627124788 0.3933715845878903 -0.8060950913398311 -0.5609887416506532
Ni 2.590523384179067 1.641883312641546 4.970459098684276 0.20839665297297016 -0.20178608963498795 -0.4352085752283344
Ni 3.3147556308256094 4.391786482919832 4.871230022204252 0.23157489086164634 0.25271527238468733 0.3572252165743202
Ni 5.180820505175142 4.59117865029927 2.4597695109392017 -0.3402924453747236 -0.15714171145273584 0.29304765345514694
Ni 7.420038620914273 5.850975851086714 2.602327081909368 -0.2977319463046937 1.1019987261865343 -0.7623899371423967
Ni 5.092976087010519 4.526087257816272 11.741972228928233 0.7090750277693402 -0.5351923494128396 -1.2803677224491627
Ni 5.595153645869194 7.987198965928109 12.584811636098925 -0.5766992104073746 0.0723439009800496 -0.4087187564679219
Ni 1.9651138453358963 6.605527364254119 0.45789875899996874 0.07237038334261084 0.14641738305669624 -0.45436226533864976
Ni 2.4405018433283767 1.5428433921825027 0.32244042165934395 1.3396535046936735 0.2126682837651305 -0.048994684731147875
Ni 0.3079831093189185 0.11864064747523184 4.960087194375945 0.5038572867449839 -0.4785764006910081 -1.09212080495119
Ni 8.724862195117028 2.2198861893843356 1.3430222298081134 0.266672763006044 1.1663634656158492 0.08939185760127186
Ni 6.935292377673264 0.7978465207064637 4.739111329444582 -1.195239010999619 -0.05454672489762864 0.5477005091821794
Ni 1.035217415877392 7.541026070123492 2.605678492175838 -0.012900253001435847 -0.23471960713821516 0.272371356052718
Ni 7.763062656856721 3.74882797160384 3.6796403104559645 -0.02135352597511161 -0.4755622964550327 -0.06447683952714703
Ni 7.629160105162345 3.8058191421357415 12.544980265365101 0.2279385796606397 -0.600005746343799 -0.3789140144016635
Ni 8.091343383795442 -0.28908922848639557 6.932045953523701 -1.3207787792763577 1.2137075021174515 0.27312751749245223
Ni 6.8250479043924805 0.8433670529134275 0.5767005058614906 0.9210485994602912 -0.901063671697932 -1.367399050238058
Ni 1.8830255625465768 6.275608491870539 9.316907870049002 0.15430192801109555 0.7411770505102074 0.34244728693419735
Ni 0.15013014717852616 4.7335524955648465 1.2625874783600957 0.008272267311121236 0.16161877338748296 0.33389065561343784
Ni 6.246501996010512 1.902981975286428 6.87312611561998 1.5104943109000566 -0.11259837762472222 -0.8780278729243911
Ni 3.51193946953905 4.3563717695180015 0.39438487342878814 -0.5740406897386049 -0.10098778996898738 0.856795445908176
Ni 6.327658074485906 5.604529992172362 4.7078363272387636 -0.9244108310643047 0.3466317573291901 0.2909681452182989
Ni 5.621020052948784 3.095090282250132 8.745764387961783 -0.3446118986856839 -0.33923315087227385 1.6271756003449012
P 9.479069788246285 5.630939430891131 12.31593676038099 -0.23194847215098122 0.3127430750015453 1.2980247734092936
P 4.1089484536531256 6.21830055288245 12.700704543479908 -0.4059887591312686 0.36343314515724506 0.5831344245097569
P 2.4509099497459865 8.750610945341462 1.374230258111766 0.26308453143415333 -1.5223789781527846 0.6099320043185753
P 6.494966122517147 7.7945403908744995 5.761001843843775 -1.024560698513029 0.7638773203212006 -0.3048305050226879
P 4.545563992608181 0.9296430146935539 12.386924571412747 -0.1680475597319622 0.04071856076528471 0.3140036868815237
P 4.064211697112045 6.108074180656306 8.244058361576462 -1.0190209996417225 -0.1616570828245861 -0.5995087521027223
P 4.570199527972297 1.2449995886197995 3.7754120854998785 0.771070238525214 -0.6904682113014302 0.5506120264020194
P 0.34749499643835974 5.558136989131783 3.510034333538261 0.47354500891468765 -0.32993424206885114 -0.5195803539071955
Ni 1.436164826665666 1.0818366821009626 2.9316585750699016 0.15813852814836635 -0.021921739773755795 -1.3206949613132997
Ni 2.0517183412577267 6.510361069487889 4.702987959753622 -0.9730275636307437 -0.46126259200290887 0.07925888293232802
Ni 5.940440313641556 5.674581073626533 9.212751686496155 0.6116849824539401 -0.4005267075754328 0.35672025191344375
Ni 8.213244936263946 2.2034051791352343 10.15805211345272 1.5542987096795167 1.2048711347727443 0.16741301147175683
Ni 2.3599430996560797 5.230335940141004 7.130595516809679 -0.1327961927288358 0.2289557080712444 -0.4294878706944733
Ni 0.2224013229842101 -0.0020608050706866655 9.321213205894965 0.25600936975492683 1.1137926334976689 0.006752745342801274
Ni 1.1570918167639384 1.1318046434328075 11.58652580200214 0.7750441355712975 0.18112264774836548 -1.5191710127384483
Ni 4.181153560609376 7.091748843448232 1.6547223906972164 0.019619831113456533 -0.3648896750981135 -0.3659420276220278
Ni 5.583360808771676 7.737006188703417 7.814028891351924 -0.2721209306048088 0.8171716608689668 0.4585081691862232
Ni 5.383733327681927 3.231617486867209 4.729639952604558 -0.38360293523690064 -1.2544067796090266 -0.5045350295382989
Ni 0.9593106432474006 7.6873821474097195 7.452072057309479 -0.5125219043985173 -2.2249329169741547 -0.6644316780283525
Ni 5.184341160302491 4.620439005123731 6.864198675471867 -0.5733004691384707 0.3703869507672589 0.24715063381271632
Ni 7.98425754454922 7.1025732741225465 9.24209259101376 0.02012119622990728 0.01213252159747588 0.35766590365616463
Ni 4.39156927026416 -0.08055059819770923 10.094826939703037 0.6510161759533949 1.5597175667022427 -0.2071542959254368
Ni 8.34639629419079 7.0269923204760625 4.769710257259622 0.26066872290380916 0.7327973110869445 -0.44469517456253094
Ni 7.390932125054245 6.278006881610249 6.9388809117555095 0.2649424105784986 -1.3690160170161907 0.7011614293492183
Ni 2.43802199884279 5.2123344413021995 2.5738876099127994 0.019307442079360294 0.23524179819027227 -0.11424979718521613
Ni 2.547832046812229 5.139559151124811 11.480648208153092 -1.4728880705115086 -0.12432955001872137 0.2109685274652044
Ni 1.1784872633476156 3.407831253780996 3.914021816453209 -0.01789436378191757 0.28274627152913884 -0.7948853386669407
Ni 3.4703432459778902 2.8557309862270746 2.86235325706687 0.6070464552406643 -0.010639996212349418 -0.3518480114228069
Ni 1.0999920399042011 3.4522331408112503 8.457961239407512 -0.38452827526464745 0.04589881941464353 -1.298867066804931
Ni 3.6820803326213447 2.5456961223647894 6.998039683580469 -0.06928634510064842 1.9865723706492433 -0.6082541023955202
Ni 4.106414306003621 6.763875390238896 5.927707126755526 0.5809852393772381 0.4308040184027355 0.19792352135578814
Ni 0.620870699392361 7.681915628908645 11.571027679019954 1.268303849306093 -1.001298899771611 -0.5437314972321023
P 0.17840399452514513 5.6520452606005795 8.070584189282336 0.5314858470955299 -0.2504228768060848 -0.19040484438123984
P 8.560504618991995 1.7476568254264166 7.954227894902587 -0.7142614570662861 -0.7227666663238198 0.13847010318516154
P 1.736560878932513 3.258723816189592 10.478958470731381 0.3180863415913296 -0.891996419289341 0.42303928685565206
P 4.3061503934212055 6.21137689948291 3.727830748222228 -0.7318490882410622 -0.48580197190516977 0.14430984979539016
P 6.91539026809733 4.050898371424824 10.415018305323445 -0.8749939711940737 -0.022381195908677584 -0.4148063574228985
P 6.154937811117508 7.753550552643757 10.384591337527478 0.5348395940591111 -0.8782669855183907 -1.1701689554048686
P 2.1673659793483466 8.392888853031884 5.704744671077498 1.2012782752151634 0.5480638060588691 0.8557130114772747
P 6.957393765387874 3.9091309114896644 1.3484534512526414 -0.06098476721348852 0.021746904758788353 1.0957090365230806
Ni 5.156990466742476 2.7028585292706913 0.3021998223616555 0.4602462349232525 0.08824874513576414 0.327844449419358
Ni 1.4690091903087135 0.9724701099701867 7.055846306623871 -0.5737504121916958 1.5065960042869149 0.4189697447719688
Ni 6.7631332469986845 0.7265790483805301 9.161898583592448 -1.1089931552264964 -1.1643605762532077 -0.7502880116725401
Ni 2.7105695785470423 1.684656104754261 9.159845923996349 -0.23802990245837066 -0.8259545492679194 0.6030260212273614
Ni 6.275970512963325 2.009379974456355 2.5262664503149423 0.25385272842324025 0.8611496091118136 0.809589991866967
Ni 4.0549711087186715 6.579190329753907 10.48383308474575 1.0068373130913368 0.297860501462758 -0.8602476661228345
Ni 8.336657926794835 7.041364557859683 0.6457650798378187 0.31478170269812883 -0.2830841144845318 -0.6113409688509601
Ni 7.74521501698235 3.9530712216266157 8.075101307467579 0.17171703816374942 -0.1358745745438434 -0.2014690726152014
Ni 3.1135805095641986 8.140560151359754 12.02454326763901 -0.7866683500737871 1.0364391951181697 1.2574720487979119
Ni 0.05471858312193461 4.703758159628525 10.363264674951433 -0.2664997277632894 0.2018125719975492 -0.16351290508640226
Ni 8.800497451927429 2.27386353431879 5.611675383491234 -0.4040645455253622 1.3137676380658472 1.2544003518511235
Ni 3.599783887703673 2.663778352304398 11.398759036964805 0.04157833766241872 -0.6212173474244075 0.760083143386091
Ni 1.0694736617823064 3.4167007705542636 12.6296642393897 -0.038517439348907855 0.04377380265184074 -0.3211495538976856
Ni 3.017264797828373 8.454007064021551 8.05800033609708 1.6362677924541562 -0.8262157733491061 -0.2564593128081519
Ni 5.775720716423738 7.9671973005516605 3.682660471422535 -0.8735816642275794 -0.2785435463017009 -0.4320049806893721
Ni 3.2671046044875975 8.435281522997174 3.754906305751724 0.23594293802235491 0.0672034944296907 -0.7258170231143694
Ni 3.5538886636656755 4.006994263397152 9.396836697019852 -0.07352995086835079 1.61006979390255 -0.5504695872868842
Ni 7.3575718813539766 6.108019877492389 11.648399732022998 0.40502819499021214 0.6021315344375501 -1.5275962606876659
Ni 0.4319210304343476 9.070528985036816 0.44066655498333535 0.28533074442686346 -0.016661519816080984 0.3533289668437076
Ni 4.78039802497141 0.42168397898307974 1.4575503176692912 -2.0120931406281666 -0.22765472987163374 0.6873857157213645
Ni 6.132311492818357 5.725499340326943 0.30930629641305285 -0.5455340976584798 0.24095067564959147 1.6062869298213498
Ni 7.714687588333136 8.81729523063272 11.426271734963843 -0.4012936676484444 0.6381367488875654 0.06943572619431912
Ni 0.1174025353379023 4.919785196221499 5.609198254163843 -0.16422767176523975 -0.8421717824577304 1.4654748087665728
Ni 7.917908128768789 8.603295512159349 2.7408309216930586 0.5471821747848641 0.5357795893748774 -0.2893812603471532
P 8.4249820229074 1.6142158506253441 3.425985706531503 0.19146748131779928 0.11763336894546837 0.6135734577259047
P 1.8476380007267048 3.2536283693086228 1.5476655131384178 -0.6103359246252134 0.3070853624951356 -0.05986967977243883
P 4.588255329975019 1.056377548750758 8.033136727444509 1.5158157231129699 -1.5814773269768376 1.9827414269389272
P 8.300890242827537 1.588874374130295 12.463435014214959 0.05883738185318253 0.49350962496207273 -0.5363002377650377
P 6.450437528104418 7.816650829116429 1.3702036785072491 -0.5383656049344987 -0.6195456161489394 0.6897069076553736
P 1.8116893062130137 3.315588279339018 6.22695557215824 -0.7563517013681167 -0.24659296153703333 -1.0192197459160897
P 7.007017806681572 3.894704370942126 5.933284061689902 1.1815573997474682 0.04861956077991627 -0.03547351031626148
P 2.184380970709308 8.668377854115027 10.062174447239167 -0.4823986026505756 -0.7303912727486132 0.817751958852469
