# total energy = -340890.6820923979 ev
CRYSTAL
PRIMVEC
9.03056233933150 0.00000000000000 0.00000000000000
0.00000000000000 9.03056233933150 0.00000000000000
0.00000000000000 0.00000000000000 13.21714080684078
PRIMCOORD
 96 1
Ni 6.310629334834368 1.943891796786015 11.10787004331631 0.6461763313625903 -0.6875404961316739 1.292017390872949
Ni 4.535970279709576 0.3600810377749706 6.0955601669805155 0.20672800702129557 -0.21478944387319138 -1.4360919847290816
Ni 2.5823977199000376 1.6612171287241362 4.622893056208293 0.38069707444401535 -0.3099606271604016 1.0422048939573536
Ni 3.51148005328264 4.110973946301866 4.712757086920405 -0.693458918498638 0.43449843653518716 -0.03218455515234458
Ni 4.91029612680666 4.495558512423878 2.413159559901301 1.1816463599168487 0.9786320543017146 0.8046689004162657
Ni 7.263091794586281 5.957118934350363 2.569980696432365 -0.4417592318626586 -0.1262733040086535 0.5784799564568812
Ni 4.891548679011105 4.590478755092027 11.532259522922548 1.1492733429027822 0.16644216291805528 -0.2910365365623891
Ni 5.84842708383625 7.795398302442248 12.63020705407173 -1.3061288905736668 0.20748802511577172 -0.6589063773347491
Ni 1.7668927713559202 6.2556693313258185 0.6454973846185115 0.17213998463378097 0.5555400598312561 -1.1884878083187145
Ni 2.88051464987444 1.5996467534495245 0.17874734233434297 0.00213632961671245 0.6005186814244754 1.5346989331707181
Ni 0.5679853573239129 9.239890961202258 5.1165532717516 -0.026655140693683126 0.18053206535221814 -0.6506891316312794
Ni 8.608302448980046 2.090376551454462 1.3339134206788121 0.285595825162792 1.5234652692384278 0.14965157372327775
Ni 6.971567175252899 0.7802722088647543 4.974231606405769 -0.15788656003856033 0.8063804837907339 -1.6242779670821317
Ni 0.8393971078084236 7.254765615941049 2.6784142728583507 -0.4358025000585914 -0.6591128369186003 0.5869810519493568
Ni 7.629840999727455 3.6946740446027877 3.9377433746121784 -0.4524953873332401 0.36792254838716637 -0.631129464331797
Ni 7.477034851293648 3.7152005132151658 12.510196296492612 0.44310469014695947 -0.055554083116220454 -0.18215545988825402
Ni 7.8869862675397995 8.934387031084906 6.915340183822521 0.7641151473636195 0.7387802681432567 1.4029949450647967
Ni 7.213703648153772 0.4559142703140883 0.4196890718135638 -1.4096960112340562 -0.7965308446901637 -0.16370522360286646
Ni 2.1194459322125985 6.246927746804578 9.17625168405387 -0.6302845998329983 0.5036747384205326 -0.2391987259554913
Ni 0.02457306367846075 4.725810765045875 1.5909602553596671 0.15508765713718453 -0.503383689542675 -0.3983494974184559
Ni 6.2465665243037005 2.0543265458668634 6.942792190832977 0.5241949698610714 0.27614342150064053 1.7203827179272049
Ni 3.4079265928435123 4.249611142138744 0.5056175833786137 -0.2752823590519259 0.07943628905045674 -0.6258707870360188
Ni 5.9545542545941315 5.6534211167374 4.692362464520848 0.4195405296737742 0.5654004975651037 -0.24496133947088136
Ni 5.277903235387419 2.8388115121481046 9.253941613430152 0.1338904542342791 -0.40907305448354714 -1.3479651098831624
P 0.10594294728243361 5.806173081796076 12.384303030486699 0.5826875667803254 -2.454159876428915 -0.5911688647784593
P 4.044707678515843 6.26264092559276 12.693623276325825 -0.24726556212402578 -1.6589063557892787 -0.4124365716391413
P 2.145481043963362 8.295185754656694 1.388791246068411 2.81340238054358 0.1264075155936726 0.08202307594102648
P 6.4481738326060904 7.859072798784472 5.802708054956406 -1.564209026814693 -0.7595959193370273 0.09261653518615662
P 4.7479988571622895 0.9587116090170991 12.257392020084566 0.206130996867245 0.24104760623877197 2.0989187801641593
P 3.992032407325347 6.06364344985921 8.17180117891938 0.4771671790483073 0.6412531830293601 0.2293431733176502
P 4.696903934413133 1.2334122903721016 3.9290857743223913 -0.3555059198903684 -1.4826628905100854 -1.3364735643037953
P 0.06723253797587016 5.512815258270737 3.825635262296014 0.581079084642625 0.2969765561959079 -2.5930899499696314
Ni 1.2553475267379026 0.8418299413518352 2.5125788288178827 1.5300699190391391 0.708181055200161 0.20787729013439035
Ni 1.9198705004776448 6.6633631069414845 4.903559327165291 -0.45052257987758537 -0.16295214748692582 -0.21828383017969502
Ni 6.13473203803195 5.704109664173069 8.931509893865416 -0.9575677774322476 -0.15809327673272772 0.5768087394020452
Ni 8.56905562425968 2.507877517968959 10.270723351688357 0.24379482996660592 0.42967736099746 0.6032211679573031
Ni 2.4634200586734307 5.265486211919746 6.824618249670823 -1.4384504576589292 -0.46916024958343067 0.5531934139759506
Ni 0.28916312723389526 0.3029491839798944 9.301655493571094 2.5767781001834846 0.5953188823910909 0.9725714499299316
Ni 1.7451200851155142 1.1634164002645166 11.483739213548397 -1.5968322121663532 0.15758316986552862 -0.8358113874573412
Ni 4.127292172779018 6.782936785294541 1.5686105161741088 0.4272412407521416 0.8403344721386754 0.47739086502333905
Ni 5.447334649424125 7.779341962278233 7.845734657939561 0.013187188114235355 0.33337669209149684 0.08852231051212496
Ni 5.555818797000233 2.8611531238273926 4.90424655297321 -0.955313177070116 0.65946019295569 -0.9494726591289391
Ni 0.815507657712874 7.630256405603466 7.135842138089575 0.582068702249404 -0.13944789371739857 -0.2573980225723373
Ni 4.821317994277949 4.634593053011722 6.834848070895681 1.5394205070161036 0.18133707775201674 0.2794480603938413
Ni 8.276826621049583 7.48234482205655 9.160509607465618 -1.161284508431045 -3.077221990371546 -0.539983857264212
Ni 4.511018835461446 0.24928596924949667 10.275772339194376 0.1977761971446465 -0.108660990243529 -1.302644274459176
Ni 8.292494647025155 7.3586532071934885 4.753650183188522 -0.4192319972944199 -0.7977873428050841 -0.2280403953458266
Ni 7.666703755942029 6.498474065853317 7.016794941531549 -2.0978255470999807 -0.8093935595854447 -0.4635321047633759
Ni 2.4392091205521 5.233942457030597 2.694406496028461 -0.8321053993606636 -0.6848215545386142 0.2911715194783566
Ni 2.158430870619829 5.162447493544369 11.653923776499433 1.7364315438599516 0.4777976135434545 -0.3620329223756088
Ni 0.9768720702487277 3.3062153671588614 3.615945600536483 0.8197252805287559 1.0224683347603747 0.4803445483350244
Ni 3.6392354212805755 2.640762245479359 2.5257959601249995 -0.7427749911249467 -1.108476620601394 0.01419043256776911
Ni 0.7940149189106481 3.4419266607386296 8.14175920657763 2.695597004796622 0.07061534832471708 0.19222364275753345
Ni 3.5507449391280503 2.8289140156240538 6.960939106220823 -1.3457845572920757 -0.9327054669729291 -0.06785552619139282
Ni 4.1472587465150355 6.847234390450779 6.00997933207256 0.0948600798046947 1.0590489620978858 -0.6159314164351198
Ni 0.9640215797800019 7.285496620203224 11.011160846212565 -0.017313808688099213 0.6072657703403218 0.6684248583481456
P 0.3101329964661005 5.679889695489217 7.978659119925058 1.480775186569069 0.32764313204182927 1.107212666287306
P 8.328454346987535 1.7442621816759294 8.203905731741141 -0.9776110692363678 1.09178476176801 -1.414254577139016
P 1.7163487129206019 3.310568098294438 10.47643505065697 -0.060899920809166085 0.11975812859795504 -0.23682302663446314
P 4.026122780845684 6.14281439148909 3.841865892316703 -0.37583280437317856 0.34590259247264943 -0.2643680261322673
P 6.799336286834389 4.006725132548549 10.258536607564995 0.386604955288018 0.7143208495493117 0.8794802891002015
P 6.188057509724027 7.636117240680206 10.031823432395347 0.6098016493882982 0.28537393895997304 0.6555809125059419
P 2.4720261847568428 8.675264070080257 5.904770569523161 -0.38707135340147536 -0.42976297873273084 -0.3250347478847047
P 6.7820788818549556 3.6083418668930065 1.6676595320272907 1.0783515190812396 0.8134841847150506 -0.15098726181556577
Ni 5.308643270212114 2.6170750799843012 0.4241312055181078 -0.5237493976832206 0.11020879434662309 -0.8244982764373671
Ni 1.2878936740669873 1.30700234436342 7.253461602712882 0.7089657558849854 -0.8300788558489383 -1.3831845952070887
Ni 6.699927854592835 0.4501726386626366 9.001850751461339 -0.17944320316341356 1.1602177577294277 0.47134902970463344
Ni 2.5143795229847585 1.7148225478543935 9.237975578891355 0.961685656255363 -0.41854756963288564 -0.7086502815270956
Ni 6.352467930998532 1.5098107174812296 2.358691722050198 0.237720598748068 0.9950570326269573 1.8130365341092003
Ni 4.186270776609832 6.680728878671182 10.435170798269203 0.095508512021971 0.7085371529879991 0.23555418722436855
Ni 8.131235892070809 7.117347546044633 0.3329225240464774 -0.3276940398844227 0.4900226948547367 1.1737654145068754
Ni 7.752042571774397 4.16084974311056 8.17761686118351 -2.269866801372368 -0.62235017547727 -0.592667817921489
Ni 3.3262451548325322 8.314095752577645 12.541943239038504 -0.8532900038580788 -0.21495245181361688 -0.2503637414333753
Ni 0.3385368247663697 5.025941510462671 10.135881701279452 -1.7973520334944075 -0.5242078253768778 0.1636412031341504
Ni 8.520687931392148 2.4825106678448194 6.0267779844758795 0.003201537656433196 0.5996797304629479 -0.3489292951141152
Ni 3.6875308696479303 2.731085931823839 11.220784584865687 -0.007013455203355662 -1.067637475097845 0.9046691296610032
Ni 0.9581788058283044 3.319002643689934 12.630961106042312 -0.36916979053070614 -0.1770929577636821 0.3413152302122831
Ni 2.9397912622684776 8.236189089700837 8.054631436309664 1.2392650388715818 1.1282736007226633 0.1910918431459354
Ni 5.612232721074815 8.114339709592251 3.8187756470043452 0.02817337711042245 -0.36684474194195527 -1.2342742705252099
Ni 3.17894764953711 8.289993181206576 3.6719730165351256 -0.16487147599682572 0.6077445097489532 -0.3320618299348152
Ni 3.481959144398406 4.185448995420335 9.302647049336002 -0.8440970245049012 0.7948411156925667 -0.30997785355158225
Ni 7.1312455817659055 6.087348676479312 11.300893801941596 0.3800216456435455 -0.809961773384089 -0.15991721731534395
Ni 0.6685795024245993 8.920895370677123 0.04219981866504247 -0.17585240048836165 -0.05006426364624281 -0.25593506487356565
Ni 4.473253022994678 0.29484515717270215 1.5286547922957694 -0.05016042290447491 -0.7621479963349197 0.10324676120649315
Ni 6.070136424312488 5.38282031076736 0.30978170758399687 -0.36490124506233934 0.4948203733536963 0.9436560524471619
Ni 7.9926619101715835 8.550904193590572 11.217017937237785 -0.8579005060468967 1.051477577508531 1.329913137477458
Ni 0.15760769852672518 5.085028481043747 5.803263434551505 -0.34064108696339396 -1.6082383971207657 1.3083775773985273
Ni 8.145449997480348 8.788742118731001 2.806712377663856 -1.4861097114081052 0.12423390498112152 -0.8008850078938013
P 8.684809374665951 1.6662652131739026 3.7363139683914697 -1.680465312906977 -0.7477727014498541 0.42328431298692265
P 1.7134047495384483 3.176057869530088 1.5638387669375138 0.36158220799143537 -0.13864545242076123 -0.9286310397932394
P 4.456916735392482 1.2098786444399168 8.01794116383926 0.4304638614544974 -0.7418211118521094 1.697571119349328
P 8.436559210937721 1.478203748654427 12.301642679498341 0.7617317347331075 1.1558579380988352 -0.8184826663709065
P 6.397521407420509 7.639223754187754 1.5700770795276724 -0.8999287867625404 0.7772254594933324 0.4195729255736064
P 1.6153599322377066 3.4077821038431613 5.90333019480091 1.1073821019856347 -1.1413530596144408 -0.01225464899763696
P 6.747103513207469 4.228994367901147 6.06180392427349 2.1734036387466116 -0.4399234642055004 1.0696089970019194
P 2.451138493643587 8.613504052992685 10.20893263068821 -0.6210252860182596 -0.6718022594608107 -0.4109499597912858
