# total energy = -381164.76980680076 ev
CRYSTAL
PRIMVEC
9.32107786922986 0.00000000000000 0.00000000000000
0.00000000000000 9.32107786922986 0.00000000000000
0.00000000000000 0.00000000000000 13.64233965061492
PRIMCOORD
 96 1
Ni 8.173168281451268 0.13047830893998863 3.1570145067388 1.0303086567403998 -0.5059280532310835 -0.4434332771309718
Ni 0.1829205559258985 3.1191215298322166 10.909614833224202 0.5641645682754736 -1.6556035166682905 -1.1683673834197554
Ni 4.91079110945801 2.3781331422185708 4.397389881793668 -1.8611891825550266 -0.8503414627527162 1.4376852973581304
Ni 5.363581097697772 2.9197157160023544 11.72385850207331 0.4058067250274496 -0.9410337843329664 -0.39097763043441697
Ni 2.3207619093796605 7.62947914412214 0.5499659510080428 -0.24999427390909845 -0.00044814328101213145 0.5612743912118722
Ni 1.9230501688807797 2.257872598581265 7.310575250805456 -1.2975673741569007 -0.27527387441149365 0.41043136828365445
Ni 1.766017973976293 1.7667356969541312 2.998094793613374 0.3396345000757505 -0.6941554303450304 -0.6917805023549505
Ni 3.5571748943322024 3.5732537532513122 2.931138696643148 0.34711229651003445 -0.671556976219224 -0.786368045224549
Ni 4.065397331262947 6.05898009460222 1.3295957980623034 -1.2009522593343123 -0.5725707900612979 -0.4937911607582335
Ni 4.857204234138613 8.545526690784945 0.25456235862287047 -1.0780851527937303 1.1225117585382216 0.06424878267674097
Ni 6.653152188398535 2.5755442454347 9.430212539639495 -0.06963447246868652 -0.29006208846426174 1.189508793384061
Ni 5.959990250126311 5.165573445513049 10.739044705163707 0.714121331943996 0.23142653820924014 -1.5781251226751531
Ni 1.9580321732421817 3.922505211129642 9.433746160170646 -0.915653653696965 -1.069444960620229 -0.6358973180340854
Ni 1.0912185586435732 -0.46061969345254516 11.501078221859999 1.6240907907719901 4.043595539020881 -1.4719460183132136
Ni 0.5670785174367925 1.2101368671015447 5.003860205420634 -0.7174010311365322 0.20028070873405507 -0.16187176993855348
Ni 9.47254514582328 6.134098659256774 2.550722215694648 -0.05385612658850724 0.7196780000961669 -0.36066715237633373
Ni 0.04713575748872201 3.5679873443879515 3.009090868898518 0.8867845360710986 0.5034004017132234 0.9446238156770699
Ni 7.650777806516439 6.384313667271022 12.675875155218987 -0.8897099372480097 -0.14432913306909984 0.6220323871265352
Ni 5.578953917515133 0.16825943291496084 3.392549749586842 0.3922606109118986 -1.631954252680467 2.010595215926402
Ni 7.567885463114908 7.744519884284257 10.271303708398582 0.3901880446535861 -2.207700869366585 0.3208595334610925
Ni 2.007685553799919 0.48082126500929084 0.03238794845578563 0.356212973259722 0.40774585103169136 0.7054415447818109
Ni 2.053685071925024 8.935268909906528 6.878931059286791 -1.2403251047049801 -0.943064184499434 2.904470854516327
Ni -0.10833608901978867 0.46279989351120004 7.614212151064976 0.36738673048835435 -1.73606901831421 1.1695524048667922
Ni 7.640655116205625 7.369299904116861 1.9732003628764236 -0.8628359956753012 -0.35349994520393313 -2.488391801028592
P 3.8017320082224515 2.36397442529212 8.97937438505635 -1.813895796785702 -1.7985537671119927 2.7422198468614836
Ni 5.272868370161091 1.901956570194435 2.190168019077007 0.32036279633033216 2.0511579678401124 -1.8407715381306233
P 8.45904573249422 8.448177355972666 12.006895820761104 -1.6740804924265555 1.4974567609898084 1.5540500840038203
Ni 1.1883348665149953 1.3112798805109698 9.671272385201368 1.5211872718375286 -0.2310521855889569 -0.5118117657053702
P 5.932036338301145 6.7833303586387 0.5863153574583917 1.5616970590261168 -0.6633371594125931 -0.06130666932928151
P 1.0557798214780922 5.440452024947567 4.240585121183457 1.0711017794973618 -1.0928545977934212 1.23357493046534
P 7.496569898135134 4.485917748732877 9.039468304672228 -1.8482357077181526 0.1121008691630134 0.7694643274906748
Ni 0.5267313007891068 6.944240121839043 12.045694806413735 0.6399385779829947 -3.377635083052828 0.2696411016057485
Ni 1.6637564312507558 4.196712672974492 12.39986313274414 -0.6090781409587124 0.2919006843348973 -1.039466669090584
Ni 2.220886562528496 6.8086091211828315 5.783532929432012 -2.8661182228800577 0.7414552438722586 -0.18955792299991223
Ni 5.090203211762371 7.160172206314459 12.087781336147977 2.584314774880162 -0.9362358487236908 -0.7930490567891503
Ni 2.184525038677222 1.9284563939086543 11.91115343973297 0.8116209062540668 0.41204010753167103 -0.5851023468694052
Ni 9.240720623981439 5.4784540584624715 8.405509190994048 1.818178740431772 0.809408214873464 -1.651791599121368
Ni 7.318583920708817 5.116852172718739 3.583965535668611 0.4911030724031091 -1.199251988813754 -0.1967238446207322
Ni 3.309374045425229 5.416422286806428 4.376367123297344 0.09027014644116711 -2.568508403975525 -0.5953299381346844
Ni 8.890546379417316 5.94742543747532 5.803274039753625 0.5414244463654805 3.0925190257399318 -0.37456910716940656
Ni 1.9729272553017394 4.882725344701234 7.185638322519038 0.5475215604021538 -1.1206855039627601 -0.3213758109758788
Ni 1.9846065655774754 6.074975063822622 10.493373722496164 -0.11360933538773983 -0.3019711811970219 -0.4301170196380399
Ni 4.353754188956613 4.202230750933977 8.714371487375336 1.504578459636254 3.1822890926162293 -0.7262379127018718
Ni 8.648720341273908 3.987892570734021 12.822530194393245 -0.17435473289691264 0.04099032636943263 -0.6246837087064532
Ni 1.0562551964374398 2.7828356909431515 0.9232620607517261 1.3333990391435293 0.5332352256864686 -1.6235655143961392
Ni 8.833156504423139 5.241335164524367 10.564681830613829 -0.35882881361601426 1.0328573913041825 1.8711020707933648
Ni 9.329559814913631 1.3599265846842066 12.775886589803612 -1.1228894535926146 0.7266750002392904 -0.796199429492674
Ni 1.8743288960864692 3.212192490010367 4.819769854251636 1.207086140146192 0.8876561400427745 -0.41603791583715444
Ni 4.536866759081778 5.876044624952106 6.7489747306943215 -0.24323921457345204 -2.566137846860819 0.05117909397697637
Ni 6.612456363447327 2.7423542507775323 0.16585273066979322 0.9793473352011842 -1.2444249858059664 -0.7988993449223403
Ni 2.728931898984188 0.5087882263431439 5.1474868264715194 2.3101847842651244 0.751241633835061 -2.471416606626834
Ni 3.6313799933785975 0.18399993671594655 9.143532543812233 -0.6125378173725387 -0.19008319937576296 1.399826317528828
Ni 5.501924531945554 4.201559633344311 1.3752979738108753 0.05186532141072358 0.04415124059591751 3.2224954896317857
Ni 8.301836437114682 0.6828453695466183 9.984323573871496 -0.699103518378925 0.5019233029470646 0.41489146093753704
Ni 4.208923284675381 1.7484384215580664 13.516106920620194 0.34496028316403815 -1.2824408029281076 0.27598067067053117
Ni 7.232270741815509 4.9696257514855 6.98610574203335 -1.3198894346928687 -1.2968135267100118 -0.5486564453375454
P 5.195065335147869 9.333847510625397 5.651843812507333 -0.4636794289745176 0.02621908159752904 -0.6998139141823883
Ni 3.206143110625728 6.031809153298334 12.666994032449058 -0.7076665774575877 -0.2960532730506901 -0.20168607372201394
P 1.1964628462120759 9.11490471807411 2.271435698646886 0.6248233196081109 -0.4692702927987338 -0.36997583137176926
Ni 5.305119298775653 9.362183586633565 10.975357325886447 -0.704138252589355 0.011243948344935474 -0.8054739128160644
P 8.532458539941702 7.429905550894862 7.652301802709641 -0.22190780008552752 0.40049071213117476 -0.6624997511129623
P 6.2139430102719 8.75677959428796 9.096152574089492 -1.7366238623764154 0.8458407466688851 -0.5601744732794739
P 8.430252923681971 1.848369694875037 6.387875251035075 -1.1047626620849167 2.4979120818142015 -0.004220465839250796
Ni 0.8599216097958319 5.777399660348665 0.2287504304380598 -1.0447685409194718 0.03728073872832934 0.2655183376866266
Ni 3.5133658294511503 0.2179687399385038 1.959039781734446 -0.2668283147473018 -0.00568702308244827 0.2731028349021038
Ni 9.293524528779558 3.863325689229684 5.913913367056842 -0.45331016992505163 -2.5152778267861584 0.43982473384410703
Ni 8.958646172613268 8.868557957278082 0.6479071742500975 1.0958725586841385 -0.9260352540416051 -0.23504665146033069
Ni 6.876913978086736 2.906367932830085 5.187785573515506 2.142358596515349 0.7567625636532902 -0.6046370744682231
Ni 1.9744372698784909 4.742489731693696 1.7778967553134022 0.23278768022282487 0.25343749526269255 1.2724371547481763
Ni 5.513678410842365 4.94115918039045 12.97893974131176 -0.013678783038673217 0.602667095226046 -0.7148371270640979
Ni 0.9223327493115898 7.933103926980736 9.222671289250444 -0.11249656193953528 -0.03410388366224449 -0.7658439571292681
Ni 4.12126787060274 7.389619853359561 4.91684887781252 2.74723426935694 3.2374163726076763 -0.24430570816475344
Ni 5.850803146718514 2.7996602360730023 7.289524529076227 0.39269692711836884 1.2753029063317456 -0.47315368701354
Ni 6.442719539727336 7.282436781643131 6.371027403211139 1.1867559132292722 1.2686931143247118 -1.9529379704242498
Ni 3.293649387456221 8.247205601100246 11.545756943284328 -1.4522894204245502 1.1173695522156497 0.4212688252187906
Ni 6.275751076064721 6.592388083300753 8.440815568857122 -0.21075641145439833 -0.4783288034565762 2.15098619028336
Ni 3.4257383786114115 3.838102853151359 0.09658966698508609 0.3516865461442782 0.09901703939586173 0.4408305494008021
Ni 3.613968220357788 4.2612984199023245 10.93526271044265 0.6839484079050415 0.38678853205373387 1.4228448899111883
Ni 4.312051687620905 8.066022494045376 7.245596154401457 0.4164644618516118 1.3251689379242533 1.2522665933375725
Ni 7.394308355409598 7.263095545552029 4.13079121562167 -1.525888791078256 0.6292636147676517 1.2946270605816543
Ni 9.064272624364776 8.267152707237576 5.029835252464045 3.0146089435260146 -0.29400641782399045 1.3434129717361056
Ni 5.322232797312165 7.231347955129717 2.823691838429668 0.22651495984023567 -0.36622459185945316 0.06493038212479785
Ni 8.118090033710388 4.672730786678845 1.1411422504527042 -1.0698709924140544 0.4454899025496844 1.7044344221280647
Ni 9.051288363220243 2.930984898862182 8.412439412215123 -0.2532490334009703 -0.22294935397616442 -0.44399377762013215
Ni 4.134196205281467 1.3762943970099784 7.241244143254018 0.3018768217110027 -2.645520399855205 -2.8067560788716563
Ni 6.824781190878283 0.291830823327958 1.1678070572410504 -1.6599756775940573 -0.4404608247662091 0.4962871877072098
Ni 8.494018415777989 1.7583653692385601 1.516632541871494 -0.25811433191307165 1.071084038885549 0.39927200923272527
Ni 3.971869638280717 7.06631827561503 9.695269499570786 0.8507420406252446 -0.47179794431659394 -0.9314340564596733
P 7.28981907512947 3.1171641035290207 2.7727232538177358 -1.7283716496699524 -0.7037628715278073 -0.7650129765875405
Ni 6.8336641778637395 0.4950545505568157 12.485536885711738 0.7837635177221663 0.5806785067700967 0.27968588743626027
P 5.594650612251238 5.677766661515991 4.673114815077378 -0.3055542705625899 0.8350847937039618 0.5951540746784525
Ni 7.336070262350701 0.31169217555105294 5.339406882853302 -1.3465654013221584 0.5702200304409342 0.3649894339007714
P 7.574354290993089 2.480357400633571 11.605510643566557 -0.9535537711768483 -0.7482452702108985 0.18989422329340847
P 3.512899775569437 3.164431288212386 6.208860226637935 1.1483873407534029 1.5426492983660465 -1.0408931171244653
P 2.5753671449596487 6.809858145585823 7.903021081023904 -0.2186062465161203 0.7233701042357735 1.6097751454802662
Ni 2.8190853618628133 7.298226687155579 3.0038794543931995 -1.6430138529287384 0.5535991340548014 -0.8757087378729111
