# total energy = -340896.0463116837 ev
CRYSTAL
PRIMVEC
9.02688410591062 0.00000000000000 0.00000000000000
0.00000000000000 9.02688410591062 0.00000000000000
0.00000000000000 0.00000000000000 13.21175734043531
PRIMCOORD
 96 1
Ni 6.413781769719329 1.9362395826429755 11.3799609340957 0.9675385154917143 0.6769658059396212 0.662269380269711
Ni 4.694873451344442 0.30222549952044275 6.109803249285078 -1.1104445429610423 -0.3112127543999479 -0.06214150652575104
Ni 2.702423460718522 1.4070926570684985 4.724233392241268 0.12490007781021072 -0.12508751123066844 0.6033288971797609
Ni 3.3426913309324813 4.335161142413596 4.879247561357556 -0.07726936330612498 0.10432173943822678 -0.3207579748862218
Ni 5.077261293413744 4.5002628546358645 2.7229433739073494 0.033787123752774074 0.4065592869227579 -0.4523022974858275
Ni 7.020027313341395 6.108041201487057 2.4477551979761984 0.6535548832148487 -0.554112069135478 -0.206112999145116
Ni 4.828579660280268 4.689177487407196 11.233825608289518 0.3558954420193032 -0.28843355172190327 -0.004583505605624365
Ni 5.604368143156497 8.000608718316402 12.447840433588494 0.36111683831924263 -0.4203337149990309 0.1395679642350306
Ni 1.9251274881790275 6.404971530729228 0.2334568902229201 -0.030917258404146754 0.8658956084372315 0.528663032934754
Ni 2.6201253573653003 1.4379736279549054 0.33987392549996254 0.9746442732985602 -0.44452393909198923 -0.9747951970541278
Ni 0.6090122836327888 8.815465556058566 4.682708822181472 0.19695267280208661 1.0137466386166605 0.06289586819327232
Ni 8.676144625143396 2.46536845444903 1.5985962002315925 0.04678585000528716 0.1404115431822485 0.15546200975746774
Ni 6.745646140858722 0.7231671640556449 5.003596502120084 0.6789103312605018 -0.005647685204080596 -0.8524181427760869
Ni 0.823910802605968 7.368717796650406 2.6284264800858903 -0.307805785600928 -0.5388353454820656 -0.5768372786471356
Ni 7.694759827473596 4.013822118264425 3.8035462666957853 0.12821808643985014 -0.2973100282759267 0.028332271285789915
Ni 7.648677583575581 3.7797820913214637 12.763747078819382 -0.5882123532532967 -0.10916312669092813 -1.5846423549683806
Ni 8.112370571734877 8.820674068248412 6.990763960105629 -1.467156824454686 0.49307665118971217 -0.9148388711051535
Ni 6.820406795895618 0.8640659943309291 0.6190068498313944 -0.14890749646840162 0.16334166961586064 -0.7181055134027245
Ni 1.902957460556398 6.505233133662676 9.173147718730322 -0.41223396871003193 -0.19854855653429673 0.13417610379549796
Ni 0.1733243010502222 5.025284494125838 1.2552929614198074 -0.5759199090391888 -0.1782610099298543 0.39218964846464716
Ni 6.280842845941453 2.0667502745680473 7.145658071661909 0.5022284928923092 -0.017889992906543382 -0.34791268092414274
Ni 3.5838174619812095 4.281397020051877 0.28149887068317914 -1.9451896939373985 1.1966749721151972 -0.0003980067693670565
Ni 5.922990075158107 5.524001793024466 4.819504030894359 0.2955601354643555 0.42964830753173744 -0.13238481622303008
Ni 5.215165003507763 2.8582996972769767 9.363067043714356 -0.24526832918833888 -0.013509604450660604 -0.3100501015504144
P 0.12301296189927544 5.65668796404443 12.175863120371254 1.297332375327959 0.3368314834093167 2.5375821467103137
P 3.9882128477573406 6.249799391139246 12.600040020207741 -0.3083806842677915 0.29174693236585236 -0.7533003161363027
P 2.2889109218891117 8.480053619424185 1.2941744597825726 0.008028526731431335 -0.2693631653540135 -0.3638782031144636
P 6.310703778911998 7.6924579719997475 5.870486105832267 0.5169547433588904 0.23304710453179864 -1.0364767332243248
P 4.787931600677377 1.1487251771764384 12.617413161560554 -0.7358396974576941 -0.25397382738213675 0.6396048487926598
P 3.9737427523668374 6.240772506928077 8.118545863223735 0.3202679226236807 -1.7932768349837696 0.23736038719517188
P 4.751472015348468 1.0785682330872381 3.9192943921819126 0.22077394359140043 -1.6556677942473226 -0.12025358017713483
P 0.47191918774093305 5.333363025368802 3.457966447685943 -0.4497407074062384 1.279239008161358 0.7158573407984962
Ni 1.6002318716506563 1.1710396349464465 2.5182795362527934 -0.7022238091754616 -0.32074743336326045 0.7664633358808218
Ni 1.9249018160737483 6.470560871407578 4.86451658901335 -0.12513816196294578 0.2791667817079967 -1.0189914319553677
Ni 6.065055178873474 5.621528250041929 9.031161148907591 -0.32040599086344174 0.11845277952297019 0.48371886412389603
Ni 8.771486576181754 2.2221751669159437 10.23331194028783 -0.8888100511415596 -0.16573973753439197 -0.49393437120431705
Ni 2.3088242284589486 5.240918704162227 6.947720165433094 0.563747535342713 -0.1561358958960408 1.0578014628440298
Ni 0.5574434995112264 0.05251389889847182 9.012585626577849 0.16714330275013795 -0.1606381546417685 0.6851601688249555
Ni 1.3702358888342985 0.9344359728875131 11.389340769479526 0.2063852789698962 0.9164111006882799 0.5517872776570433
Ni 3.9997040713581575 7.0494910634066485 1.5304630835825364 0.8148715519808805 -1.0590623318343244 -0.3985942664394103
Ni 5.673875151582494 7.9092385963309555 7.959145531069241 -0.06242201388064734 -0.21246388106380829 0.24151040480780345
Ni 5.239050139130515 2.9440280166304422 4.821855534231369 0.9463531396633508 0.3540213649250419 0.8943770037063759
Ni 0.8407992002766428 7.424052596864867 6.97084072396316 0.18628002357958887 -1.0739729303975696 0.19605484357816558
Ni 4.942968337004194 4.480340521181816 7.133794037743171 0.8462210128264394 0.6238136473966741 -0.3318479141517962
Ni 8.05477002358341 7.29813658900328 8.933843212915408 -0.3324364396654146 -0.23496360482822115 0.7827877840724583
Ni 4.673940106858743 0.5360109683286494 10.48651513972268 -0.5537634275468075 -0.7935671340761494 -0.5955214853202002
Ni 8.168201850580951 7.055060650964939 4.563472708636149 -0.514180780158179 -1.0334921966747042 0.5502240469349814
Ni 7.381192950630241 6.051668309588312 6.8075823014968115 0.05077928743539643 0.31474133637849666 0.8831757356739178
Ni 2.5304883971483987 5.044999209243029 2.432932151413039 -0.39220224687013744 0.3714812122727022 0.593709628922442
Ni 2.3310574442710563 5.216383632876272 11.318340714405002 -0.49557499213153366 -0.009967652735673155 -0.005202370136545878
Ni 1.1510631401871307 3.2741050646960237 3.826283182646876 0.1717178094946978 -0.15740987751245794 -0.2158040011806348
Ni 3.7187423002855433 2.534171365906555 2.741809561908692 -0.2832088129878542 1.0208845352130225 -0.5849197985449539
Ni 1.1261669935327288 3.3967082060521125 8.163571058980622 -0.6115975649464563 -0.21386590361765748 -0.13237556025164943
Ni 3.7503093143719988 2.574972882541036 6.858804453264665 -0.4575465766039023 -0.526665285778435 0.4816905208399575
Ni 4.1416337718103575 6.705648016919035 5.938380912738149 0.10028870701943374 1.373129524963932 0.3759083948061203
Ni 0.8935107879393391 7.60541172755145 11.525025671434438 -0.1770633900773273 -0.7780487267255762 -0.027243409096985336
P 0.16433984319484632 5.625816020042234 8.192492293304785 0.24505132808152633 -1.0724043003588692 -0.752769126223181
P 8.529918127806678 1.6421075875062663 7.924887602799437 -0.5715642031736543 0.8933683599362033 0.7693817950791976
P 1.7414755289028074 3.226804191429502 10.348030098285463 -0.5232868562245052 0.07546753421069584 0.38295450301962436
P 4.0037029810637055 6.262662701140161 3.760766057042216 -0.6279261269031509 -1.2715341833179328 -0.6491212729235273
P 6.7114161959299725 3.967378798997964 10.471136939780536 1.4377799139544656 0.04590447584159836 -0.23561203704549744
P 6.259981716529444 7.767480406678767 10.210178744119869 -0.2158713640834605 -0.26265284321337345 -0.09360049636598074
P 2.4011512001707787 8.44709646516921 5.88945790837888 1.2414569043165782 -0.546060402475595 -1.194139864398169
P 6.947568513778347 3.9729935209773104 1.534479144368085 -0.2509561236017355 0.7094082427390428 1.235456463758769
Ni 5.257537197994988 2.9742680787378566 0.479096463377233 1.3142890577869557 -1.4830989496062392 0.140706448714848
Ni 1.7012697866262636 1.0747137535290692 7.004609395108719 -1.2765352360769497 0.4711826793300982 0.17124601206460185
Ni 6.821246296127256 0.6430959930373182 9.27948892817999 0.3895828069694194 0.8176686551100434 -1.0766985568588492
Ni 2.6160181250492185 1.559403274363542 9.194590179485532 0.24777978275628296 -0.2352358846530013 0.38135193441919485
Ni 6.32756599861846 2.1466923611421542 2.7276599209076853 0.7468180508460687 -0.3422804223390299 -0.15088056103437242
Ni 4.1855044290766354 6.8091592981685025 10.254833837624098 -0.11280817964268314 1.1333463872598804 0.3436472207795694
Ni 7.945950934417776 7.1148005706744515 0.11649103805670633 0.26267315492834764 0.22822062967743276 0.476118940289451
Ni 7.709184788443042 3.8629648293273795 8.177060834745793 -0.037964909279547515 -0.24802429466692125 0.5216891727200822
Ni 3.277426958085734 8.467145175002214 12.14185613948252 -0.8287902189445018 -0.7585011436109518 1.1545862704752632
Ni -0.04119508878608784 4.616827010454681 10.445202701441847 -0.01825457533481372 -0.512093301501531 -2.1384649178878976
Ni 8.693783156892017 2.3618391194311408 5.713940074465343 -0.381662266570762 -0.12881792480737816 0.873894824592624
Ni 3.43748264203396 2.782753703313709 11.502882724464442 0.5419342961223634 -0.8675861087657768 0.3330779299041554
Ni 0.9007530571419595 3.3801799810614632 12.7403223142914 1.739733611649991 -0.40024157223484613 -1.0186492181246005
Ni 3.2491276760837215 8.26028509641908 8.032787755152373 -0.7668544006716534 0.648640990852999 0.008503409485320839
Ni 5.571022832880442 7.773086101773902 3.5473172556733505 -0.20921503510920747 0.6483465995410318 0.9195159648658486
Ni 3.0333039014788974 8.276732079451829 3.4136534730933175 0.17243283328385142 0.2624211868185416 1.0676665285635678
Ni 3.2572067374527167 4.2748344752303575 9.16194445273584 0.6567080841318496 0.4339307369571752 -0.39238453808427265
Ni 7.228349747166738 6.090529046117391 11.2633931675232 -0.8529747866105052 -0.12025409439776708 -0.3530389464071146
Ni 0.2064466472862622 0.013734404327292631 0.7415323599832668 0.5792983385931185 -0.036512493103737116 -0.21744976431417387
Ni 4.559316731145328 0.34586416586249386 1.7463301872315737 0.3429656213315126 0.8227260150282927 -0.7126658304443919
Ni 5.929615808169104 5.497661344896277 0.09372523607613976 -0.23325947765292085 0.36708873963196137 1.1210261751316306
Ni 7.853642016474369 8.796806986394083 11.311946069629808 0.5423695838875692 0.19237430940278483 0.43195844372215286
Ni 0.2972715454653535 4.873975860978233 5.8212191771845525 -0.9998657668695103 -0.6073881548507991 -0.548191589885985
Ni 7.712281009727473 8.71606150712518 2.8329043639256968 0.874820421730687 0.5232328630581183 -0.33507079196446815
P 8.600562523643282 1.5130411970549813 3.6879163933928245 -0.40027088281088485 0.43788226540575553 -0.5014332506845235
P 2.026075134312523 3.1409404688128686 1.4526459255517385 -1.1878213783793092 0.5424402892245045 0.5862266902818355
P 4.5245271193954855 1.0320346449786653 8.307513754611913 1.6977379839444957 0.46998891613231314 -1.0392558386313586
P 8.558163248503424 1.5366826068040313 12.542595637153127 -0.5504544177782327 0.5700284832554182 -0.2100580998357931
P 6.331582962092431 7.894272022308837 1.387023185401808 -0.6404684823445357 -0.467981141673665 0.08749335502697834
P 1.8109735104445923 3.0789979893558317 6.032039349871125 0.21241168766963417 0.8391412231615224 -0.644756053976296
P 6.979000124601635 4.051852381446078 6.083525086657946 -0.528183265084858 -1.061790529398765 -0.9254739822214965
P 2.354310697999026 8.412342960956211 10.128688546903547 0.5517667088317529 0.6579309007953573 0.3381774559142498
