# total energy = -340868.9801391912 ev
CRYSTAL
PRIMVEC
9.29005972416367 0.00000000000000 0.00000000000000
0.00000000000000 9.29005972416367 0.00000000000000
0.00000000000000 0.00000000000000 13.59694145993954
PRIMCOORD
 96 1
Ni 7.944078871879794 3.0228368544708966 0.5112561511240721 -0.42792078331766953 -0.004035346411638212 -0.41905587672787187
Ni 2.190651867655952 8.691371291217067 11.739708431140958 -0.2614552233608465 0.43919378512832746 -0.10201700256445012
Ni 6.27115275307077 3.0960518166389353 9.854287984942236 -2.1930862047772033 -0.3257916806553873 1.2199239153408088
Ni 7.569596556819061 8.676024112242114 1.892068413071891 0.38316636192011433 0.12101745492635288 -1.5122855984725245
Ni 5.302617556924483 2.2042339352475864 4.566641359566261 -2.3181631744849107 -0.19588977875521102 0.5836990387639753
Ni 0.6989162903564792 2.4402943576165583 4.368561489136332 0.16744129360653098 0.2556347600243275 -0.6031417208696193
Ni 8.943689318432387 5.2840188569802615 13.02574814689448 1.0397813721175253 0.6811590180853625 0.3064814103625496
Ni 9.33418769678175 1.1132000090990464 1.1379004203936007 -0.56954820118489 -0.49113778229578636 0.4348355081596318
Ni 5.497365082863907 3.861218311247278 1.279631432426088 0.8480223277012363 1.4394287624117985 -0.9075662487031402
Ni 8.573814873088104 8.437743365554127 3.8910635577212074 0.641774859860785 -1.7979809253276584 0.7989083437834047
Ni 4.2868238260048415 5.538399277496089 6.379698742090892 -1.6292512519270068 -1.0622574417328545 1.5230286959216417
Ni 1.590430386788699 0.10148740149883342 4.227343288410998 0.5510887089281219 -0.9031256964332832 0.35732883203172006
Ni 5.420359776251692 7.953991365806111 2.258900363794929 -0.26613694510723196 0.2285553873090322 0.6003613299110048
Ni 6.942034429630207 3.2013081954441476 3.143654083629042 0.12806613424301816 0.5780392693750367 -0.536290981793657
Ni 6.196154099399589 6.444969774028009 8.423808275685829 0.812577356630065 -1.1850610420253527 0.8411721375486222
Ni 7.405738480087698 3.889562284039396 11.804552120322114 0.023294965972198593 0.2923866228323803 -0.8621392267185926
Ni 6.597233855988948 1.6170835686767975 11.79512921255317 0.46863111655283807 -2.02621158230742 0.9819397785187088
Ni 4.083640925665142 6.076860440067044 1.2125980761236261 0.1248471130850882 -0.2508769336243679 0.2593605456153469
Ni 1.8726159566217377 5.859110725785016 7.065337678820858 1.4122887116618967 0.4889209771501257 0.10248108668506221
Ni 6.838608192627698 5.891923217394902 2.1039365904235057 0.6627476054577102 0.11276652777147031 0.5504981265319746
Ni 0.7496251533812252 3.423925901120168 9.217787891111856 0.32112975640334374 -2.10279857483454 -0.35653076161045694
Ni 4.8159020280644755 4.224273852616007 8.293318236147101 -0.2707096520795789 0.3146492908853226 0.9378402170963331
Ni 4.898174798646909 5.1348948152696465 12.617894078617146 2.1146955833824417 0.6288890050370525 0.6450625294731214
Ni 3.3349549973410397 4.103800355674613 2.8095092087070754 -0.9194167202838229 0.47750553622433245 -0.1561515796253246
P 2.645112308500805 1.8510444375056123 3.794743287545539 2.3545244867227644 1.0421588712107663 -1.2383121880400094
P 7.587609982988814 0.14597099537641497 13.291377900957988 -0.00258113046361491 2.4463465510320836 0.09004054692886428
P 6.02956474505404 0.8375806536119498 3.110368727969625 0.7074197515541043 -1.3293477518922912 -1.0467521470084038
P 4.1241362968224164 9.998705682301331 6.205508260725182 3.09665001718917 1.2287751950838515 0.05709006014477264
P 0.6333386864422591 7.784940145583829 5.474971393445553 0.20621352927872227 -0.2433492577887551 0.8275167515487166
P 8.442341945210664 7.3939029437595565 8.738591736744782 -1.22759248762966 -0.6760435512356681 0.06973911636735088
P 2.905642748678509 6.876567377428941 2.9312285026826954 -0.10516788948860598 0.879757196910672 -1.539081121398814
P 7.641399429880446 2.365704466581514 8.544549326352694 1.5516031651252244 -0.06558704187219026 -2.785376841864932
Ni 7.947293232609415 0.2495951106550541 7.910034518325551 -0.016251171751539756 0.41308346119452083 -0.02540789855014334
Ni 3.6426882319326253 9.132472625908179 9.016132276621722 0.38006355462507446 0.07860273740556786 -0.6715477202478435
Ni 2.248556811088687 2.4052522516277444 11.08203814878266 -0.6292659287604969 -0.6688604032236675 0.9750350809790755
Ni 0.8571854670446629 8.243218801052596 7.630481751471629 -0.558213235788045 -0.07282521149184232 0.14652176984504442
Ni 9.387791342475138 3.12002946127232 6.916315827769275 -1.1024520116738692 0.36666347916908465 -0.11683735540673425
Ni 7.950135990942548 4.5238689947245065 8.856503964168382 -0.23527239431789157 0.9300271488098175 -0.09983927818684095
Ni 2.1777851346775563 2.266226505041689 1.5006809759889288 -1.4448890141954214 -0.5176594827353989 1.2308829854554737
Ni 5.432334663478516 7.096082203094287 5.612831237512626 0.16807841296989762 0.7809353042447519 -1.2899612796748687
Ni 3.149218829516449 6.564551425217833 12.375909385042165 1.927725989934996 1.4465805429652312 -1.2148930377851206
Ni 9.254720524292802 8.129053254791586 13.454894103484584 0.31356608512347284 -0.9441371058486384 -0.3468204763012285
Ni 7.194278136366229 2.3419497833860214 5.942896847127146 0.1442643412694354 0.4712137896783498 0.9634823431444698
Ni 8.43458474518398 1.500837048995454 10.32171084638258 0.47436750481598305 1.0985434206480822 -0.4077255393167172
Ni 1.9712578127694647 4.525987128384488 12.503013197742895 -0.1679377736269753 -0.8282117207332124 0.8160079795781688
Ni 4.538937471902093 7.201152780701256 10.206979535472918 0.187639880041593 -1.2087447587955378 0.07300338894091943
Ni 4.02617261504828 8.307636076483783 4.132436965353966 -0.44181425347031 0.5436422799524057 0.7125897257908179
Ni 2.852986689096166 5.698216178165645 4.629472821770435 -0.5535461693296789 -0.5757880114470147 1.209503234228117
Ni 0.38971801331673994 0.9480784842196248 12.334778573786895 -0.7058878882906101 1.1743611391093454 -0.3550390075562788
Ni 3.2854854283085815 2.5033831544803005 9.041354789283341 0.3062690372414274 -0.18304326180984604 -0.3616107472365256
Ni 5.657432815151092 8.380618787154017 7.449872767712581 -0.9364556780439808 2.332574721924551 0.41506706728345294
Ni 3.5289221582478385 4.484832162973447 10.827434766828938 0.7796790632401476 0.6390286645742156 -2.3582500152034678
Ni 6.5986366550356905 8.669084437487703 9.724016261811446 -0.20596181827923235 0.08609158958344527 1.1267656487185693
Ni 7.696972568275218 7.766211384800836 6.120350926540012 1.398054570340386 -1.305055969224462 0.9027086635005227
Ni 1.102665081158613 8.399533349135254 2.1342036056174494 -0.055475407359485106 -0.5242852155820326 -0.0025816446842471664
Ni 1.9710720115712208 7.202304748130369 9.689126512805192 0.8123557275375624 0.09764329897678668 -0.36484699478563615
P 1.76636554140592 0.5179998056143372 9.744534288133528 -0.9469380656325433 0.1395355683351984 1.0246658566323255
P 4.652945087144596 8.084349486494084 13.932105901054413 -0.3493519844738306 -0.44861250733906605 -0.5930331716807077
P 5.0608623278293345 1.0284839527597054 10.27900258295422 0.1996173641184433 0.7568615511249998 -0.7417270094764065
P 9.026565942909112 6.75073351591821 1.613630453407433 -1.0509844399221964 -0.4220100742601894 0.6374232677603087
P 1.9539504311530382 0.3858422003213706 0.2020523000483855 -0.7441888407533376 -0.7007590517044769 0.31624080374215857
P 0.29114397460637204 3.1755282791877963 11.78006445139955 -0.5645085818784535 0.15121994665166216 -0.2003233890465324
P 6.996622821674287 5.009841318791538 0.03168653634852769 -2.1980587182911306 0.22917090940584403 1.1166748401414706
P 2.43907735976806 4.800016025614616 8.885437855764925 0.12526671712101006 -0.6028740690305295 0.4370584839528795
Ni 4.784538785800892 2.9477081399609446 12.185062755259873 1.237451896922243 0.5183210275787977 -1.88482456258578
Ni 3.5776485224873213 1.7207141869973752 13.316178644899596 -0.8125228492430459 -1.8932577809547975 0.8274324193650267
Ni 2.6707342937386493 2.257326627645803 6.227331540464928 0.5399941416768571 1.101381918538142 -1.5920237350341164
Ni 1.7755069603595237 6.58321515558144 0.5569335177003711 -0.9975507455830885 -0.5041876735012091 1.29751363810083
Ni 4.443008313248728 2.097435406496949 2.145651746447252 -0.9535103195334222 0.20196195309121995 2.6047385899521527
Ni 8.390847143117348 4.582099090254169 4.764585595121472 0.7529799566824065 -1.8324838442005342 -1.247904973934767
Ni 1.3715751553771196 1.4375996111731164 7.834272221729588 -0.5712788107227516 -1.6562640330704252 1.225680872429244
Ni 0.7489664881334502 5.292658612698607 10.361631162831289 0.24162224779531935 -0.013726605557473135 0.8889136665989594
Ni 3.017838802238134 8.410151887614896 6.495680495064739 -1.7988669274770372 -2.442064892937594 -0.4569729634886195
Ni 9.208037973234003 0.8586133492531679 5.899549427576827 0.06259736311624703 -1.5715006753801 1.1070360315001255
Ni 8.09797800438528 6.404372212211701 11.02873735904241 -1.1811174839965723 0.5802429618945749 -1.0269014308310638
Ni 4.5984867559392875 -0.2924157838083521 12.014855851584514 0.47659793680839857 0.2395555950742777 -0.4592291065126478
Ni 6.79256665570284 4.839805352218564 6.560959888055777 -0.8398369636769665 -0.05786293375505518 0.29042332845842245
Ni 3.2779418996598757 9.407672070687243 1.960869667775644 0.26164702765667847 -1.108889796879413 0.0029701383719174653
Ni 6.2942850022521455 -0.050249005059092126 5.262886757697983 -0.8181882750589392 2.389548825316749 -1.1037596747416991
Ni 8.956175158954382 5.610081379778615 6.731356308953345 0.2672633454021913 1.231325472309531 0.9554584443987287
Ni 0.9967212379198978 5.695354839712689 3.131253711658239 -0.5322551211613865 0.16016635721167255 -0.32579373753791635
Ni 8.101433906672618 1.313790982723243 3.9453156495964663 -1.4532330152847424 0.11184864394289125 -1.5227420179191582
Ni 9.14629623505753 8.621472880437683 10.488191507027157 0.9388108085397187 -1.1278802219389865 -0.2820713569493013
Ni 5.148365402142335 4.6775080055524505 4.255462441753241 0.6405384163505227 -0.12879452776861045 -0.2071563528079658
Ni 6.682758147540651 7.662190583963946 12.707089801846148 -0.8896173775342033 -1.0617221380546746 -0.06274340177580806
Ni 5.577008766491187 1.6285010523088899 7.883303299934191 -0.3231524432603273 -0.22728063436166662 0.0902914865974058
Ni 0.9600440813865369 4.188256290336413 1.1545138345345858 -0.09264970241693722 0.3813550197429884 0.5304638335889186
Ni 5.754188789136644 1.0715712506324835 0.7838255799419939 1.9595379922392704 -1.4143455941909255 -1.4497640828995355
P 3.8449607064009297 6.993705742861857 7.925752370691001 0.7111097988111817 0.5613273559369946 1.5526074380200228
P 1.0622997708401092 6.672371860558812 12.002931130681217 -0.4274214750837478 1.005567445239978 -0.8506520520145995
P 4.979657914136805 3.555946942532425 6.260289886015436 0.3634357162604063 -1.1955136048172441 -0.06045357730036685
P 1.1999784587388955 4.143403881080316 5.364877680444058 1.3435479546520732 3.424726380113676 0.9161305933333834
P 5.912770111837877 5.215681176266127 10.499163996789454 -0.2538540139748209 0.7731327774811975 -0.49667439584329953
P 6.874523564248258 5.980271687159913 4.651255225246568 0.4476216041807065 1.0938879241539419 -1.2804278862631369
P 3.3879733692599583 3.8306725942559683 0.558487744723682 0.022633164018483604 0.6373078252283669 -0.2964759624104055
P 9.012454341902481 2.8806896477543424 2.4086440525016877 -0.05676224449170869 0.09551468266955809 0.24111805446539117
