# total energy = -381165.1297208906 ev
CRYSTAL
PRIMVEC
9.29168195376774 0.00000000000000 0.00000000000000
0.00000000000000 9.29168195376774 0.00000000000000
0.00000000000000 0.00000000000000 13.59931575694199
PRIMCOORD
 96 1
Ni 1.2665398599752338 2.5222734939701494 2.8838434969279456 -0.20228899741333548 0.7975047785676588 0.8472435405536828
Ni 1.5805708311332862 7.478465879290632 4.255470420181084 0.5376181852455129 -1.2089046814121696 1.2387523609012216
Ni 4.606407022440792 1.739718757694671 9.575713687510733 -0.940281222437658 -0.031097235625436766 -0.7160375751301024
Ni 7.004961772706783 8.184336365337765 2.9419127917573498 0.08777026283744885 -0.23747788660964264 0.08769030152913285
Ni 3.5624586926328012 5.373621191997866 8.318986772727087 0.9261126442467598 -1.4240245120415862 -0.21142669804854555
Ni 9.140645552027646 1.0043100150770903 4.535385123125951 -0.020536172280138827 0.4694075897075464 -1.3869841714588373
Ni 1.3120691009929115 9.127107571586267 7.807570745898271 -0.6726723207705899 -0.4801095495060828 -0.14524238891198857
Ni 6.332597091375924 5.187815430236538 5.4360408522649175 2.767455995720453 1.3934265846500713 0.27217132422677
Ni 0.7813170842543447 7.456639718647668 2.345120146338549 -2.7760529933608447 -4.298672112548894 -2.923779839257584
Ni 2.6596510099796116 0.7689312723611682 3.840433292409405 1.1588859262918816 1.0678945854139739 0.06446218423912768
Ni 1.139113735216778 3.9146227260636195 7.29816822652426 0.5085156114526017 -0.40803844257144567 0.5922687827108575
Ni 6.8179852590335726 2.6241196186221423 5.2408635001994215 -0.3632403124201486 0.43740686843123383 1.0527358753956644
Ni 3.5836623105924628 0.6087659066382659 7.6735363770149645 -0.6281958356247698 1.0037393908923036 0.6544622255204664
Ni 7.256831392352944 1.5763152408504093 3.270458299118201 0.9326360471875743 -0.9911289012171447 -1.574925641901249
Ni 1.5256012413658204 4.933520681630047 9.399628883290772 -1.1169651176883795 0.4933013656060085 0.3024702323206275
Ni 6.006533392234629 9.171280227055254 8.505827627845427 -1.7341319491924971 -0.3063286868347692 -0.9609400363385903
Ni 2.6561945043350046 8.745377406539479 5.615701095657043 1.5916709796803878 -0.4141209013200997 2.6966974369496524
Ni 5.091432814506667 0.6619115392604723 13.47477284649178 0.9519699716294959 0.017183967978454277 0.3950620849164358
Ni 5.32981091212065 7.585292345409049 1.0549738394797412 -0.6148250707448185 -0.3889593144528075 4.328292763628804
Ni 4.470098049842969 6.9467493859770375 6.449081331599193 0.35929212640567804 -0.22624062313292653 0.943188368782124
Ni 5.050809581500689 5.1077025494091055 3.6350973445878623 -1.7711419507579431 0.08669554171603135 -1.4558701957972735
Ni 9.251346649473485 8.437172319895321 5.764260221593173 -0.08768233110933285 -1.2875706679555052 0.8181697631161781
Ni 7.088001533313922 8.237048076418027 10.532384320624205 -0.7194957088820318 -0.31755977966389826 -0.5050276529040012
Ni 5.751411683944347 7.520557198027383 12.647213849222604 -0.5072940803406748 -0.4120354795459807 -3.186923763174763
P 7.761313966192494 6.980283065738833 12.280100428878859 0.45207012687036335 -1.5353375951959816 -0.7849670511119642
Ni 7.7137405551699425 7.376879921730168 0.8471913918296362 1.3048847337539207 0.4712855234565496 -0.5445236541160944
P 6.977960145278748 0.821975625651315 1.1909836199223054 -1.1631539575396161 -0.5425765576920526 -0.187040041674065
Ni 2.1649154103905803 4.91242856385247 11.798942763963119 -2.404912195146697 2.90229364435935 3.4653888908300448
P 1.2778942951841321 2.0542143129447408 10.475130835460382 1.6866043359251792 -0.17385645310425543 1.849224811104299
P 0.5573104309428176 8.55733234945463 0.544837277240342 0.3075936695901219 1.2211804134557291 -0.9979600652063649
P 5.119001234526963 5.302799993010775 1.3988933636136232 0.5533530794822663 -0.4708247817700472 0.9365312684769227
Ni 5.14851161605189 0.2368003700374944 6.222176602721664 1.137574566408615 -1.1788299735139762 -0.4766912678531532
Ni 3.361832698336128 8.368683333050157 13.59972366720797 -0.23362817384624926 0.03269183380606627 -0.8702464292067593
Ni 0.9801702256558806 9.44982626526504 2.5703114890847196 -1.604641680908443 2.314467727911195 0.9985879285983511
Ni 1.8863972472263164 5.980814016900561 6.266061216053601 -1.0243773788576294 0.31666760686693207 1.13398530639546
Ni 6.615212886231779 2.7679641451924835 13.272279224145198 0.2593636309391404 -2.2634236168501856 1.635747658284628
Ni -0.15408581829476628 9.06344096761624 10.139023757417862 3.2114526015540625 1.0723392514488888 0.13792528642528504
Ni 4.405427944234186 4.325779647498771 5.948272688759314 -1.4049726376164577 -0.05347637465158532 0.6677224329644823
Ni 7.024622971480947 -0.06411539220291473 5.019031100438535 0.18888712218513276 -0.620224387383519 0.3307719074787981
Ni 1.8762228556111413 3.7739559546826755 0.7010973490857484 -0.6341759644676046 2.1088401530429293 0.975701768028797
Ni 6.014422030117079 3.125043478316842 1.9735866729433533 -0.7335365032458141 0.73444795931649 -0.09984390617253128
Ni 6.775801023478418 5.820012170971596 10.408997289961746 -0.607276054752967 0.13876243761459975 0.3016400231098482
Ni 8.181270110330452 1.0879537350038526 6.868769875300147 -0.1598457406474602 2.8260933457476876 -1.6086281763600168
Ni 8.492931702619217 6.434879925074414 8.947071015079608 -0.449703940631032 0.010580089508691456 -0.3793642145652047
Ni 8.226762184620767 1.8830429500819528 11.31936282662387 1.573516420258548 -0.7172925305831259 -0.0075770410163095315
Ni 3.599486044766566 5.901184303528827 13.716949383642095 -1.2629143028594056 0.26250988987760593 -0.1227048699311048
Ni 6.87571447830762 7.151296470010335 7.1639563865178015 -0.28029986687117536 0.43908734145745026 -0.5088557684008398
Ni 1.7115835450821142 8.971843568034146 12.11616078199241 -1.1315183329122063 0.47690415519490764 0.41625465983365084
Ni 9.035342921731045 5.522018642669973 11.127613175989277 0.65762853906359 -0.17636122180398014 0.9037450751848372
Ni 1.2063948034226974 2.4491014994774525 12.56409510931982 -0.21262380368044023 -1.2136612222605485 -0.45719587813270296
Ni 9.309336035839062 3.183432407001554 5.445301871555187 -1.5692507030036587 -0.4113104284544981 -0.7873247527108633
Ni 8.55733234945463 8.945845442244867 12.234624150447672 0.1969318468664802 0.1817317420872741 2.804501221399209
Ni 3.1448626356822924 7.831373247268677 2.2507278088588785 0.6372895703959218 1.0171520647537837 0.4859169002164793
Ni 2.195958919419164 3.8965132381567917 4.919416837764592 1.6473456475348727 -1.0562274334886905 0.8346348506507367
Ni 6.061967566094112 4.770423790286516 7.850422124209563 0.8572867837222978 1.324282421554242 0.2587951600301801
Ni 8.2319748181332 8.842308231497931 8.26166545828583 -0.4926272223571194 -2.138271313819853 -0.17310569098115994
P 5.968985705917805 1.9902317917921428 11.400659467717762 -0.4494406596673163 0.048428013594400465 -0.5688308634028914
Ni 3.8032433358434345 2.600416538247429 0.3196821720533487 0.5985972960320466 0.18822532023141778 0.5433584301633998
P 3.7288262559841323 7.5117672670064195 11.23408191235684 -0.9988481242382734 1.321151332124428 0.794269816570129
Ni 3.113456751061935 1.5715671914299945 11.8314590045634 2.1116477976950536 -0.45388018349590864 0.2911218971873438
P 3.3647317030703148 6.027904260467417 4.8346107284396025 0.9781564002168766 0.2573599702455503 -2.247116652160046
P 7.981378158899164 6.908356156612743 4.622489065370057 -0.4212911938162938 -0.00914464261374554 -0.014118184568936976
P 8.61026706089906 3.2013653529534145 2.9393018291602133 -0.8803626917051548 1.6760576707575847 0.6950895121235254
Ni 9.248382602966416 5.409970251357286 1.591664170082471 0.2955681058841555 -1.4577920954103345 -1.3060296459916412
Ni 1.6125342166640642 7.088410367314898 10.758962911469139 0.40907408292481157 -0.022306119696368035 -1.3256618184002718
Ni 9.653221180750135 1.8506893139138805 8.769913021607087 -1.3815920539089883 -0.23270566203197987 -2.1372539282989322
Ni 7.297705500768611 3.9533132892468053 11.495446701675647 -0.2441444999965408 0.3740638853982139 0.4545918648509526
Ni 2.810455006248369 0.33194905041896877 9.894318024470603 -1.8216751836208045 -1.112495254842484 -0.19133609794625758
Ni 1.5114035515137774 1.4170372307432597 5.98665012226448 0.5753889762363833 1.0436619381188543 1.145940421874807
Ni 7.349339376755393 5.0406166065218345 2.9112186499659622 -0.0031796832795622653 0.613328431594634 0.6680669607880946
Ni 0.8545903580791009 6.675153525783828 13.08539748562676 -0.16514889802792848 -0.08177007938995595 0.39720175696725785
Ni 3.4894353650495504 3.282834819329537 3.0159061709247323 0.8867179444992213 -0.4292186761934866 -0.561452311550633
Ni 4.35099727201346 5.628752191969987 10.760852839555463 -0.8472643664892892 0.30819839305365626 0.5814801767357857
Ni 6.9485984306632655 1.7101990844879031 9.343559158393411 0.9952251827737054 0.4045983065416451 -0.2569609350349188
Ni 1.8954659287024906 1.3819611317959672 1.0077107706306554 1.1722559198408844 -0.9887326330708263 -1.9800687652027706
Ni 6.826775190054536 5.1000462035726635 0.09721515042276652 1.4663083604114617 0.9245234453827692 0.5830313232729896
Ni 5.072059657869552 1.4382222653392405 3.8193681205091647 -0.12016513422838662 -0.9861065083018888 -1.1381065276526852
Ni 4.801569507815344 8.04394834441203 4.35169972316059 -0.27213070079682167 -0.10272585570601662 -0.8308879820137949
Ni 2.2901486982347152 5.689333957569019 2.5638110284692157 1.2017786118903495 -1.3487361837212322 -0.1292557836757451
Ni 4.9709475760829465 4.260301165569878 12.629820749985667 -1.2342758131871063 -0.24265197461141436 -0.9090482325653054
Ni 3.0708358064602845 3.610069270382716 10.661903861301289 1.5518656747579918 -3.592397530342826 -2.930815920168759
Ni 3.9301770014643527 2.0110358674326694 5.592555516192749 -1.7650448367212699 1.2245860967031683 0.8655335971121222
Ni 5.275881990719303 3.812367767410651 9.938882788913254 2.3000392111906907 0.004217637625773382 -0.2405261865176632
Ni 0.5694555882763291 4.973837289135293 3.990134366043714 -2.163810338631222 1.434834972393529 -0.6142794826539937
Ni 3.036029166286362 7.6266496212804125 8.357880823742576 0.3023959274392663 0.5366223969911468 0.32688671349177895
Ni 5.289131929023632 7.037426909056939 9.155535472176794 -0.1914047464006639 0.23164251087478818 -0.7646316819887218
Ni 4.9498182915780085 9.222821186223634 10.957240897764757 0.45817881087126255 -0.09683108748813646 0.5184490685162296
Ni 5.534079245698738 2.5608618486530914 7.352157543857569 0.029909900185554943 -1.001996697169584 0.6340216982779274
P 3.84083748056946 0.7756770333772567 2.011189180183035 0.47366096566726174 0.19652689811857765 -0.9720130063233002
Ni 8.560194187461455 5.53385624533457 6.3552325575071835 1.0760804636588757 0.7372995698326721 0.016958482231209503
P 9.10388765866725 3.839443728293409 12.983320927265126 -1.862400943474941 2.1965379107712297 0.23305327517938576
Ni 8.231315108722535 3.7449380322952863 9.355893866036466 0.3352816224236936 1.0582146391220484 -0.6782526430718449
P 1.06915666264084 6.816424256484394 8.159657658369815 0.4796637202179159 0.05839772321260265 -0.06095365686523697
P 3.2667602097457444 3.193606798616729 7.632140076079871 0.2836857526242727 -0.4246415983457655 -0.452115378286002
P 8.006735158641458 3.631644555615991 7.179731803946336 -0.8200687799111038 -1.1333240186623772 -0.01603442775504335
Ni 8.70416879757756 2.122498882789417 0.9009679296488019 0.6913202748890803 0.24504412899267478 0.21914000753240326
