# total energy = -340891.1012219965 ev
CRYSTAL
PRIMVEC
9.07730035173292 0.00000000000000 0.00000000000000

0.00000000000000 9.07730035173292 0.00000000000000

0.00000000000000 0.00000000000000 13.28554661234084

PRIMCOORD
 96 1
Ni 6.369814087822482 2.043127876392875 11.38980544997715 0.8817256334909523 0.028532560222054085 1.140095790168572
Ni 4.490095775234746 0.41312610087209717 5.848470225714293 0.22861375135079334 0.7886432144119708 0.420825824144101
Ni 2.4720121709526577 1.646041365524315 4.653183094871732 0.5427205394690847 0.5279541797931876 0.6260309667629669
Ni 3.5877939498065468 4.328438130428295 4.775317265521759 -0.06158614824291328 0.8700168296944565 0.1409861847387959
Ni 5.0758630545320145 5.018113268678871 2.64840772086932 1.0151031526445549 0.4878686246262114 -0.31141021512273465
Ni 7.3333876917022245 6.249376464638026 2.5403696901833532 0.1884870585332367 0.3444594322682197 -0.5902273268007964
Ni 5.299972526856484 4.521394307397846 11.65753588990886 -0.4210960470863522 0.2169532842937296 -0.24341430669873562
Ni 5.569377728732538 7.929548480084978 12.498962614917861 0.5423875816096981 -0.18224004918226033 -0.20307755475290185
Ni 1.9305784273527726 6.444974136056375 0.49021961411490617 -1.2820705640728822 -0.8249181375836051 -0.8081260057269307
Ni 2.765381446178649 1.441983650029396 0.4986242866583557 0.7721112781952186 0.37831597580634846 -1.0024191294189833
Ni 0.4988584810115482 9.096272069408505 4.933560937605894 0.11536745572942712 -0.44615993203351556 -0.5450594720149065
Ni 8.684289708400836 2.496829510550661 1.446623058320742 -0.22648487793324865 -0.28149183029674746 0.38793704383588024
Ni 6.716049561226516 0.5557186914145809 4.776060696433637 0.10486347087430972 -0.3787088403693929 0.45798983478890803
Ni 0.7766393080694156 7.331490535895354 2.6212384527088286 -0.19380358565014366 0.7726105864291403 -0.4332550510463893
Ni 7.601059129180612 4.199794627581588 3.7619483142269585 0.06727317132536156 -1.7111344598560594 0.10735049896222157
Ni 7.786217905010922 3.86092084489225 12.833426645018791 -1.2081981422634482 -0.5538626721288333 -1.0384006897199147
Ni 7.950916445488672 8.852728096689258 6.818767386082786 -0.10302487500367417 -0.7865176834285358 0.11711683432036606
Ni 7.117048388615463 0.6454269291779987 0.37621598153288727 -0.7335457592171948 0.533991644236519 -1.4854417388068029
Ni 1.8850557652884032 6.446444658739212 9.159108774468205 0.8808283184876637 -0.16829669962829077 0.4280452247106757
Ni -0.07652618196085023 4.975731352591426 1.2852967349829552 0.5410891745132488 0.16669258836596454 0.43938456098289497
Ni 6.316058314194327 1.8307281217280347 7.117187271313287 0.7114556121863747 -0.7588204746235835 -0.3122615073794364
Ni 3.419264788513012 4.159818196129647 0.46131658155674915 0.8025333421305018 1.0880150103129327 -1.059220968899376
Ni 6.034553070736657 5.634480127999867 4.699708798642605 -0.757051812758935 0.2119638014989382 1.6894199509971033
Ni 5.227027339947357 2.8600667678124343 9.387700617785173 0.46922401294183064 -0.059521809514716854 -0.19168551086587632
P 0.16213511081334706 5.425193887410416 12.319687745279003 0.6649824083254999 0.7330528787411762 1.6179831352123553
P 4.048948047684143 6.169904698661244 12.719476568509789 0.304620703004727 -1.3953446276083905 0.11440483470584169
P 2.305915726196162 8.393616391426713 1.3677867033797557 0.47827789561398276 0.4976133627178011 0.44016926166771936
P 6.371829248535999 7.572501941771938 5.7196270222563355 0.010372344373259556 0.9306465275613715 0.41251344762366376
P 4.761216586907443 0.9057548305427129 12.517855200472113 -0.30764303477081856 1.0398073402594543 1.3071107948709617
P 4.157757648913573 6.156379520899348 8.189809209425908 -0.9294885026975281 0.6002140056998629 -0.11352654586594643
P 4.67291260753313 1.3874109193552213 3.7640478938352313 -0.9541142716660084 -0.9947927232219771 -0.13733341847755703
P 0.2736370393744407 5.480274946913226 3.561203813418679 0.6324867496906398 -0.467049373888015 -0.48072095783783664
Ni 1.2902111854797946 0.8589531768362961 2.4261137086471196 -0.8041222838841764 0.8237917372886456 1.2078695552794358
Ni 1.899497750401945 6.8233069440685075 4.7795554571305034 -0.14258926755985765 -0.16814063366640075 0.03749336895976769
Ni 5.9509874422292635 5.561870801209659 9.290197702072666 0.7552312146104283 0.2371395294336174 0.7873252669314956
Ni 8.7608658155145 2.281125618499693 10.020557301215067 -0.15786213455852813 0.85092895982507 2.270428587413109
Ni 2.4090157054039594 5.5784187200418325 6.77666505085109 -0.20930245261669114 -1.8150671913859837 0.7819287785062726
Ni 0.5633726712057425 8.871690577457448 9.365991345882252 0.21159639085719045 0.8254590976887398 -0.819295392080189
Ni 1.4590580522912262 1.2487279221429717 11.269757242984628 0.9084519937422033 -0.5055621852512325 0.6934632893740121
Ni 3.9200776123246515 6.836768580726823 1.7103549473772086 0.7866863477959161 1.1416993872102659 -0.987938162193989
Ni 5.787514337320544 7.83769527621073 8.111225203439137 -0.534119685173951 0.582934649794125 0.23503662415800167
Ni 5.385462543072282 2.8367744147003364 5.204094447935508 -1.897131404977591 -0.5338378922674741 -1.3514813505665368
Ni 0.9681757952389923 7.4282091728436805 7.205230732162925 -1.0030572772236144 1.0951004564048044 -1.0488396256650518
Ni 5.166309276827005 4.3767566010501575 7.289593347655215 -0.7083916285490703 -0.20942329446527155 -0.5105611811277208
Ni 8.135639510894437 7.140721988349037 9.095790064751354 -0.2759341337033119 -0.4488706460964592 -0.3763647656172486
Ni 4.474228653940924 0.3515856343254179 10.430961119663815 0.20540671710671074 -0.7463537096151405 -0.5860490270533907
Ni 8.383858293377024 6.876254837951152 4.785095333632574 -0.6850097592900203 0.9573906284244349 0.9278075154506796
Ni 7.11621327696842 5.997363370541699 7.13219931089894 0.6072547145967283 -0.3542651055047318 -0.7243304112665139
Ni 2.3164090855872708 5.164775213040588 2.5664487745524327 -0.5784663296101263 -0.06168744970746795 0.6435777173974786
Ni 2.3051986194557665 5.268864618004121 11.578645978894858 0.9608793583039839 0.29460317086772486 -0.6633538715831415
Ni 0.9216455528178644 3.2431106947899515 3.483058241046606 -0.8172616494796119 0.19296077803387413 1.1572576466598392
Ni 3.8645608423972972 3.1966621480734254 2.6231646558773347 -0.38349366335254603 -2.825183946559541 0.5680294505475185
Ni 0.7457147606873832 3.3740779865675625 8.226623109379698 1.5314506014367495 -0.5798441837942594 -1.2826794013014748
Ni 3.0511439435761374 3.0109315023109025 7.165493033714432 0.8572029657592397 0.34750927483813704 -0.5314218266268138
Ni 4.13679816203289 7.135911019078027 6.157332637453039 0.7035340433464529 -0.6444256672200708 -0.8254223309135332
Ni 0.7491341797900049 7.198925639227748 11.223031838602509 -0.36728800012696095 -0.21243996980440835 0.7391224819740239
P 0.24399693001476286 5.484777287966851 7.972642964262563 -0.23635482874879293 1.415330326701698 1.6284750358826146
P 8.580744941467984 1.3484693001615733 8.126051158364309 1.6292985602251744 1.0339673365389097 -2.2594039541678312
P 1.8678361262183918 3.2401696494242778 10.455938219750818 0.46456774511674187 0.41900753998843965 -0.8297219867301517
P 3.8194103496538934 6.382921709760856 3.8440134649598288 0.11057183411299666 -0.2029207174600634 0.7745756805753111
P 7.0587811966331735 4.019528516726891 10.510222292268733 0.17283701070080554 0.14230927442559363 -0.3946031430021462
P 6.456121061084301 8.027356393094664 10.359658016417189 -0.18862024167699132 0.06841782645276603 -0.5595813197801652
P 2.456471832477244 8.668204731894743 5.907564359773167 -0.5159173032333114 0.016325733743217045 -0.20056301586116426
P 6.600241361302842 3.8089260675632954 1.7329138546079903 2.8805570240132066 1.2833440314686673 0.7240979835407335
Ni 5.406222329341716 2.6557276560016643 0.6726443070311999 -1.780159066654889 -1.3787023910660192 -2.245292197356798
Ni 1.5603425713967558 1.0651395193011242 7.236531079786126 -1.33929509291299 -0.28082462902639377 -1.0021815594868804
Ni 7.017688257218337 0.9229345294904747 9.31509492191517 -2.6255141319366073 -1.8204490245231872 0.783962778217166
Ni 2.7246062122817105 1.720892785540823 9.102512713510052 -0.13316951690785453 0.0669965206252072 1.7312098904496958
Ni 6.4507745310831215 1.555350056115519 2.5922891259180636 0.3881237059253897 1.74999308459447 -0.014858662279387314
Ni 4.072149627791127 6.753320957126077 10.490041637771919 0.24676342567662662 0.9227411566713656 0.053401298439275775
Ni 8.393779782835917 7.362888918364079 0.1560052097780393 -0.3727281973059258 -0.6004544038454432 0.7262160583250009
Ni 7.4383485175148465 3.585343078668485 8.289317300821368 0.10066203119845245 0.6429902203251249 0.27029184781587
Ni 3.117725942826815 8.131082706037745 12.55909337669513 -0.19600393573557212 1.4354823761695406 -0.515894420415176
Ni 9.394733710221358 4.774460368353488 10.10917172426687 -1.142535252848 0.3842007167218996 0.6970908588242705
Ni 8.795041851939693 2.1846157594631284 5.830255714508239 -0.06698880731572333 0.9438648260238583 0.7175815225784544
Ni 3.7911708677631153 2.684974718249201 11.460218977773662 -0.5524557644789776 -0.3788667061034959 0.4638393515911496
Ni 1.312532267437179 3.4479309035278227 12.598803843242088 -1.218529348986127 -1.021735056138776 1.0890406233639696
Ni 3.10888465212877 8.443087679213516 8.193927580667902 0.928908204714026 -0.17366799124253315 0.14625617488848358
Ni 5.603118054733188 7.721877998986545 3.4436800036983626 -0.11691448850157284 0.43700603344838934 0.2123037013368602
Ni 3.2445358309702317 8.68735783597367 3.5722572422513372 -0.36770734705256675 -0.605974305222408 0.5003227912291642
Ni 3.5716817413989186 4.4729759864703595 9.469021429876113 -0.8357401678997736 -0.23023817432809382 -0.04354754557364758
Ni 7.4399824316068885 6.3527396855606515 11.35142390022505 -0.6336560874083925 -1.2613130198105569 0.09616028667335697
Ni 0.6282862626224358 0.319919471491609 0.13560397687880307 0.43693121434639587 -1.4949136828529803 0.7700155720084545
Ni 4.555897126641448 0.31082764729945106 1.6756397193016406 0.6172192820086081 -0.3485420869780256 -0.8696067387402315
Ni 6.121776851350122 5.588140508889476 0.33335387624839186 -0.07909664632285088 0.8042819493904921 0.7175329287287062
Ni 8.308907023054891 8.965822183760041 11.435574106885374 -1.4585557130492364 0.6290625545004392 -0.3113076281065993
Ni -0.05299237265515065 4.738278248515288 6.10829615236073 -0.33886496889957773 -0.6941371755125852 -2.1764339409325038
Ni 7.872842583790638 -0.2635476198560865 2.415751062383374 2.0012934789095014 -0.4392151252845662 1.4726145051351476
P 8.398309355791076 1.5869299845944702 3.807756911257435 0.6065934268636456 -0.4450250470981239 -1.8965071411300305
P 1.9283544887274942 3.11335976128086 1.6256464867354368 -0.7127542763931402 -0.38426807962472526 -0.8249266222240375
P 4.567053128969885 1.2424736620906585 8.142206937814391 -0.1418225645971622 -1.0166419578865846 -0.40982510215822326
P 8.664283338073844 1.8469129485397535 12.490513463601907 -0.8538659309662069 0.41609165189322533 -0.7130988042167525
P 6.385345348997384 7.847507838063488 1.293046026429486 -0.5231899256353248 -1.1278483402597868 -0.04320070375719011
P 1.7360972638973173 3.602018079707816 5.575425934063244 0.22304371346218363 -0.5820805293239458 0.6835424307158744
P 6.908914965190953 3.8084722025377284 6.068147252199074 2.061568107429843 1.6057585681217055 0.5302848848088932
P 2.3110807101871145 8.365876161064058 10.447421896411079 1.8214198730768887 0.6177389019575039 -0.711648187813155
