# total energy = -340863.5679342627 ev
CRYSTAL
PRIMVEC
9.28653786861972 0.00000000000000 0.00000000000000
0.00000000000000 9.28653786861972 0.00000000000000
0.00000000000000 0.00000000000000 13.59178686836093
PRIMCOORD
 96 1
Ni 1.6391481978872204 2.5401280863852946 7.742900622492993 0.10794442379247861 0.21087879596487555 -1.6147396885743934
Ni 7.979921853085913 1.3195891487931446 5.729549530326164 0.03830043824209533 -0.9247345329523106 0.4172262797183008
Ni 7.9940002442523035 0.14326806050096932 8.883265165430853 1.00973468924379 -0.5588526691442569 -0.9184821242846957
Ni 3.87386063210879 4.062767382179165 3.972987921572766 0.7584029274701907 0.2094135242732587 -1.8321544858855738
Ni 8.701522979202739 -0.030410625034679905 1.967587962992126 0.4617289901163661 -0.5528550567999253 1.3697523809615828
Ni 5.826345898825257 8.910117189215558 4.815379972320423 -0.5305700201494798 -0.7760093276980442 0.2806294822964522
Ni 8.768627500685806 8.345467836913471 6.672561217147586 -2.948900031363979 -0.35023952928510643 -0.030092448510006243
Ni 1.710505953640871 7.049345768910213 4.450942801095283 1.760200878365407 -1.0280671690043908 0.3638272952718702
Ni 0.5235248487128793 8.888033802544271 4.429128724017547 -0.8035751531314548 2.063105627120292 -0.1444468895938867
Ni 1.4884834101012716 7.502482376406229 6.623590517848298 1.7412652178031687 0.19393394058042085 0.6411719361694636
Ni 2.001193156998599 1.5458927862164549 12.141353126497393 0.3779002284251685 -0.2852261005281991 -2.557583529532905
Ni 6.227236445172127 9.3615729333863 7.146928707153232 1.3165549710029971 -0.7851953650726864 1.7668577215602925
Ni 2.5594626578948083 8.325028167416622 8.797705507559288 -1.9468501123589566 0.1770371648250822 -0.42640357534219464
Ni 5.614352816011054 6.670993649582357 10.526090832250718 -0.27730710279143855 1.9171374157858725 -0.7793345354165353
Ni 8.512866965650499 3.1788654365273894 7.738334431901625 0.4117619141696199 -0.3233571030719657 0.16826301817687797
Ni 2.0523712663112446 8.377515678546196 2.2839914465727857 1.2570961535157317 2.4840520360026574 1.9935493161877085
Ni 6.25842992533565 0.6002455799933044 2.7926912664874965 1.493961860462672 -1.8257938337748687 -1.5369388782448306
Ni 6.00476814782251 7.606194429536991 12.72622112869886 0.2441532417472892 -0.33129615541338425 0.4254589520407382
Ni 7.860636276217662 3.6225762082490762 5.024883334374924 -0.5534641511388338 -0.08523438378947257 2.7605507839601877
Ni 0.4678566984180771 9.233465145694783 10.99769929190311 3.320429580376114 -1.8846582122112445 -0.39952449156316355
Ni 8.556244383287837 3.8901863654006843 3.0670954546267892 0.8799379454629103 0.3171846557126667 -2.4690378219820124
Ni 4.885768213537286 4.743944209650019 6.5861583416520695 2.1651419129584517 -0.2046047900307057 -2.292432859598342
Ni 3.8175006347546896 8.540466555720755 11.538529603636151 -1.000767195637857 1.1590697601679134 0.6297639514428379
Ni 2.3941808597553655 0.734875303117641 5.646952277983674 -0.16633469080591354 -2.535573858031033 0.6574375060987064
P 0.811181854816258 0.5427814133056396 7.248689658711396 0.11619380828546441 0.20164827850554304 0.30216247127222157
P 3.0398923997166944 3.4861012500820205 12.30221174672618 0.508250530716673 0.9730684441710079 0.7874422521253341
P 8.021822711227568 1.435624437463351 3.5330762724277087 1.3448602457055934 1.4874747100764316 0.3464132135604808
P 2.4302311991405388 4.373179191630172 2.0067186469352754 0.21376203104994154 -0.7418316533750707 0.18529503395850022
P 5.654749255043898 0.2886878117890444 11.919819983495039 0.45520327318270637 1.3917060024145387 -0.43211219569119774
P 2.6143368092155166 9.21335979155545 13.502475386538926 -0.37696408976414436 -0.8091374777105808 1.1475447902474496
P 1.0620641715931847 7.078431205013861 9.910668263680085 -0.6398745575142787 0.38315916283126267 1.0643809158337603
P 6.5487363806473216 3.408047900640397 8.797949743501025 -0.6501561419459448 -0.02114938038410551 1.8646218623856596
Ni 0.19980171611022235 6.57974413005667 2.8258135605331165 0.2500395253247371 -0.7785256663619947 -0.34043591293112335
Ni 4.985644926594354 2.254028432655665 2.217989237115742 -2.0090882923635722 0.7536083342950246 -0.0763260255562492
Ni 2.865630519612939 5.2044078953982 5.802809169002557 -2.823662624819008 0.9122631399581773 0.7046365323820123
Ni 0.21462210163953666 1.000392274669708 13.522359721080793 0.25854473458227084 -1.5559167048989138 -0.8905648290491373
Ni 6.796844808610659 3.2403144565458577 11.556334682385042 -1.4187444945895695 -1.2809197382978907 -1.8900621568356353
Ni 4.747779549723712 1.5608905446160055 13.4403874527261 0.2759259061731958 -0.40447875024464536 0.40403883449374933
Ni 3.1174257030466306 6.172353007313711 9.697141973490174 0.26549494064785883 -0.7341983051995291 0.1305001976058075
Ni 8.193484360772889 2.1777395253786946 1.2660086121752583 -2.3617901671462422 1.3755196224626633 1.0600738038179742
Ni 6.258420638797942 1.27490232933888 9.932388546726964 -1.4090617200841669 1.570457064606934 -1.52399774470313
Ni 8.033189433383017 5.465879651124357 7.163809775400106 -0.4242322787224887 0.6170791568863179 0.7814407831262606
Ni 7.869170604371957 5.0894962777907455 9.59921264739062 -1.2466703301967175 -0.7086803634340827 0.1561947741584342
Ni 6.210334946542293 2.9037517569071523 6.813467711109233 0.03899952119164896 -1.1820641641805576 -0.5418828740591377
Ni 0.7072822136237806 2.261689826265343 4.723893646083165 -0.3768604743067445 -1.4733171876291271 1.9226987119237338
Ni 3.9197361283897676 8.441007736860577 6.801058110769096 0.32286062305152136 -0.5014211664996655 -0.3055211033318093
Ni 5.7204329362575335 5.622729273024301 8.560949871944835 -0.26356687038721066 -0.4862100059768658 -0.7539513194567402
Ni 7.455176753318112 7.164758859553936 1.728236740088092 -0.725980288165111 0.014517734000200804 -0.3213752967552465
Ni 8.223071269912806 3.7686348733315094 13.067687120247758 0.5032517919505011 0.18301626522665254 1.2510682021540969
Ni 5.75417092775324 2.099073264448297 4.440627315008459 -0.14287877377581845 1.2885492298186905 1.0513209973260087
Ni 3.3234103959633057 4.176471749884488 8.000941002535786 -0.663623066084128 0.037452231309187116 0.6964020602873618
Ni 4.8651056671354285 4.375147937624416 10.556319441146307 -0.875124583234667 -0.2091456153238527 -0.3666395679096847
Ni 4.27875367620811 1.8417061583893848 8.494553913288941 0.38316867591295944 0.12564929727140942 -0.7011696568793343
Ni 3.2242208866966804 6.454180853697338 2.7958849068055183 0.04063911367760098 -2.052023915384834 -3.243480833634201
Ni 2.6183764531188007 1.9867340177861528 0.7016471425421416 1.143636970552611 -0.35211154949683876 2.415337504245079
Ni 1.099015305136102 5.711072106247164 8.207264654078827 0.15494933178710735 -0.5705272772687078 -0.4348126253414963
P 3.6597687917724198 8.606818867649416 3.836553824171629 -0.03188964961974508 0.834001330831796 -0.2916168345458913
P 8.963078313768275 2.245326946822613 11.704649047476918 -0.02497003968177635 -0.9420334292420744 -0.14688532383205025
P 8.303436967243895 8.131078827370425 13.004947271487781 0.8949796702873812 0.31492851268863825 0.11554049097218166
P 4.809423587034063 1.2267330582438531 6.270339909947058 -2.0451526421862973 0.9736004054150781 -0.7665772357508669
P 3.7758876592820045 6.303776088967233 7.561736058910361 -0.6296037717158899 1.6303020617890247 -0.2426859131731433
P 2.904373954933635 0.8516042961546874 9.87936705967914 -0.1745010286667898 0.7396387594888101 0.8929418139217461
P 6.338349868856723 5.337261103858863 11.826363053955996 0.19015313338174994 -2.239181970694002 0.4436451360314618
P 7.08393812187512 7.367660421951323 8.328734424616165 0.7199389670670374 0.474145618613164 0.15832930400293377
Ni 3.8412091655250005 7.258534317336388 0.2901857303214578 -1.7448634766773885 0.21722864944230333 -1.0858041187045429
Ni 2.8963039536647748 2.8205443790372002 5.6250564793741 0.9785618631854115 1.107130648096461 1.1039481366034214
Ni 6.887843591618211 0.3133184957538294 0.3030578002394868 0.13126021570028362 -0.034623503611140374 -0.1837194619412642
Ni 1.1361707425086107 4.420568393557668 11.832601749988699 -0.19329579277578968 -1.9056654105905309 -1.463211209543377
Ni 6.310276665363323 6.354536304082988 4.096170129663588 2.253086753700552 2.5532694755385834 -1.9761786861197452
Ni 8.183157730840813 7.185152096362241 10.422386208350124 0.06269789324985331 1.1180164417710294 0.12108738893233985
Ni 2.975545979933112 1.4646355812653298 3.474985264444707 0.6673349677180765 -0.16424541237705262 -0.3227706344408764
Ni 6.309756619251635 4.460704809534669 2.4313121521298315 -0.4986379473275735 0.5416851562260349 -0.4916340052059146
Ni 7.714726195738568 0.27294991633411053 11.192918101654088 -1.623572970595307 0.14840638846226697 2.617983113666885
Ni 1.4135967700183147 4.419212559052197 4.063386794244336 0.9133491739335045 1.4064037136360295 -2.19974896150936
Ni 4.193113225458478 6.721410262802889 4.6705452729079955 0.2635653277253138 0.8794491787519498 2.738613360457148
Ni 0.8501769553088602 2.1035029429353465 2.6121646880454517 0.5382468199684473 -0.48880399195628715 -2.75778453406896
Ni 6.073702117234189 6.958783453174971 6.394065380493839 0.1315047276109219 0.08373903019086869 0.7006808901683739
Ni 4.652601824747246 4.988347309067586 0.32303964342729663 -0.8648995630725492 -0.7212024071604934 -0.9872791884537513
Ni 8.903133712858615 6.076339493943461 5.190798474386101 0.09999740103126005 0.22563872788286946 -1.0534838093052823
Ni 7.74877992951637 5.966721202829966 13.091839547520545 1.0568753514853348 2.2416090920782556 0.7692041318507526
Ni 2.630077490631763 3.17443575804034 9.915561340398801 -0.9483899675877216 0.13467515491910356 1.1230429484513431
Ni 4.395327584065421 9.089663109275564 1.6037089126832795 -0.6390062959767124 0.4394071866907142 0.541993431495073
Ni 4.3661028498961425 2.183265015315371 11.235052051892232 0.2940488410261516 -1.6315050809581901 -1.022882796589974
Ni 0.8726884513685199 7.640025286409784 0.7766173614644766 -2.0634041321973173 -0.6150024768629473 -3.4199960645175422
Ni 0.5877821177344581 6.459929220539023 12.185512470609801 0.16854429686272263 2.2728582799005244 -0.9324722679162005
Ni 0.560151882089763 1.8734754038908477 9.616433602917635 -0.5639172281513579 -0.4473094722569264 0.9415989128078172
Ni 4.753258606971845 8.572226514684509 9.38353838102869 1.2364972463184576 0.9028099649650774 -0.987622430725783
Ni 0.9704524770968591 3.4087908236570934 0.3474288774116554 0.2715385757387775 1.4683320757097098 1.6175858997739365
P 8.629320148517596 5.149998070962927 1.297162160226634 0.4489228394906334 -0.5025051435924637 0.46862006080924457
P 5.933150369013015 4.513043736060902 4.680400146724468 -0.6888630715978394 -2.6231487170282244 0.7582936555858361
P 8.006490637470504 7.902527847821608 3.882941937334127 -0.8419504104755434 -0.6698757318620592 0.061472248372868334
P 0.633279651930692 4.012759376617816 5.924524104135403 -0.5286751171196121 0.7254670959741183 2.9274539456750617
P 5.832177844506321 3.2404909007623233 0.6103103295619934 2.0073859649604846 -0.37231450680727496 -1.0172178849947124
P 0.3978194883266034 4.116972902784847 9.606783961584526 2.098519744953528 -1.123184359125214 -0.12967667326324764
P 3.7978596075007887 6.444262831424446 11.745193142459332 -0.22626504861295874 -1.2628124871742188 1.213610057307639
P 5.412602784289546 6.532475653119388 1.5384951302777046 -0.07940029360619873 0.5770465664444643 1.2410439851488757
