# total energy = -340890.03423533525 ev
CRYSTAL
PRIMVEC
9.08335999869462 0.00000000000000 0.00000000000000
0.00000000000000 9.08335999869462 0.00000000000000
0.00000000000000 0.00000000000000 13.29441551818959
PRIMCOORD
 96 1
Ni 6.174913626072499 2.0136356047429125 11.364744113867607 -0.03691409941752998 0.25029946385434315 0.8630411697075717
Ni 4.378524745308927 0.5298024206851124 6.411670499252627 1.1852415334672748 -0.010142230640324467 -0.36405998010796653
Ni 2.8265781687226372 1.3983197068842956 4.855146817502095 -0.4381437465972583 0.4812403206764164 -0.4789492106493945
Ni 3.4393688924680186 4.032285224271818 4.787159683679266 -0.04086254254231672 0.7823021026852914 -0.1313535467450383
Ni 5.248837811803746 4.767619559390084 2.7656506223847255 -1.0922730142583381 -1.5445460011681271 -0.9804027730488921
Ni 7.290232165072011 6.088530871335553 2.532413551250924 0.6117996536549334 -0.042999386379661435 -0.45842975053980406
Ni 5.071666872671871 4.602393238815422 11.748394361893103 0.04268776867651358 -0.961275565301138 -1.1745539718464417
Ni 5.393426738186785 7.629858999942085 12.403437243570597 1.4046805602973358 1.270129332550606 0.931041963227577
Ni 1.6102526651936984 7.01066450731242 -0.012886563001609364 0.78977758512673 -1.5958122555422711 0.2859521800609462
Ni 2.8212008195318616 1.3315388432853446 0.5989794746836016 1.000116963648368 1.0066005144901826 0.09274611878548544
Ni 0.7659198253128241 8.849218345750954 4.514730638637631 -1.106224591342424 -0.489239536831809 1.9297815869124442
Ni 8.733251087104625 2.6832245793158567 1.5200303741342176 0.7970985442681756 -0.8658560134485476 0.07734983883507324
Ni 6.739953125669391 0.6771009133918142 4.751383961512396 0.7221184912168596 0.8007016882384017 0.01668260286200353
Ni 0.7309933973171321 7.454005148027545 2.288845974653155 -0.5189450343160418 -0.5820463336519007 0.8809699862718506
Ni 7.531050208561592 3.64076515303874 3.8778880856316857 1.39495150593503 0.32953623529948406 -0.1656456351586889
Ni 7.603762506318611 3.627085612698694 12.677236059318261 0.04290734088648739 1.5051312468159304 0.47641178893952146
Ni 8.257755351566283 9.003998802188132 6.993912974579941 -1.6038348687364314 -0.4059139400292751 -0.9944104001818939
Ni 6.9595433565595775 0.6671964175174541 0.4655194811190382 -0.3596155711833678 0.3680870989894887 -1.1673695382828604
Ni 2.0914527508871203 6.434061890283337 9.19370023660493 -1.21021697246569 0.23478311338629887 0.2304988841886482
Ni 0.1608208909166799 5.2172277185877025 1.3516303275337829 0.2777349343574765 -0.8330957882983909 -0.27880014239719725
Ni 6.569758207109333 1.9252635941397849 7.03055252429418 -0.12069915235498567 -0.11981803530161299 1.8448961018219583
Ni 3.5276500694699506 4.451691211071924 0.687014492626294 0.16475243392045819 -0.6696289059585757 -0.5288067576014699
Ni 6.144575203273193 5.494751620320396 4.73088463439459 -0.6501808245362931 0.32171262549000723 1.2742798643838698
Ni 5.484560090266257 3.3075057536124723 9.256981281549816 0.04685347001842898 -1.877341109724541 -0.42285262476614266
P 0.2975018439796367 5.471888802899482 12.410150755034957 -0.6073205348376572 0.15661077864993028 0.5138843319636828
P 3.839536322534911 6.12939690851342 12.697004175946443 -0.2891804571902568 0.630197696546147 0.815638512053892
P 2.404692424609894 8.4170139045424 1.3999283699614686 1.5701863274440506 0.2377707352597131 0.20221417831134206
P 6.456043621772654 7.949066441263406 5.799795378207296 -0.8913166196134973 -0.0042256080455733685 0.59729271828801
P 4.8452187048914235 0.8910503776477576 12.74588809510184 -0.002188008790254296 0.40937387355341753 0.40734038806315653
P 3.925891827191498 6.390888679635102 8.151617196905322 1.2660317654424649 -1.1748301083259636 0.08092727177368644
P 4.80873084729118 1.2953779866494053 3.9445326988288443 -0.21276547146462713 -0.5774229759472765 -0.2735003274508387
P 0.32727982345956613 5.646707151760392 3.6233132932410435 0.18732569123528384 -0.0676475239456448 -0.8253624242098754
Ni 1.3969299527860042 0.8804500963882397 2.7113166871575975 0.29994823722972214 0.9314888209570087 -1.9509548785559496
Ni 1.9543394298824728 6.234554968617481 4.973255024128601 1.3598996565372192 1.0308678716779793 -0.8602726058234991
Ni 6.118278875727087 5.711734926856269 8.974421564966844 -1.8356187902850902 1.1942421943039883 1.7409363737088404
Ni 8.463538875074748 2.407045014880858 10.643070244033135 0.5343971072050538 0.3397707685432987 -1.3703241943046527
Ni 2.4433966220793075 5.054708239328666 7.106729215600796 -0.5157748641181763 0.14901651124244014 -0.3434507884980472
Ni 0.42963203362269753 -0.10389728971946728 9.151410836896329 1.1665462710506167 0.07100872710839384 -0.29492687275573076
Ni 1.0664228114759609 0.7712435826788939 11.29645087080875 0.23621187541302543 0.17861505083516335 0.7401568367758092
Ni 4.300743932605197 6.889229065874121 1.4831519320488338 -0.6276368777975062 1.1125453913541292 0.21356431321683866
Ni 5.671940726172509 8.000696260182943 7.9739775563912785 -0.48492085485179715 0.23493223736965346 -0.02849553633653157
Ni 5.523945539744637 2.8975646280569407 5.234064634905305 -0.7322039004773195 0.46717664349449867 -0.6355167947662153
Ni 0.9411451087070906 7.556946868262436 6.796823135041898 -0.7617170794450882 -1.085906962830994 0.8400603925416822
Ni 5.013260867103147 4.6316507417605015 7.084727500719216 0.29368965791452006 -0.14154848500016912 -0.45312505049743895
Ni 7.896419286010478 7.367667810091198 8.966271974267583 0.41560442784416163 -0.16633494791622966 0.005103125554520244
Ni 4.425703717769883 0.4421062120748792 10.490210918261244 0.6275839130723837 -1.8617635670012582 1.051299400059454
Ni 7.980394950315743 7.137222963858147 4.499615019062683 1.1532091876220785 0.6049278662357646 0.44216855148593526
Ni 7.254025891635475 6.218849838970774 6.796158233081147 0.8939689696346798 -0.3574607296238941 0.7313531224412501
Ni 2.532050216846142 5.507713575210997 2.503378590628774 -1.3440989420595368 -0.29922035792476215 1.091302937035585
Ni 2.321152761590368 5.1549067848074515 11.516646961818909 -0.7179952130771053 -0.16552067954505043 -0.05045044334106795
Ni 1.341703123259124 3.0685497989474 3.515641867391902 -1.2968340955353022 1.7558372020800728 1.1279205882586187
Ni 3.4998822375844783 2.6192050571932497 2.7256874712027415 1.5332678571511464 0.25794361066316224 -0.5819607159166299
Ni 1.022541098738402 3.2980045589274205 8.251657691918027 -0.42361289997093504 0.15348071766138086 0.3472549927354858
Ni 3.3612519954398654 2.7533299527185644 7.545272025500775 0.9942962432015328 0.07669112220515178 -0.6299950936170375
Ni 4.30861012246873 6.956282430276658 6.071214353603637 0.3311488312022426 0.1375977278825372 -1.007476746447549
Ni 0.5723307127648579 7.159222862067703 11.039071136813188 0.15796137914055378 1.1737433030196882 -0.35231312398468356
P 0.16828922960697612 5.9162831133884755 8.008263607498542 0.4434304489174944 -1.434910819936787 0.36781816159881814
P 8.623814764384255 1.6191271080305014 8.201564777530718 -0.9054440601538147 1.0580223206055843 0.38895237247427206
P 1.7355394513226883 3.2361922933138643 10.466813090929287 0.5906009080901312 0.2515739596913925 -1.5209430170372065
P 4.059898639035259 6.3125628653242 3.8085838645915233 -0.39339498162665804 -0.9132686984045563 0.6427413375391124
P 6.9767654073462495 4.144855306233435 10.577209524814295 -0.2105628073863535 0.21004678698188342 -0.3316499392083772
P 6.179328139090601 7.642312286665993 10.237470964614749 -0.1737682642658233 0.7202161319878242 0.48666663389831016
P 2.5584101279130835 8.414179896185098 5.825692946244153 0.4365704885728675 0.6969666745415803 -0.48929867220451856
P 7.150920670918433 4.12993134555701 1.5360497880410608 -1.266879972375373 0.03996702731124085 0.5972037581186296
Ni 5.323566615507306 2.900071635449937 0.5181430196356546 -0.08110390656086677 -0.4210173713296168 -0.7645707468437993
Ni 1.4472245177679672 1.0913203015636548 6.940416525155835 0.1815563928516744 -0.14884656132347915 0.4076157532117302
Ni 6.754686335783306 0.7458192577042659 9.439088118570657 -0.47836145646672457 0.5042174982978801 -2.01222709510287
Ni 2.6261538276847074 1.5019335957680329 9.482428463045089 -1.0570247325790052 0.6983339872027522 -0.14320093300192757
Ni 6.354010237549718 2.1539553518697625 2.486122023073648 0.6986121805648032 0.03821070674176646 0.9097079776364914
Ni 4.1174417253926245 6.800448304065612 10.640451511310667 -0.317517356461737 0.04230878807054004 -1.6988893239401195
Ni 8.312237345563359 7.510903315816424 0.08039682041816062 -1.3670882038658585 -0.7443765312841116 0.46314618217886694
Ni 7.606914432280095 4.166737120761437 8.350049557069033 1.5175707581308637 -1.1665876658115135 -1.030665011638554
Ni 2.9547443800095254 8.696481645340677 12.414405400914957 1.2515160883247929 -0.5001253305063773 -0.9087394430756349
Ni 0.10724178291548657 4.92205484814272 10.181594674839323 0.09041412821819912 -0.5689344788602911 -0.3554912646023491
Ni 8.639592560911918 2.271239697733426 5.861241584408034 0.49107787559212845 0.0621762164184284 -0.6979462648460303
Ni 3.6939482265387205 2.487269251456747 11.665039091084006 -0.270007998026864 0.7532532649484511 -0.07063771692222028
Ni 1.4091107387063242 2.939656918850948 12.530691485501482 -0.8817670282518492 0.43757399013671733 0.9394540985506724
Ni 3.0134773865425526 8.600479612237125 8.185784255995019 0.4351862066308312 -0.8300549445895381 -0.32929969380864577
Ni 5.7123344286241595 7.701245127121649 3.5374046899023384 -0.2882448327498649 0.7150600417081815 0.44109125926135645
Ni 2.9679788357037133 8.385585478528748 3.509247181867737 1.531495595742072 -1.09403216304129 0.30478833893084284
Ni 3.5688976077728394 4.447821699660994 9.535991220998069 -0.648457156976967 0.27602669341711816 -0.42430529805226924
Ni 7.413665945736613 6.154067314598125 11.53172261460933 -0.7705346777367181 -0.616139675791184 -0.43777890705867184
Ni 0.6294332561564258 9.305539108076921 0.44025774829055025 -0.6077308829021985 0.43592231346590726 -0.27781412433484415
Ni 4.902289456522572 0.43517560830366053 1.8873950658013698 -0.9365376962348259 -0.7504988421317655 -0.5302576311153836
Ni 5.960591744051653 5.566210414380916 0.40780926093547226 0.8942314792674471 0.1163313623045932 0.22876364666509633
Ni 7.853963660811689 -0.2252237308363322 11.133727924283036 0.40703699789012476 -0.36761041646338627 1.864126667916796
Ni 0.31216874556467833 4.621204877623015 5.580331406022772 -0.749719797873896 0.6566533196345142 0.5509935781111543
Ni 7.923460449086386 8.903872923590303 2.6022491488580806 -0.15915642788991943 -0.0305948420677215 0.10954416417943069
P 8.64646866452242 1.608617660372179 3.6101914712123375 -0.9169428048220337 0.16530342132792178 0.7529236495231743
P 1.884651891045265 3.137165501290501 1.3666660135396784 -0.18440646070595984 0.9803922315259309 0.8703937534179012
P 4.667920598717874 1.162161427136046 8.517413192279827 1.1154281122185628 0.8526652257898865 -1.3202393618331199
P 8.609363138434047 1.7797390816644316 12.726704038529345 -0.443657734436952 -1.992018738475795 -0.6770203133266405
P 6.395621110257389 7.775220011935287 1.3324589876654551 0.17704204992108863 -0.40410311207278143 -0.2516945444296569
P 1.7948719596236062 3.0831467586595216 5.946991228944648 0.5115268874750997 -0.08157673243222725 0.3310251611401847
P 7.235450420190989 4.085350214090245 6.102761771634856 -1.0511970701536348 -0.53698877919163 0.05300920520717967
P 2.3566414495774604 8.37395877757572 10.272449167763124 -0.1946924160130002 0.13569871108761147 0.5143923819483528
