# total energy = -340887.39686733 ev
CRYSTAL
PRIMVEC
9.14365029980972 0.00000000000000 0.00000000000000
0.00000000000000 9.14365029980972 0.00000000000000
0.00000000000000 0.00000000000000 13.38265646811109
PRIMCOORD
 96 1
Ni 6.18804765859022 2.146746226180681 11.452516227010108 0.07974173610601751 0.549045453245848 0.6482746086525157
Ni 4.849618409523536 1.1335931942115007 5.890108212906008 -0.605302475966364 -2.6061802074946856 0.45384778759607647
Ni 2.963036466388766 1.9692313985332168 4.630746851400668 -0.5835373163751305 -0.31962746082620436 1.0975885129339806
Ni 3.3752596545432243 4.656385646946331 5.113807727447908 0.7204747849658495 -0.09102579366026904 -1.0422347187540244
Ni 4.063904536043232 2.89764107917672 2.6932859803292772 -0.3195225598172239 1.4507354456738693 -1.1125621035246775
Ni 5.3834338598628095 4.976715149211379 2.8288122512630345 -0.352763838368857 -0.49545235051074027 -0.6970368656578835
Ni 5.513365131155199 3.013628283704797 0.7117609439176217 0.3697781135386664 0.2524802735557458 -0.37098293248004494
Ni 5.6047376289753865 8.284522095216674 12.519073663139059 1.290024014592004 1.1021437364048308 0.4401821171835258
Ni 2.501492428315156 5.590875855064109 11.6517837988099 -1.479556997891252 0.8086569385297363 -0.18985282853251173
Ni 0.8201406313651027 0.1677750113082208 13.162270945002776 1.5340960094793965 -0.31015191723560137 1.20904146410035
Ni 8.043980085794512 -0.17583513908051093 6.896163029118378 0.20436979120176413 0.6737298155008267 1.1365237565465975
Ni 8.792131843689374 2.7333479699169256 1.5162686763011197 -0.17281798453741204 0.8221261766607648 0.30768468664203136
Ni 0.900055220947676 0.118172536958681 4.506703176560436 -0.5792075786515251 0.3081068617811145 0.5247719254104639
Ni 1.9657750987057345 6.747035578307955 0.4292395214320892 1.289137755332309 0.9228640554024751 -0.4641918498345619
Ni 7.59376503048876 4.253571274988908 3.820052525198984 1.2966435767910507 -0.3876992167934613 -0.14713214973553368
Ni 7.811813660081275 3.9785028418932726 12.512462803945224 -0.5782683546667073 -0.13064700759631695 0.7277384085067983
Ni 8.119808378041366 7.749069931467034 9.189629182975684 0.8883948179810118 0.23155869291173026 -0.013575167581273395
Ni 7.145159257642365 1.3424250242640632 0.14852488425319832 -0.0701522926453695 -1.236132149669555 0.5895017614886815
Ni 2.1076022590868937 6.702240835305743 9.269684584773449 0.6943220378298817 1.049313994198309 -0.11844635176506699
Ni 9.571938919051812 5.477832905944628 1.5378815226032891 -0.9891779481383609 -1.3661824042221375 0.9396376753163882
Ni 6.332727637876602 2.4551981266576344 7.354867049397237 1.49087782222071 -0.20257490408487044 -1.162458474134488
Ni 3.8778129643794226 4.708614177672731 0.7682010399893606 -0.48006326964917967 0.25878307584532206 -0.686560905827224
Ni 6.367756962318625 6.181903125563585 4.773071426360174 0.29388891840951964 -0.808954158055181 0.8354822862526966
Ni 5.331845384660017 3.0044297714655186 9.384159429535744 0.04327886529329321 -0.20591836663580668 0.2566917405339321
P 0.3290955198433735 5.962940130937344 12.618239294141688 -0.8806318862061414 -1.4746418199778217 -0.37997767977948754
P 4.0035838747683625 6.45141221925417 12.727722620184876 1.9964045262483165 0.6111005707053798 1.4945722403531614
P 2.609369214994088 8.841214958699759 1.4474279616419958 -0.43585829299719125 0.43844610832902553 -0.2455814895533835
P 6.440448982499801 8.14517286407691 5.718462694410028 -0.6654961147371248 1.0466896692015846 1.152711936270686
P 4.6300427903247 1.3769697352382118 12.728405650865069 -0.044972965166264485 0.07623243740117838 -0.22601385183410105
P 4.185103621263544 6.48821541186162 8.245817937704109 -0.38392123780826787 0.48620486377054334 0.610347237479123
P 4.988729905754532 1.3575577655722197 3.6340203872623666 -0.735411865891656 -1.3284265256296024 1.9806740028869374
P 0.23455840464146244 6.021057172480935 3.705430467666259 0.22487073936859336 -0.3464186128771195 -0.07781520850726599
Ni 1.0333970738158627 7.767549248798625 2.5158186996635665 0.07953270541900496 -0.24454507786906915 0.14243602981144501
Ni 2.169203031408979 6.616793422904097 4.648773558040567 -0.8954404119738837 1.1916091275565155 1.358719520186189
Ni 6.4103206546385465 6.114486991627005 9.347169706461413 -1.291183067897112 -0.4382473620546581 -0.46128907436547
Ni 8.375327686715952 2.7764054193550582 10.31941953301192 0.00708853141566521 0.015084919357580473 -0.06300411163636246
Ni 2.244162676873794 5.501981286485318 7.16401712209792 0.4113975888516656 -0.36472538160610735 -0.2556435017750759
Ni 0.8192875287886369 0.10149909056869687 8.91268904465601 0.3504141071897578 -0.7279135006320818 1.6340725845750503
Ni 1.4878456392277635 1.5596141507248762 11.291844003283867 0.3059707892747182 0.5649824361910786 -0.24359094148591595
Ni 4.474216701277204 7.385106929792605 1.9017421153939391 0.34350812409854387 -0.48074204088375916 -0.619384665091043
Ni 5.770576015142177 8.432301771967387 8.128197677225797 -0.821724827457288 -0.5136305640816639 -0.5124630261361239
Ni 7.194992151980404 1.260022447424723 5.244488778067953 -0.47802104240817034 -0.6934620038224315 -1.7945310191058448
Ni 1.052361004615329 8.008758744695408 6.904112518721587 0.24922448562260952 -1.5534618156005182 -0.8034849074104936
Ni 5.466449061274745 4.995240184794657 7.190875680598571 -0.6754809938639786 0.38671448428268884 0.3346103073882818
Ni 0.7369361563911853 7.5032246048492635 11.182976044908376 -0.08472607669448634 1.0034809950245944 -0.010382628785904699
Ni 4.6370468264830365 0.4452089067461047 10.386868584089713 -0.7320691746716682 0.751151645224416 0.09436102868108912
Ni 8.260684598787451 7.61045219235425 4.7336330337255275 1.479717434728516 0.6737637540625557 -0.2690294361636786
Ni 7.382638144201547 6.513086140778953 7.067340392717091 -0.29087764238702163 0.7420183154645802 -0.07749279217084072
Ni 2.85940233346632 5.814950150228875 2.582156797225384 -0.8678172509399764 -1.343257419994848 0.4264804513267171
Ni 3.7788786677303254 4.609780461177343 9.487031896385098 0.21341956010885824 1.7935565710077175 -0.4991133443020952
Ni 0.9715311356339967 3.629151393457778 4.247802545991134 0.715307124721981 0.9981642107973713 -1.49803243098762
Ni 1.5414548611550885 1.533161570299198 2.672436628830269 0.27710270009011634 0.03891955988333297 -0.8298299730629256
Ni 0.968742322281134 3.329248806046158 8.544572082633369 -0.290572452441777 0.27050499226794056 -0.9299860111592371
Ni 5.393866764897616 3.1580613844320737 4.932071276439732 0.5547221919156511 1.1981615839630526 -0.6345143216436298
Ni 4.2893046605069 7.3384377384712565 6.165296427821062 0.28346823729682796 -0.04989842749233987 -0.4706867135302862
Ni 8.394776230983293 7.666429619718925 0.05135714084925902 -0.3874601041994617 -0.23744369093759754 0.7611779191121665
P 0.218502154649243 6.1850942595312866 7.974979357254486 0.3983968057166236 -0.1490267956550853 1.1633020530817062
P 8.713597030942692 1.5754143785076526 8.155806015054106 -1.5950411817042014 1.8098005436704059 -0.09395376594034142
P 2.048689719963961 3.9682802408162217 10.49227018462235 -1.3304242727859217 -2.855995275513443 -1.4641200945108914
P 4.457831279872843 6.436700085861527 4.081496004927077 -2.603754114551696 0.761642774563727 -1.0557360956745687
P 6.601505239540207 4.313288455341519 10.546389622238493 2.0588702488827058 -0.28735805926953734 -0.10040055000694967
P 6.424017842843754 8.079055128488221 10.46872985682909 0.31183650402687585 0.6135024952786531 -0.1970758286435122
P 2.71118376149942 8.84693888381088 5.636346313826243 -0.9360664130253621 0.6347714319597584 2.3398918244112537
P 7.147152573415887 4.472095374398961 1.6656192321797723 0.11908347112843364 -0.037352986727161475 -1.651252953009079
Ni 2.7174837365817885 2.119818175937466 0.40830239088984316 0.3705923819098456 -1.9274313415127127 0.26715921572415924
Ni 1.5733662008321074 1.2489860614676562 6.967466128813324 0.29046035234394496 1.4972073639831636 -0.778924187351994
Ni 6.8295935972030275 1.0397884854016037 9.42279500967078 1.090449073675722 -0.6042876615486045 -0.8274061941127815
Ni 2.9092626587553707 2.183201960075316 9.289986231617256 0.38692402919033364 -0.8323753651925988 0.1312861838422126
Ni 6.731244494175515 1.7779096588764973 2.6309637739955827 0.7566676899466388 1.6414971591738956 -0.08083856871462206
Ni 4.386501663591918 7.234977334905219 10.602878179657022 -0.9124379749731448 -1.1129166586506187 -0.711806053547258
Ni 7.400166521898065 6.278140045363191 11.625500375915463 0.4179186777996351 0.14373083736346856 -0.6971772478904896
Ni 7.690285403448822 4.287055322523935 8.117731855049776 1.034017473050555 0.03929802626867425 0.859676881221029
Ni 3.2941463324014366 8.492924173703386 12.67805979774311 -1.1337819321354021 1.6753853272809083 -0.2054625100453107
Ni 0.38024875729011176 5.268507318773853 10.107103972180864 -1.4569734561637813 -0.16715153028025406 0.12093852205930142
Ni 8.78820921769469 2.735871617410008 6.089671124611695 0.32908320692246545 0.4318352878807273 1.0029114956743697
Ni 3.487909426698203 3.267913199583853 11.89443799145997 -0.3602632320696957 -1.333752051607574 -0.47598215760127055
Ni 1.043884840752694 3.8040328498081135 13.10764312042788 1.1819291812645902 0.8879569591126449 -0.5187630002122228
Ni 3.144601931135635 -0.2705907875254824 8.067587162235236 0.8896379463594937 -0.6434920996622079 0.2669031338492952
Ni 6.139878908613561 8.590925818018082 3.4872391971284826 -0.6843019345897182 0.14043802554480972 0.6490122581494887
Ni 3.3361979803024715 8.668820575241156 3.692141086266093 0.9841959215427373 0.07518317020105761 -1.4126867184312637
Ni 3.90560051775434 3.31062319030917 6.992638598191786 -0.6114098744156825 -1.24351224418371 0.9754382299547654
Ni 5.175571256745996 4.668656425698927 12.05848239343059 0.9241421507839503 0.35205652788918723 -0.387594572894797
Ni 8.310435200272455 0.08359856630345316 2.4059879149075627 0.829616828610855 0.04662592738865519 -0.31883478972157997
Ni 4.741805628396965 0.600968247146139 1.5138995564987372 0.0351624068337459 0.16833552328602622 -0.7935388519413752
Ni 6.039765081070958 6.210742198727286 0.2487182615537352 0.5653099947338264 -0.6579908074990152 1.7642668209046648
Ni 8.060054623087407 0.1161344172985069 11.525477984876233 -0.09358738373985818 0.30178220511466736 -0.5306450963617894
Ni 9.183608089228601 5.4760864687302115 5.89326734409753 0.1661400582966042 -0.9982863381975324 -0.8186171350662418
Ni 7.404902932772763 6.730549576749884 2.5046040125249234 0.7369028486148856 -1.53818149240268 -0.04298961618764854
P 8.736181847275711 1.9827914319833655 3.7656926095789705 -0.125888409865409 -0.817883599334327 -0.12757891019395448
P 2.2273292166029077 3.6228879929767586 1.8491350375435773 -1.8346070611911245 1.0155350979756512 0.3167213429230029
P 4.585860671895085 1.402315933973082 8.04054115890267 0.1421773768334197 -0.655653160504774 1.146298319434858
P 9.038827529788508 2.0092714433600554 12.71419276078084 -1.0756742293593926 0.43135243470703777 -0.5726461233839234
P 6.663160873764316 8.261233217807685 1.2285490885988581 -1.2021269963687038 0.7721295330276637 -0.3027286281883367
P 1.9031410938955389 3.424132465595851 6.223015720574983 -0.781425613617609 -0.0604152678632637 0.24134071199915855
P 7.073875359613128 4.258152243807873 5.965961193008773 0.3453346357843214 0.05466499564304779 0.2840976433507107
P 2.403499927650796 8.8769849188191 10.345958063750768 0.8577734935507292 -0.33064052410725636 0.38726675724173304
