# total energy = -340867.973157441 ev
CRYSTAL
PRIMVEC
9.26173494866006 0.00000000000000 0.00000000000000

0.00000000000000 9.26173494866006 0.00000000000000

0.00000000000000 0.00000000000000 13.55548528787816

PRIMCOORD
 96 1
Ni 4.135170022014565 3.9062569885592135 2.6611992218771867 -1.5666772858495277 1.827495132736691 -1.1249000562647402
Ni 1.3209178566287312 4.677564987957507 10.126598203322645 -0.8738130635120952 1.2339459406515134 -0.5342302426098865
Ni 5.466136860731783 7.1082979834795825 3.9559517519638114 0.965998167587788 -0.594517212425402 -1.0103298996256276
Ni 3.042183454968946 1.793849812743419 12.630594298397313 -1.0497431113159275 -1.454034171029799 -0.9305354559048039
Ni 0.5175336916386779 4.759911070675242 5.823531455685868 0.2080351558684933 -1.4840206900895603 0.24804512060252765
Ni 2.00267414375644 8.626657499244144 1.6033701995393086 -0.10897929281489618 0.49055234210596166 -0.3260418489929804
Ni 5.885582299278715 2.350220736263806 5.976165768788617 1.2573712615539894 -0.12811909896814067 0.7872705024341603
Ni 2.3778299672368766 3.8836954029669966 4.383423409753032 -1.8473808159170249 -0.45986879697917576 -1.4283275102923143
Ni 1.9122333049600524 7.206805793150691 11.053942350958344 -1.0953375121162747 -0.9668633438015606 0.6719984346320168
Ni 7.324114924148647 1.8997762718641853 3.7171444073885227 -0.1126307735245544 0.3065893966953236 1.463025833005448
Ni 8.382953475562696 3.9780724789869844 3.6693881250448652 0.9104895929975222 1.3078379028449734 0.640111356115433
Ni 2.0636163577124282 1.5189893137203379 6.568459256298319 0.6842744237858924 -2.5213667132927156 0.2667969472887341
Ni 8.923227504272216 8.875696282080403 5.032175505477675 -0.019738616079507942 0.07018905942057589 -0.16706642676561553
Ni 8.325910451891733 1.8943025866897187 6.32723922984833 -0.3273109455133911 0.8702711117971078 -0.626302732367115
Ni 4.855936735461821 1.782115194949766 3.8078306821529697 -1.6270007653299337 2.0990285662691464 -1.046020925269334
Ni 3.036422656020523 4.073616533572087 12.048412772771677 0.28290105193944826 2.3444951275112205 3.0169293641290746
Ni 4.279699391130554 9.039165898542894 0.35302953941647686 1.7120346030728255 3.439078277959974 1.5801542372900401
Ni 2.3224725792710794 8.126310808583906 7.832792545120955 -1.2817967415862053 -0.7246029482016101 -0.7019258183190685
Ni 4.128344123582109 8.266718705783417 5.58418229963392 -0.7360006485155904 0.1954740313740311 0.7631327288456922
Ni 8.90374081458173 4.988185044440174 1.3519807884504622 -0.1488452757718985 -0.8738845401799787 0.9173935192062072
Ni 5.931214865868557 0.04666617617608575 4.35281522910231 1.80115135263584 -1.6940564213278504 2.4883987430071275
Ni 7.124441186963669 7.33134833890543 10.755423676961225 0.05172236807495608 -1.499985698059249 0.5769012991158516
Ni 8.991171589618892 8.077084688952283 12.789233920243081 0.998263969600029 0.25201079011849503 -1.1092602928449542
Ni 1.2017285934980904 6.074864370193387 13.614044182158025 0.11384536265794588 0.7287668497713127 -0.807200408588868
P 6.18675538642474 2.731887559198811 2.1213253001042776 -0.6346611316341393 -0.48095467111519746 -1.6765474659098092
P 3.181998601151257 8.35776155733165 9.691547668074431 0.46479554485683183 0.572117504573963 1.9757557396497136
P 0.10358416642935749 2.9015254909340524 1.1968791492386137 -0.9466344183491955 -1.4558843368646603 -0.48772412862854714
P 7.71489529397312 9.060069633633878 9.70572738381404 0.7726931188406176 0.23884905592555636 -2.9304112285311725
P 3.894142639645166 1.7324815589938172 5.728845963902243 0.2624772368674576 -0.13962504272521115 -0.31073632898416165
P 1.732926122256718 9.235042324523928 13.053593464527058 0.12053228775981822 -0.5131438542532323 -0.004541596624095404
P 0.8854931473009077 2.399502426303292 5.329623522949976 -2.0625944918118284 2.5130558794341753 -3.3092491382792617
P 8.131775232023728 0.08074843349168491 3.013140507473021 2.782607763760227 -1.2520855876750179 0.6242808168410796
Ni 2.9088978317104917 6.113847011309004 6.4654104181313725 -0.7002882827156456 -0.9495220243096356 -0.4398216485203135
Ni 6.331377372887166 0.2563175800927947 2.121256763267914 -1.737326801980711 0.3113050570034381 -2.8216689914277473
Ni 0.128531574865809 7.020237410486643 8.877216132735445 0.48695254056984516 -0.1945270940797295 0.8470496793753219
Ni 8.78492202083684 6.684582885261874 6.431129033520931 2.2758793261150356 1.3908076589699854 1.4975313229814855
Ni 1.6494130609738686 6.313279943393245 4.238204041406083 -0.2381332608054544 0.23984021619423207 0.3736005726085501
Ni 0.5332462244618291 3.1563806431265964 7.817000361379868 0.3972524076995352 -0.01016202813466637 -0.16984398951075264
Ni 3.618957979909553 3.1073675433917805 7.692737520011371 -1.5385381044111504 0.6633798397250704 -0.3610304492530234
Ni 7.871789078838537 6.512555425988541 4.530880413189914 -0.2260462477339333 -0.037513937785057974 -2.1682966565373496
Ni 3.8688488423330374 0.5400934248839662 8.00574710403213 1.7298667461582402 -0.6238108191831966 -2.1176235556625143
Ni 0.30381731238681947 1.6470420569050641 12.64846018452514 0.05622925480637413 0.2334620805820302 -0.617077357114105
Ni 5.504369301341255 3.8807501713502783 12.270845370496785 0.20377535215087486 0.4421865492080643 -0.7005394794945032
Ni 6.034029382149018 6.381298122617071 13.027512419770211 -2.181129803746276 -0.9441898134634449 -2.7037664279812916
Ni 7.71233905521144 6.987960265253115 0.9232337898007948 0.7200472105101277 1.4040768652750657 -1.4481931388679898
Ni 4.045173746481079 1.4706986292877353 10.182853053375425 -0.8109480485567582 0.512632976055085 0.3522976973657158
Ni 5.722659125160206 4.348884548919495 7.910506834343343 -0.21441869079733394 -0.05407107081279075 0.06748862977027732
Ni 0.23134886966666254 0.15851180990768363 7.518861418503142 -0.46802742153056814 -0.7559300404496659 0.6360145603382402
Ni 5.459653646481147 7.2203001405266605 1.5590842891666707 0.31256309778025526 0.8373851597023643 0.053627041296836674
Ni 7.163414566344641 7.067490780639144 7.872808795822816 -1.340410694574672 0.49805533535122604 2.46579771777816
Ni 0.16046696209098288 2.0105188329997103 9.908761278327775 -1.3574092860151976 0.8085468953144332 1.543590322123077
Ni 2.9150105765753778 2.0695068209458642 2.5185277567307383 -1.5033175906459593 -1.724008230494934 -0.6159103333891973
Ni 7.067833464820963 4.520356304114202 10.164539825464303 -0.1275745393185803 0.5159239881015308 -0.1281160136443471
Ni 5.987433595156224 4.058075342839847 3.7520907845463856 1.7558238323436344 1.6301182279129924 2.1135208463480506
Ni 3.1813688031954808 7.349760667377239 13.427453571330833 -0.6926667616146458 -2.7789354571149625 -1.1320654636649277
Ni 6.025221472502794 4.88238824960442 1.1896049828493989 0.3100115350029951 -2.1773546529745595 0.22588298268319162
P 7.911466350052437 2.9533171110619993 11.394347219881903 0.42737648077842527 -0.27533738065957747 0.7613506972446049
P 1.6676031078142275 7.905316558248975 5.813350956965439 -0.9429312584659955 1.1129541967567735 -0.9001537582891529
P 4.134104922530532 5.153636672116433 0.19027122417462597 -0.7203768259354044 0.24494231330748786 -0.6666888494936454
P 6.6026350571338215 8.318815963154607 13.079240133929115 -0.3300095753914768 1.395257467211223 0.5708273250076298
P 1.350731380447018 5.252561259846511 8.027422341618939 -1.4949720468947414 0.04613896044990764 -1.2225711231556686
P 5.199491520337724 2.1032751054570396 8.475661586999879 3.213992851477413 0.5970762314018297 0.5634870825924747
P 5.284458673959645 1.6625647241680181 11.951735081866177 -0.10440607162191698 0.42722889945696746 0.9841689249595438
P 6.5909282245441 8.1131684071244 6.101038958470139 -0.23089457696517007 -0.45530637441947397 -1.271932447197616
Ni 8.0665077879891 4.787029429712193 7.92761325823038 0.5733644896071868 0.2414330146026487 -0.740752561378279
Ni 7.854145474342161 4.95459273288723 12.72128057316176 -1.096639261646834 0.16971980522806254 -0.41671025931383077
Ni 4.035282213881535 4.061594802004478 10.044166912646189 1.0379314633929801 -1.304699871436624 -0.9284788304860913
Ni 0.6129703101019133 4.019352030294256 12.316445521015371 0.5341623654864285 -0.27896957809552597 0.04158913629569611
Ni 6.941151458363515 0.3328083941687398 7.576825058597695 -0.6522868151357024 -0.5276641593565944 0.44257195757194095
Ni 4.167586093267751 4.039848249060912 5.6385940644925885 1.7443574835752473 0.7319064238415588 0.13105684144022592
Ni 2.0653668255601003 3.5747146735162763 0.8047660157989034 0.6792458602230497 1.1205379226413026 0.2081865938446931
Ni 1.4484797278773378 0.21419706327986995 10.776393170368177 0.5896994793217845 0.14738540339692036 0.5574388195158658
Ni 0.35438545736832444 1.8673694623456436 3.101359456128369 1.0974249907729228 -0.7244057445891394 0.4262145992598402
Ni 8.623712267627427 0.4859298745137509 0.8720840078836615 -0.059646250907723075 -0.0515894420415176 1.2554161947101474
Ni 4.603045071013756 7.05651562508628 7.773500772278486 1.9518501366767096 0.2733342341866196 -1.1115503744307116
Ni 7.456242830576631 2.252694670464937 8.67182327440794 -0.6412200157985796 1.2813187735085223 0.32352319633618476
Ni 6.069066524306389 5.956286381549235 5.964847002880469 -1.0494011545954764 -1.0025276299723895 0.506502951897947
Ni 4.053009173989706 6.288828963933698 11.31987361161137 0.8873460650015234 -0.29286356246879885 0.7944428518128834
Ni 3.1517960844779322 5.956304905018523 8.992613641702928 -1.9075348596991017 0.13704468359254462 0.45948493127719575
Ni 7.335127126640087 0.4913479892803547 11.641504944412011 -0.08730077940019802 1.5187413814001973 0.7883066570081585
Ni 0.0615433005343691 7.328171563922617 2.47036488423622 0.4242304789502759 0.561467995279917 0.9522764471263213
Ni 7.24881702149482 2.670917560038892 0.12206225321713755 0.4741507608194867 -0.38688854796670785 0.09192670820798361
Ni 5.354745978171194 8.491556575995512 9.348323527125311 1.5120909659632151 0.1935207643024022 0.5134593286111222
Ni 2.313414602789475 0.13647165997591065 3.88689996315374 -0.24476567852030745 -0.3639838754543925 1.357117980027024
Ni 4.595070717485473 8.817615944129338 11.563641541261859 0.19083936081549713 -0.6428033011252994 0.5485554009833069
Ni 4.484911645632504 2.682485466608957 0.5567534331611748 1.2565757622358877 0.09734093724501947 0.8646540227206463
Ni 3.4621845975945043 6.664707202716349 2.355915776896259 -0.45315307552189704 0.40842282249405787 0.7491179026238389
Ni 1.9649881454909506 1.4689481614400635 8.714861629124062 -0.10035812680478846 0.016509567619248985 2.6569782639831594
P 7.190310643750141 5.908004958851276 2.5889345373191928 0.1533994708014842 -0.26215970562703883 2.3804517481114877
P 9.183037684499176 6.2256083632553425 11.616833535667945 0.4003181911090525 -0.250039268214421 -1.0998991633450284
P 4.167002603985193 9.154066978533471 2.668166824849693 -0.5487400061902872 -0.5816159309827015 -0.27728010620824506
P 1.6576652665414653 5.646296123022345 2.205504280108014 -1.5246495193545162 -1.0480839784459497 -0.9251520801057034
P 3.8794164815615755 5.896316649730842 4.460486599029962 -0.5564162917886224 -1.240167238970877 0.3914322014733323
P 5.252894682293687 5.7902512645904185 9.623065475944951 2.0621124099690875 0.7440533436167379 -0.7220249030617888
P 7.298469180920056 4.09798415741984 5.792950134065613 0.6456055464607848 0.09442864869423093 0.12129950494314594
P 2.2238351053149583 2.857643392191884 10.678021508196332 -1.1725875921486903 -3.356096437650104 -1.3999358465234988
