# total energy = -381171.8273488711 ev
CRYSTAL
PRIMVEC
9.22177991929069 0.00000000000000 0.00000000000000

0.00000000000000 9.22177991929069 0.00000000000000

0.00000000000000 0.00000000000000 13.49700706367892

PRIMCOORD
 96 1
Ni 6.314143303088006 7.471199995500954 8.410821878665558 -0.914042086235471 0.3929668929503039 0.15790790019479903
Ni 0.6258886399438224 6.769238128708305 4.340016645962297 -2.0809616814651064 -0.23945686471288435 1.4800817600464704
Ni 5.363589922328867 1.6597820099142762 10.716717735647272 0.7704166641016151 0.88153254364354 0.7021191652767973
Ni 1.385572392086118 3.118243348336825 6.835086246283619 0.9647028458151321 1.5217508576504823 -0.7186104780636011
Ni 0.13412894062172492 4.088900208728229 9.042737873787202 1.6579609611568737 -0.4798454972114187 -0.8264281464702283
Ni 7.138266084875429 9.175486313995647 6.5560499489877895 -0.1425041640452191 0.05972081289940037 0.4555565427570671
Ni 0.6027253738244085 4.336966081254795 12.955290912487985 -0.6607161768499783 0.5316658243168199 0.26550342528829113
Ni 7.123520459218552 0.8741140492582959 13.479568451204251 -0.2369770357138241 -2.6246602685767444 -0.6496658325730875
Ni 8.906828207515481 2.1918510302549934 13.01400321697181 0.44837339474506654 0.0754384807449733 -0.21119864119813953
Ni 4.122734918256109 4.751909278288452 3.178706868775772 -1.405397126748386 0.16002468942748568 1.8441042020482818
Ni 0.7175429856856175 1.2752799074980983 9.052766559154215 -1.380395462497726 0.3389873534100549 -0.10802747042458814
Ni 3.170300294448812 0.9385374018780206 1.3037134206862457 -1.2566613799711583 -0.2677284579640679 0.2234653743806345
Ni 8.851912509712665 1.7691799818764564 6.675538392240623 -1.1518511309322872 -1.7773082274696552 1.9599303425816825
Ni 6.956569360474279 8.666416412096611 2.60947038774245 -2.080628466495404 0.019598748067533988 -2.7921334438624754
Ni 1.8947345117816312 4.768360933180177 10.587335245010285 0.2756716240705446 -0.9741688763240385 -0.787255847146141
Ni 3.8772142569123433 1.795268396500161 3.3318031657771487 0.03269234802669854 0.3934235208717482 0.6999237002873753
Ni 4.294296906824297 5.403280461933116 8.771110354260435 1.516649274757859 -1.710689401898841 0.11757834733781687
Ni 3.7057629296999304 7.359146151000199 8.238802489826838 -1.6804095199683768 2.0620334771020357 -0.19953303193475314
Ni 3.3754203391554447 3.3373067238709724 1.2862280042959995 0.5520369317740041 -0.6936754053848183 0.19012922212234998
Ni 4.286836487089204 8.709537453729853 2.982176911811091 -0.022322317646284135 -1.0630020332083627 -0.9004175534735008
Ni 5.96805913468468 4.0485825881079265 2.1816296096933407 -0.4393372526847272 2.142698496353271 0.6257558587247094
Ni 7.954375140148888 1.4423877764963848 11.044344512085473 -0.09873653204096544 -1.8417765823563699 -1.0338272114166196
Ni 8.066161553039855 4.228600948613171 6.666927094405481 -0.0959330011538993 -0.9805989482200983 0.33800724888497274
Ni 2.8993459648363378 7.792726564702115 0.9049323146633715 -0.24396143745145726 -0.35739079561790704 0.40345467985550515
P 0.5646532565483517 5.314843595110449 6.125332897866523 1.1603997918332467 0.9722343783054869 -0.10387513881911141
Ni 5.163846175156918 4.199847439671245 12.992906551671476 -0.24367115990454807 -0.6050181119567258 -0.1434960956448432
P 4.214076645667843 7.238967918629707 11.276938082718914 0.3354279181935707 0.35382853218794547 0.18136664543837153
Ni 5.775379270722967 2.9454271977365325 4.2262770601419195 -0.4970641750825504 0.43199803871083664 -0.16174758565586336
P 3.028063565160717 3.3329909309957895 4.567171210959449 0.21744205100469002 0.49853767430428336 1.5740494099438829
P 0.6126636857508725 -0.06815725119913005 5.562844915179481 -0.788839646693493 -0.012960673925726066 2.8354799291689106
P 7.255770001148049 7.242121767269265 10.846950474367791 -0.7235559949943345 -0.8409839327972161 -1.2987266845723247
Ni 2.8139338417381574 4.608363056290366 12.614868916788422 1.201159233138796 0.279505395994338 -0.28531223248410215
Ni 2.0409734934368835 6.981846258488974 11.295981979869643 0.5893459526371075 0.7350351992785277 0.7041295108386068
Ni 2.029713700486886 8.573460873246507 9.495765176410458 0.8227812937462603 0.5204619851812005 -0.6283812121626984
Ni 8.165507785185904 8.239106808555217 12.432241714820808 1.2274104535258408 0.38272181818352796 0.40669195584588025
Ni 5.855931515946742 5.472987894291047 10.894203795461225 -0.2582567710282069 1.4405245665791384 0.49421025057352314
Ni 2.320780731511273 6.514043820513969 3.0346267057360765 2.041337125094949 -0.2241307758787753 -1.9162938368386548
Ni 7.414310836853504 4.932914369216015 12.942981681014064 0.2771654350072517 0.19493281415858044 0.9706503216478187
Ni 6.964546199869649 2.7958591536284145 0.9046519725620775 0.41260806421999907 0.35211386348968393 -1.293656726248585
Ni 0.8387789561817144 0.07839158225228927 0.14065334972256305 0.1994078192107985 0.5565209356872867 1.4578345186124957
Ni 1.3314405455533693 3.89815691849256 3.3690148910120636 0.38742076632109407 1.4542609423286246 -0.8125994681172521
Ni 6.611979120373899 7.520619512633663 5.005270296688801 -0.5684570250032404 1.5882560404615678 -2.2935320061997917
Ni 6.06862264174424 3.7417002049875148 9.296576580373307 2.3406767822063945 0.5700505947426053 -0.980092440897325
Ni 7.849348291739778 5.801937996108711 9.105552948036344 -0.6232300069790622 0.27121538807140383 0.10800021673107851
Ni 2.061722497644496 0.27474816975959104 4.184247877218979 0.7223532329354849 -0.186280280689905 -1.3141304207219044
Ni 4.717668810456068 1.746097867417944 13.20103105218737 1.7002370962172653 1.3508630002562476 -0.03309755388491719
Ni 1.1014493611365455 2.638286604785982 1.2066606451386122 -0.5329724589433854 -0.16752408312832437 1.7914086714267794
Ni 8.94470205652911 5.923757705256515 11.35785274388285 0.6478295506952972 0.8365737195446623 -0.40778930267511704
Ni 6.339659967373546 5.384283595858592 4.4846372052893555 -0.06652857984985318 -1.6261047358782252 -0.15399082452857996
Ni 2.7573121147004946 5.663482196476225 5.279178362322476 -0.22231634837785583 -1.3099053268969634 0.059938585337161294
Ni 8.047496671032652 3.5370043621446823 4.107625032303144 0.042227798320959534 1.4240052287678766 2.1230323853829116
Ni 8.96842969556297 8.158462345534964 9.915481566589829 -0.8639590535361508 0.9296965049432764 0.51269108298653
Ni 7.781300779718457 6.552166657578089 6.6082424552606 1.8988517301028072 0.5922980932868961 0.20168170284663972
Ni 3.7863612838219445 5.518220723463642 0.9333898044786031 2.0732455437677713 2.054977855806835 0.9191385269217718
Ni 8.411572531528892 8.751063127484022 4.053718197193802 2.4105660509983644 0.5625314035474247 2.0118997936704384
Ni 6.088458689766719 0.5856862915691173 4.478360862061044 -0.18815435778416625 1.0396903550656158 -0.034635587795998415
P 1.0699293183002703 0.7408178353387699 2.3456444937977463 -0.6553783095768326 0.2646523901419055 -0.8414984105397895
Ni 3.9902640536150633 8.896841020156883 5.251995322454574 0.7121418396201219 -0.8594303124278618 1.7923036724372228
P 6.739488667564413 2.795434951764615 12.16671440253108 -1.8275033602668074 -0.5247683258660382 1.397347259860716
Ni 8.473312346271099 4.368753555700858 2.058198855641061 0.43575107799536567 0.6580535424161505 -1.404411108686033
P 2.2864388241027624 3.0830899243193053 8.753915423929095 0.4410287814545373 0.08750955297689444 0.9820377375491538
P 5.710384167765077 1.2093902919143693 2.21294216248754 0.5127319635267944 0.4372281767615244 -0.534761689633324
P 1.7985790153937313 5.144618764591196 1.1641519296739853 -2.0922274841869126 -0.08835775990980266 0.5858520805512362
Ni 2.931991064789648 1.746992380043783 10.417542915956515 0.044836182478084075 -0.7689416222179855 -0.3358297816176797
Ni 1.1174860359441179 6.433500797069841 9.229549919359 -0.8693529708582125 0.7159707264479088 -0.7554034785222346
Ni 2.015798034998314 7.597114174812393 6.452150002051644 0.04783948808078213 -0.0909291201814047 -0.05509848363604059
Ni 0.5251702069861772 7.83061885727504 2.0399507980739395 -0.4046307024414773 0.13688398964496426 0.6934463200931477
Ni 0.6197589230119112 2.228959471557852 4.801776051734081 1.0140772824832018 -1.0807485585585064 -1.8514189905421405
Ni 7.984659464512354 1.8304402640769761 2.7374225803560597 0.6478159238485425 -1.6295680118364775 -0.31655730654131287
Ni 7.9950063012772175 3.873562432171804 10.942265866629771 0.06612491665353129 0.3256312438181231 -1.008816548304895
Ni 0.7768270405076076 2.6092011117767333 10.937070315976188 0.7097561129967647 0.8365485227336819 0.33807718289095967
Ni 7.0365682989191844 0.41367520233208077 9.020319727463331 0.07953733340469527 1.1252561540525783 -0.07012118229711795
Ni 4.7193379525723245 4.076635241796619 6.3517451096020245 -0.12602827787738297 0.7999193015464223 -0.058307991712273764
Ni 5.595121143946877 6.631999603989334 2.3443488337572265 -0.607935799824153 -0.35577691416356794 0.42804599604162413
Ni 2.137940506433792 0.8388785514019109 7.260228731607775 0.24438361259054042 -0.9161917855886221 -0.40762552340374314
Ni 5.948794837000367 8.733191318526533 11.721407573828987 -0.9969455078989217 0.11498230447586648 -0.10059749650910417
Ni 1.2778804493587859 0.31184462274890773 11.503147415302163 -0.7313299825127986 0.0863579558709545 -1.0474016076669446
Ni 5.5547113055300965 6.580846392282833 13.26385903692802 -0.29139237723991107 -0.054722845464176724 -1.1810552633000693
Ni 4.455004860746991 2.461615750292898 8.513831001687723 -1.3937955379537157 -1.452698482937511 -1.1732663633832698
Ni 3.4076043501263635 9.270470644368272 12.65676438390647 -0.3733879423771118 -1.5841710717589168 -2.289013292393832
Ni 6.691101989752261 2.382917082778336 6.2390992268478795 -1.2171702638550717 -0.5891407786048369 0.5971500220625586
Ni 2.2051211711682175 5.228564624725373 7.7534639156735246 0.2103247232336184 -0.41162975946712976 -0.9038165518527209
Ni 4.446179617624019 9.010305796943756 9.663424507831683 0.30210230745824745 -0.04107363011185829 -0.10032110291926594
Ni 0.7508723416887965 6.8831455509182735 13.322854450047032 0.318563024117432 -0.7972499822443753 0.8105546697730815
Ni 4.858245619407555 6.77443921242968 6.39489566093014 -0.06408268941252189 -0.5334275442029329 1.1106407181322486
Ni -0.03776595419174895 8.305789497188659 7.537065634457599 0.14842130086060246 0.4758248060877999 0.46857198118012844
Ni 2.358451701372649 2.3362272124213845 12.780720779398676 0.023228117290005155 -1.0151879990488775 -0.651002291996324
Ni 7.541958710738736 7.067350599383633 1.0191320672881758 0.7179666738320152 -0.3185496543809933 -1.1209526415812177
P 6.2104997216260704 5.379995468322352 7.360349593244241 -0.33565906036777027 -1.0820989019388139 1.2553560308961735
Ni 4.18318368384762 3.799871191006012 10.508148745352353 -1.516537174660027 -0.08058454372228702 1.5860037540922813
P 7.829632126852722 2.738232252609139 8.512926345104272 -0.38329517418849474 -1.8553509786066948 -0.3918875438431961
Ni 5.290350548365819 8.73332964522125 0.6625747237388105 -0.375589835124437 0.07646563645790702 0.7214448621886026
P 4.393726134987175 6.899523431572816 4.42673457305861 -0.2713827668872036 -0.6842245443845635 -3.0311773894076572
P 7.8254177735536645 6.281590420931175 2.9767111630138237 0.17813733986779645 0.1149697060703762 0.9247931541043879
P 5.041297945416934 0.1460001375623736 7.295105502235859 -0.07396652418513713 -0.17067574138342864 0.7102636487608026
Ni 4.026653196105392 1.8288541179775497 6.08524674391538 0.29426635635359644 0.7397799130523647 -0.4988143250044378
