# total energy = -340869.0011159028 ev
CRYSTAL
PRIMVEC
9.27158611545079 0.00000000000000 0.00000000000000

0.00000000000000 9.27158611545079 0.00000000000000

0.00000000000000 0.00000000000000 13.56990346624755

PRIMCOORD
 96 1
Ni 2.964376315211729 4.194938269817257 12.903797229020462 -0.17136993923697583 -0.23234647892034826 0.6249778429081043
Ni 1.4403037687241969 2.373053115633421 2.2850092096546266 -0.5542028290770714 -0.16849955966771626 0.06153549751063595
Ni 5.0467003147051495 7.926825729691596 3.060284380271748 0.5814904611484307 2.433207185436648 0.005220882079307138
Ni 4.879385277237838 6.228799690299171 1.2430841583960268 0.46687659575557655 0.12118431952152034 -0.820581200771148
Ni 7.744722512862634 5.351883833117762 2.7123254735814464 -0.43270046409449997 -0.9041178851432237 0.07313708630530631
Ni 8.828719239036197 3.207199147488625 3.984205323175854 0.7632944512345371 0.48281897801744594 0.1942599564612719
Ni 6.816516242998682 5.727364515116606 10.511490738300893 -2.7752271550254397 0.3553295422135042 -1.546953582168355
Ni 3.3977024210584377 0.9785324376226002 6.463209485615088 -0.720733695054191 -0.9487751188412822 -0.9506569092450273
Ni 0.10343844705220284 8.505363412442495 11.276141598742141 -0.6005515915449399 0.7697183524830099 0.693340904863535
Ni 0.25216024634280154 8.945615392886792 1.7677780337332243 -0.13234136457960435 1.8074610969039517 0.15791149973922483
Ni 0.44933349874193806 1.7408700374050834 13.619839946553041 0.22903489804861202 0.41057200762657675 0.3401410073985239
Ni 6.83173091530744 8.157558414076584 10.699271874277866 -0.07149106606145107 1.2900808359718685 -1.4579484184825406
Ni 4.053379697720898 6.469777477000538 12.433953128156991 0.10048153975653018 -0.37278244758262896 1.2518138220708699
Ni 1.877959705142624 1.7471190862387844 8.140679492115526 3.793118926158725 -1.7648075238994831 0.24905942079965493
Ni 1.2840404615384462 8.602149496678406 9.119558687047297 1.0515112589599438 0.6096260430423823 0.15806088083289552
Ni 1.493995522130669 5.102774865663938 4.091325516951889 -0.9816903815120642 -0.4459167056744578 -0.01849857302481975
Ni 0.9183867333360995 6.59173591670158 7.452617493388921 -1.0279159881385072 1.543798067258509 0.6320694596475631
Ni 1.404190942007186 4.8151517307691725 11.346270946625275 -1.2560420012196045 0.6564062366207146 0.8398691024664826
Ni 6.498222702255426 3.9225761651602844 6.077905558454067 -0.3732071938248734 1.4257463798286996 0.012851916262003672
Ni 0.2229417708316366 6.738495848435487 1.4892697948450053 -1.3566091587114055 -0.4747248881554017 0.7335627284980593
Ni 7.31222157815272 5.6100233251472895 0.10060134179535939 0.987598776576699 -0.8913916958258067 1.5545373080528841
Ni 5.904498161953189 3.382376489719999 9.499231052989341 -1.3860919986618707 1.6793270855374756 1.5720208095496282
Ni 8.300433551357491 0.524122745651506 3.9556265870853498 0.1479695580351645 0.5254900345234111 0.08627773745232237
Ni 7.426095195030338 0.4383244177550887 0.36004163731356453 1.0238503027095658 0.08148288716684032 0.43068780453984534
P 1.575789452117182 1.1888861764045102 11.204872772963371 0.542269053753963 -1.536420029626883 1.3812922632803826
P 2.042910488229232 2.8796618356961123 4.316450746240998 -0.5874934728094011 0.40780421507345255 0.27841421981268827
P 4.0633744672204966 2.322300454927666 8.722367659723535 -1.5359891127370513 -0.30945951915426706 0.7970075272162661
P 8.394920282313347 1.884959752426666 2.201173676473483 1.2268165286955839 0.21626294309492433 -1.1735561267095467
P 0.8954692275391529 6.384655047709428 9.862307280337431 0.34243057476364896 0.5267069376496477 0.2923853372807997
P 4.582082606760903 7.662613348958693 10.046165608359596 0.28509960225266384 0.20326267418051444 -0.5116901525258414
P 9.0983462258802 3.552389558657053 12.538617278852836 0.7286524356806353 1.6147898250860386 -0.6492398007792625
P 4.512842403956631 5.40806964310623 5.800876137502014 0.08612758502770328 0.69454263848112 -0.04772893064484683
Ni 5.205355691029022 5.825847299555139 3.594680970155634 1.0038095820086066 -0.8924936706407338 1.5313840098648723
Ni 8.987300442673616 0.5486961566735253 7.888374609034141 -1.4024341874653201 -0.31498944783356075 -1.4404605461104223
Ni 7.660666315939291 2.819285268923026 8.164820847238955 1.9216065073008195 -0.13521457236234133 -0.31839590241194843
Ni 8.642165661020028 5.050427492199434 7.084412224772577 -0.6046429880054941 -1.1122304312168716 -0.43669081620081573
Ni 2.6590073650829837 6.698025376389337 5.47945899950049 -1.2993820587681364 0.12595731543013144 0.1671898397173572
Ni 2.8952010135081045 7.010264571600832 8.322584297008225 2.386512866703903 0.24609982395069874 0.3091959810802352
Ni 1.0665197869279741 7.620520349396376 3.7944029814930267 -0.5313308095749043 0.18610107479956337 -0.18742982091331592
Ni 4.789840301516943 8.950316086890778 7.943278158705546 -0.8874957032055103 -1.7937123798592916 1.1798321895262456
Ni 8.486226859337512 7.49583606346817 9.06766747560448 0.40252034096669387 0.00357820426956158 0.11504786760647928
Ni 3.8530392716102 3.924226507433873 4.049991860267137 0.36132201235151323 0.04233809864657869 1.1721597605826521
Ni 1.5207625903545483 6.578783511329651 13.100900017367469 0.3901697898211409 -0.12075494529358559 -0.10235201730636566
Ni 5.701320630585648 1.6397170362542268 7.669804390910353 1.415800067249265 0.6734045709509241 -2.4681284227938654
Ni 8.535978188776145 6.1439275938248405 11.7042042253264 2.2022257051846266 1.056702059132264 1.0254284458299632
Ni 3.419601906733811 0.48311823026289197 10.156339862500351 -0.5909197248821306 0.3924814686734531 -1.4806060079810563
Ni 2.578084964162298 3.0282575414197406 10.509768077658013 1.4412467894571437 -1.2314164893614405 0.058983677623059706
Ni 4.8996066058822025 5.27739591274691 8.26594325215665 -0.7333837797180337 0.34521919325237965 -0.9041780489571977
Ni 4.616851053535945 8.89184019520806 11.990529338208228 0.507426492153481 -0.7553397151638347 0.42150202427551925
Ni 7.071605383297812 3.9818772279797967 12.006432889342424 0.019248049596334593 -0.41281452380385036 -0.3777320782784204
Ni 8.690591153688306 4.208539686195653 10.109115967352617 0.04521901973879954 -0.003801118913645066 -0.5811022245710766
Ni 1.79552603573545 4.8010867351004425 6.548414432019878 0.36801022300496616 -2.479174396195382 -0.6143627863964194
Ni 4.160299625243508 3.4751943352306522 6.732083619691588 -0.9515408545118775 -0.34287383294865464 0.49048189387934243
Ni 6.636258071745249 2.36652591922552 3.654822965807812 -1.641270130764754 0.12221816010267339 -0.9960998720691748
Ni 5.980098672620841 0.06492427961126253 5.107168670177722 1.083076949581367 0.36860646182806844 -0.2571036312603701
Ni 6.353474704641569 7.253958932943555 8.46155331518878 -1.1156705672466722 -0.7777900737475507 -0.4315763777923857
P 3.472125440328642 8.057258398819942 0.35586293359049476 0.7409245681797691 -1.3025134053082665 0.3208217382446216
P 7.88137641606726 0.6922063975821904 9.934756378989393 -0.6048635886567325 -0.9151492032567208 -0.3830648033452435
P 6.6007293549340575 9.269879834889547 2.7937856264789187 -0.42520389860713864 0.9118342799508748 -0.5246454271349287
P 3.309372023078217 8.686706359235309 4.246334378577996 -1.0597974102281362 -0.21505375327817158 -0.28970907600021717
P 5.916384334957351 1.336675254162957 12.693504682704875 -1.0510145218291833 0.29923064233740726 -0.16075282584276185
P 7.104093019964412 8.840132561164216 7.057421711330757 -0.48603902761664036 -0.07488697911687749 -0.2675196843873715
P 2.9931553175556576 2.5526622758803867 0.8250246457385944 0.27826046784364333 -0.8692637535785159 0.16330078907559617
P 0.5555320968887889 3.1593855794835872 7.80261244032237 -1.8248484391424635 2.350310705751733 -1.0485601467514198
Ni 0.28252468985967194 1.9396899234434861 9.712779780240231 -0.7291329748614798 0.8323486257197213 1.4423266527848837
Ni 2.500277816072656 7.557909330443879 11.042454059960566 -1.0312838761694756 0.6468183358219635 -0.2264967050077906
Ni 6.697357822211256 2.692218185442504 0.9533721352190182 0.0040363748529027264 0.666244048646743 0.28814507394720695
Ni 1.8899478655906585 4.61809344603404 9.006100437213817 -0.9014755624243701 0.23196646987311018 -1.7475050280652935
Ni 1.8344481529518843 9.084429575584373 13.016983821389806 -0.5391171383885424 0.02793760695053253 -0.1730306147688504
Ni 4.610824522761604 7.689157899123212 5.79927400747462 0.07235495672364313 0.595057144089272 0.6322795187758402
Ni 1.2866179623927028 0.7686543311925729 4.162853019974667 2.0540553439925655 -1.9152245150338758 -2.078747447422607
Ni 7.7439807859981 7.530187288881912 3.626488999582604 0.29437382846573823 -0.9393826218827886 1.6078990115034757
Ni 7.893077157355288 1.8265394902587881 11.920440785302647 0.19913116851064414 -1.4899470828763244 -1.354368956526977
Ni 7.496837394735292 1.9674490513486798 5.81004851734056 1.0091970715727652 -1.8117936628410345 0.939805311242504
Ni 3.576801644086036 5.640721545753201 10.308974271001366 1.369042756489068 -1.4522829926666472 -0.03943532317748692
Ni 8.902168741796698 8.26831677812316 5.784157613975412 0.015527149101321648 -0.08694005362666964 0.51996524805044
Ni 3.5214780915775887 1.5936743411382641 12.466520500461527 0.10932844862419881 1.6963686144007943 0.19951246310946283
Ni 0.9061918165245759 1.961255632029819 5.857434665239911 -0.7026356999018996 1.3212968565633567 2.816868227604994
Ni 7.087635955157559 7.626213103081676 1.4455607578765832 -0.8152186509076541 -0.8905871976466405 0.27105366568255895
Ni 5.039867155965627 0.2877612815232837 0.9640659822884405 0.6764168754146868 -0.010184653842485687 -0.06054947944828282
Ni 0.20564748182644016 4.220036452595934 1.095867137481852 -1.951415620242452 -1.462977753376332 -1.102570025308972
Ni 5.734957943892275 1.2192598915071873 9.99132974126458 0.5080949789754153 -1.7182903541745504 1.642545655043068
Ni 4.255778415880678 2.0332216810612533 2.694181907316358 0.3371035061237807 0.48233355374059506 -0.44702150870286245
Ni 6.5790987452470775 6.438476603317194 6.006704415251685 0.8233837032169498 0.08336622023248223 0.06287478514734977
Ni 2.8740061683540388 0.24867227576232934 1.9159212860694863 -1.2247231365016649 -0.6612159993045322 0.3360231285754084
Ni 6.291531239867155 7.315299744640536 12.594905076285178 0.12379913143654807 -0.40836111601818703 1.6753858415015401
Ni 5.285091328966453 4.398857528049333 13.284866822943572 -0.5451088371956031 0.38442208870408634 1.8960291730523473
Ni 3.1426040091734997 6.891894235606973 2.7932015165730983 -2.247832190169832 -1.3322556695677055 -0.616247662123958
P 5.636243369808575 4.072117572636194 2.471174308225494 -0.054476276671009405 -0.1552735478957455 -0.889303188727894
P 1.589242523122672 8.534244402230296 6.81411304795759 0.554826064483367 1.2756754591798158 0.22797174689142027
P 1.6607357212779656 5.275096559466855 1.9283238864030794 2.750284111926857 1.6415791773647403 0.4793965825994582
P 5.037363827797825 1.997183027030696 5.417186393429937 1.1251072871795398 0.9007147729989455 -0.8027266890882305
P 4.615311970292036 3.7901130187402763 11.41614254442298 -0.5660445589070059 0.45548789430266073 -1.3005321132121797
P 8.295139475861879 5.463281936584997 4.9729485582473485 0.1929353241125774 -0.03653897546629836 -1.4516654136873064
P 8.432006625540058 7.8425470147088925 13.38529849471867 1.3693975687253255 -0.6576362523730739 -1.3910681117202237
P 7.0355481860956415 4.960780529034664 8.499264563298862 -0.03043826188519919 0.6062887511390332 -0.2852541255526571
