# total energy = -381164.8559901515 ev
CRYSTAL
PRIMVEC
9.31506021294934 0.00000000000000 0.00000000000000

0.00000000000000 9.31506021294934 0.00000000000000

0.00000000000000 0.00000000000000 13.63353220237157

PRIMCOORD
 96 1
Ni 5.503449441548362 9.050559221301524 5.010909104458935 -0.18948156123602206 -1.3152740474080444 -0.37596675884788155
Ni 5.2703866313354 1.782977073430954 11.567425188225291 -0.5053359281730393 -0.8685862678955171 1.365845589708009
Ni 2.953842900470457 0.5227770230187346 4.2939764153398485 1.3688571228408233 -3.0334535870363433 2.0213712234959833
Ni 2.5222388937395483 0.7112803104924984 2.0889162583721768 -0.7111090274802334 -0.18303606272099446 -1.3081312657156763
Ni 0.278446715794039 3.873313878508066 5.948337655858995 -0.36032879520030847 -1.7437121366817647 2.8188009258513325
Ni 6.58755479639268 8.764130430284805 9.329413005233304 0.5433867122981738 -0.8798101616357945 -0.043156737893132124
Ni 6.065557443926096 4.296851042967016 3.892578354839058 1.307902694644638 -2.0841025410869336 0.22373791131573081
Ni 0.09170676924646692 7.897373378825738 12.468547360365319 -1.1167648287521155 1.0843177639670036 -0.4409053685027955
Ni 1.1318916144922997 7.224034240686494 8.539417640178753 0.4293909401052928 -1.5384730555011699 -0.4532386932571678
Ni 1.1617277528261172 8.354808047935565 5.92258337697503 1.3234146742373079 -2.1867492068155823 0.3520575563304517
Ni 6.496369670526387 4.1292265317846715 11.313473355154516 0.08797620820066783 0.5879362167737746 -0.4880452594133917
Ni 7.212343839934405 2.116009111429906 12.819965464503293 0.5710340417017973 0.5520960671467137 -0.6966244607108132
Ni 3.5608308636637815 6.686769504289492 8.997490390923257 -0.057969634536248545 0.8848418105224309 1.7807118538345652
Ni 0.43121370570181533 5.951149872581749 11.151915742784789 -0.1353690956623346 -0.550742895552929 -3.0371567469195435
Ni 5.111993344970045 6.098262620850865 2.987406925960439 1.014099136860073 1.5538947893728785 -2.168395901119375
Ni 6.965960493406314 2.9305831947509624 6.151695670089218 1.2333121637222566 0.8767086398923352 -0.5861269314791776
Ni 2.0565790263316375 4.790549242059219 4.999662100579992 1.1040383823243825 0.682128066866851 0.9706680622596314
Ni 0.8291037144709429 4.4485281708126445 13.181976655282924 2.2863416590989396 0.4390945405463018 0.27073767710403696
Ni 1.2613709534995003 0.0949297801311066 8.800622179246007 -1.5613525312025047 2.183221139057666 -0.7437769500268997
Ni 3.682289935700824 4.41924162104008 3.5133883297430923 -0.517571808117599 0.6459662722343134 -0.8183325139462875
Ni 4.4229210698823715 4.8189322309768405 5.861137512814808 0.7690118133342885 -0.31110399673622546 0.041103712018845336
Ni 6.846131556932312 1.4819050075279518 3.7662223555706427 -0.04712009341625433 1.6432244262776474 0.36408749091179227
Ni 6.2782947924330355 6.32824214608459 5.098068261237537 -0.6665320122008069 1.0090960272185268 -0.6120778470169846
Ni 3.440098366334837 8.507351476394696 12.750897086450294 -0.5449383730560099 1.103371438164345 -0.32742278850090706
P 4.711594790445908 1.2355775513620229 9.090594419223757 2.0697886955674227 1.9299944742541988 0.6395151172923309
Ni 9.239543165889875 2.0975187166148492 4.381612503208895 -0.723840616114289 0.6942173939312172 -0.6381596317057009
P 0.7282849531800988 6.008828726332295 6.686593449648685 -1.7731456114515334 0.4501356288518119 -0.6631821218919676
Ni 6.7697108017369825 0.9565449182713252 7.726954349535326 -1.7795219472915225 1.0693377456184037 -1.315796752680734
P 4.464075006553869 3.6510472232526117 1.5676110148903581 0.35884655422782713 0.7040683185833682 -1.2940354497442423
P 8.247535812827154 7.525758360814712 10.644666925386558 -0.9416531630845203 -1.3567405420829473 -1.4742291579204352
P 2.4328981498245796 4.7905771872403005 11.612933915615196 0.46454254830576125 -0.8471103574099282 -1.2968855175985279
Ni 8.433455102556989 8.704365003013567 7.770622420998049 1.5839622981822203 -1.05499021864748 -0.24661275903137525
Ni 0.1886746845843919 8.947720954924582 3.481786055964976 2.0243308203449395 -0.33102181870607505 0.8390854302229227
Ni 2.1749548133894434 2.424086102723802 3.720931600593167 -2.1260578024727965 1.5147628563684234 1.6131270926716348
Ni 7.484977026557624 5.425491701393595 6.91101467836546 -0.05763847644907493 0.38778174920493863 -1.1481302304372742
Ni 3.428044678228699 7.857933413260524 6.5165833515080855 0.20140839458059506 -0.020164133652700755 1.5225810668612616
Ni 5.684441064347635 0.09039707175981856 1.571237367888596 -0.7376965481607747 -1.1243704090135154 -0.20013209897133274
Ni 1.0057936423958627 6.730513027741134 4.133877541422535 1.121792878094326 -0.6020379462824793 -1.3877045945646294
Ni 6.733102614521278 2.021628919860053 1.479851968224557 -0.7092118104575205 1.0611901768106047 -0.9707775912543022
Ni 4.683491253339093 7.326034151631014 0.5824353270958295 1.768781935166199 1.409775972542372 0.9197954437794805
Ni 0.18743205553233722 6.705902638269405 0.8098206080192303 -0.1410617751717377 -0.3532214947315659 0.22988336209183635
Ni 3.9356223172576463 0.8417489089099555 6.937749833105356 -0.44909613184370395 -0.24064471437339843 -2.1315465935015094
Ni 8.569808956110041 5.763442091262749 8.812755976871241 0.4493691829994325 1.4041123464986913 1.5411210346469781
Ni 7.533909038629913 0.06114591921662349 11.407817217988963 -0.8870722425148464 0.7146612636078659 0.5472791053740446
Ni 2.3312615262341074 2.7125455768990525 7.801652750070048 -0.3090111187629388 -0.3030965530507167 1.6330022343290072
Ni 1.9599259600338883 8.219627891987905 10.69898304234706 0.40038529690156205 -0.35736765568945544 0.41356168638252
Ni 8.586930037052143 1.0651864672526907 9.511515914733554 -0.47736309710919733 0.9073348494186245 -0.3050588189834101
Ni 6.596739445907867 7.2722117328696045 12.247315608315887 -0.3341223120082697 -0.6023487926546788 0.3712297583835284
Ni 1.8894947886501872 6.5317203245934605 12.654290595454347 2.762510993010352 1.311396052509877 1.9739343701702585
Ni 6.548524693483315 4.258696555731512 8.582417821813648 -1.0147766225430717 0.5710913773022939 0.6112047003834119
Ni 8.134544130657561 5.343062732265918 12.609708716570283 -1.3917042026423256 0.7711018630940979 0.486438062827272
Ni 4.361646602832777 3.356029946583759 9.871209518495558 -0.6462321243011903 0.655539003524413 0.15014522553024465
Ni 7.3386281132380455 8.707839520527932 3.2408538827596916 -0.8650175767076522 -1.7479950803278348 -0.5004616307998735
Ni 9.110846291952933 3.5192856944571544 11.140627752640262 -0.1021617556724305 -0.8385467841106333 -0.14749570372253953
Ni 0.6414425084537441 4.189970040393733 3.2681898588928235 -1.0024114161094995 0.6619238240048342 -1.4666680577437257
Ni 3.162341896513491 1.216015924605539 10.789263675852375 -1.6032892806456065 -0.14805440443948698 -0.4504153648757597
P 4.302589120148917 8.3521532557329 2.959526018796234 -0.32234948774305777 0.20812000227281577 -0.2150061878696878
Ni 4.427056956682314 5.696308451246568 11.923437480132932 1.119921629213542 0.8057942722699606 -3.144804979627842
P 1.4740151514028366 -0.18900630073321611 13.607206366209326 -0.25322846457568 1.3552035366131303 -0.3684120864290752
Ni 3.3518102242405745 9.165218299275598 8.76341689666121 0.2650365129542016 -3.8070977569363205 1.0402917360950408
P 5.745203203077418 9.248578774439299 12.850408944772598 -0.5680690455362023 0.7356162685929782 0.6288329549881363
P 7.7749548555715915 3.4226512582801254 2.6483135781850846 0.6594997879443738 0.4301658705981043 2.5114003461086227
P 2.90178102811713 2.799986048500534 5.868308246280113 1.2061608001184454 0.01731509423967986 -1.9574620835468481
Ni 2.643893582044156 5.47546700022623 7.276898139736836 0.3670805121018452 -0.5061221715197606 -0.05293541454645077
Ni 1.8931369772510371 4.456250355851275 9.337619573410668 -0.49466816404654806 0.3094016693331382 1.7382991931963097
Ni 6.185395695460459 6.435691367339847 9.803463879013712 0.05018356283292648 -0.34877014382843163 -0.07978107398438518
Ni 6.37233964182992 7.78496854545884 6.956837323289505 -0.5349203266983754 -0.5226880462982417 0.5180173802954497
Ni 2.6967658646488224 2.749461161106645 12.559564815145128 -1.8340815277049574 2.083213967834393 -1.8709668307670808
Ni 3.725558391074094 6.937214217134644 4.522133914767112 -0.9107227920542509 -0.0590196730673177 0.011819618342747387
Ni 6.20205102338455 5.390970087698581 0.5053867368322208 0.06398035950670272 -0.7309366037291218 0.48054946525697884
Ni 8.575547033291942 7.404820932157842 5.365149671886059 -2.396556366982834 -1.3150717015892515 0.3875711758560293
Ni 8.301162615321 5.1128503305231865 4.74299679042628 -0.952568010224811 -0.12383821220459963 -0.8423864695716976
Ni 4.901901473605411 8.600362354091596 10.798466955488284 -0.9692904651858146 -0.3219615082760197 0.37939866734756594
Ni 6.51352801170993 2.3221700273225228 9.799292594984399 1.4883493993719012 -0.8926350813146047 -0.7768724470292879
Ni 4.255678476174798 2.2623766548702045 3.0507074186383836 2.1710505651334024 -2.270391820637903 -0.5511750979943411
Ni 5.013700828048896 2.7793066145008227 7.4172686473172185 -0.5923996518617669 1.1796162168606974 1.1118033709817818
Ni 8.22600870833466 6.361590062174215 2.8231907953639035 -0.8055610732132319 0.35441911458409286 -0.22291772940728058
Ni 5.050364905626762 1.9185391468533852 5.217430513187492 -0.72055577471543 1.6514887231689686 -0.1788297379491307
Ni 8.40676745462493 3.630302583830379 0.6589455068706168 -1.7536733616595346 1.2280090063417881 0.9574063121537189
Ni 9.03784416390981 1.3748563338681856 2.1333612058689435 0.2101570873075026 1.0965202195704664 -0.7520602730816145
Ni 3.817730913338572 5.379624344179821 0.2605357177333883 -3.2669575765999026 -1.8710519342817196 3.228151145255666
Ni 8.856340212790723 3.5153733691058577 8.624218223674145 0.23895987047180783 -1.5503739207038136 -0.6149883357955602
Ni 2.301956346340823 7.777339511023811 1.3801500826709043 0.8813186278605208 -1.2096976096271101 0.7747222334555045
Ni 2.041525888789505 3.18697091610594 1.5428525159589024 0.5569346261859376 0.6274376173025065 -1.2808369487760973
Ni 0.3613330543854039 0.9400852066147983 11.733617974630269 1.1528430625319113 -0.8437447833718048 -2.1387323126166717
Ni 8.24979937249469 0.3274383442526341 5.466542240895094 -1.4113320041755824 0.021520133459962936 0.4249236483625585
Ni 1.2107715456227297 1.0897409663622577 6.1407476796478395 0.2918986274523683 3.142919075459039 0.7717063294473161
Ni 5.163282067313473 3.6257754644953066 13.119248107311096 -0.012467536339391431 -1.0479986178209952 -0.1581369854864696
P 8.591177704576408 1.7943228169497145 7.059633671894825 1.1814411858845781 0.6560064300791347 0.21804394625474705
Ni 0.4206271396024136 2.1782709748776856 13.416500066960367 1.3580806010506097 -1.2000271764168817 1.6344932170522366
P 1.1602000829270394 2.1849126129145295 9.801923168030129 0.1599706962610987 0.35272938558649575 0.582254593007965
Ni 8.033969423948154 9.419109584454034 0.3190845981215796 -0.4812683457008744 -0.8147044302753969 0.07656462392961652
P 7.313430874963624 7.0632935591103605 0.8841128719222467 0.8221020082910486 1.3765470352859133 0.5416478752301962
P 1.8429474320301165 5.590554570976875 1.744137929258974 -0.2868806054124866 -0.8885979351307535 0.21920762754554504
P 5.009229599075985 5.807949449663929 7.828892781081469 1.5571243520537699 -0.2118581291590093 -0.9593112424859156
Ni 3.8781111345935844 1.7744631082617035 0.30190110627506284 2.0069313939215694 -1.9370241274074702 1.9641369244638627
