# total energy = -340860.00121191854 ev
CRYSTAL
PRIMVEC
9.42728255715054 0.00000000000000 0.00000000000000
0.00000000000000 9.42728255715054 0.00000000000000
0.00000000000000 0.00000000000000 13.79778094671298
PRIMCOORD
 96 1
Ni 3.3359475920771335 8.985708532062706 6.318500303634402 0.343348458592228 0.18096503912457865 -0.03810400596057308
Ni 9.058336315993012 6.263863545515699 4.566458716422612 -0.23775068065505506 0.11505583802627928 1.2149449740689784
Ni 6.9615295826084225 5.696491979048724 8.30368424199713 -0.9805701518646921 2.247457323328917 0.8162746029759941
Ni 7.032526446676327 5.616680605897897 13.221737227993257 1.4029664058197062 -1.3619881636351319 0.2618419172763039
Ni 0.08847598844292846 3.2755187116262947 12.54945414887462 0.0018445094079065007 -0.058522164605608884 1.0111482817618649
Ni 3.0928651143197405 4.14390340645447 5.2993271688806205 -2.6153590457804765 0.5111250240509907 3.3548695072215384
Ni 3.35259617286905 0.027365515471559465 0.18129135499373858 -1.0198550655072438 1.464381318592078 -0.31654702212866775
Ni 0.08648683184774482 3.1415758826956357 10.169419798183204 0.37354426544931796 1.654822415527892 -0.7850979202628737
Ni 4.358289236459546 5.078495905870204 8.85268392044186 -2.503755942189488 -2.811395891636513 -2.632221368753454
Ni 4.894267952395897 2.9809161353254012 5.039487696583233 2.135673728296006 0.45843643540802337 -2.446414942376174
Ni 7.211079176120773 0.6033243935146139 7.266187298361557 0.2867217112371191 1.1147938210686736 -0.9868305309521068
Ni 8.11026280268575 6.543891543161834 2.3790133760029852 -2.293606568191469 0.572067368062318 -0.7185279456521237
Ni 0.7541090625272423 5.796562582166611 2.220807550252306 -0.18197162601222208 -0.3936186676016898 -0.437509198337053
Ni 3.021783404709861 2.8075201293765266 12.94493996003987 0.9109084257024957 0.03081004340232113 0.37565925490979174
Ni 9.190676506908593 1.632531927699264 6.032886641141601 -0.8095689088210445 1.5041159181775385 1.5740792347405537
Ni 1.901416877499395 4.843247499821803 9.901646324982943 0.026561809648928448 -0.2834594955460796 -0.670479169774013
Ni 1.4951010042652026 1.1224405293476245 12.6559456740635 -0.7852179907805057 -0.05081374021775765 -0.9116604733771718
Ni 2.752455372634974 6.488336567733317 4.34692181929143 -0.1869348835547684 0.8233124836593821 0.02777228501726185
Ni 5.26596684450443 7.427934954125556 7.729613648627135 -0.2175132705622576 0.2069185257655469 -0.10512160963170282
Ni 1.4951764225247355 4.20827289096591 3.8426960760749718 -0.43520703256643756 -0.9535028633342545 -1.4028188244982485
Ni 9.129484016579983 7.05175810285725 13.474209279062512 0.5102536771896309 -0.6998367970005238 -0.05807222155238386
Ni 6.354657702711024 2.816787148016647 0.12847689057100273 1.6293304419043744 -1.608750560870494 3.5691403595870983
Ni 7.99206353543261 8.654990036727932 8.916553758983895 1.0247977542244995 0.04060388956429136 -0.4416232205054265
Ni 2.960515496121717 1.8439764455825518 5.054320582776891 -0.27069628234314025 -0.37446780570485183 -2.7316916936366504
P 8.852812131483066 5.142101780503872 9.435874466845886 0.5490320835094092 0.7921219169891907 -0.30576098725675727
P 9.194569974556986 4.035621640329924 5.30766088655902 0.24229587682357623 -0.5420669650454858 2.257411863438467
P 0.38657325834493356 7.847646995709301 11.245508265221833 0.462904498481706 -0.44275142057259875 -0.5216927722645079
P 4.117384460946169 8.823031346249962 4.261444649393184 -0.9949680724575768 -1.259557470572031 -0.6477339056576974
P 6.345918611887634 8.69236921160899 1.8974847579929917 -1.0558273698367946 -0.562729892711476 -1.0765720585833136
P 0.4747871683359847 8.231129990869869 7.881181724810663 2.136773389118088 -0.921843841668077 0.7794749176491415
P 9.17682782900184 4.964246669960107 0.29820851183481634 1.0585861635288543 -0.12517775695162955 -0.24109157210282994
P 2.60279726387412 1.5774106072630618 6.951887358127125 -0.7815122597941444 -0.10834654432690372 2.318215367879085
Ni 1.1826431550198648 0.23425854139202879 5.051946793058089 0.5583415338357933 -1.7781870305301828 -0.5048101375765564
Ni 9.237992037483128 1.0113777149027983 10.590058541630965 0.8858062313182292 -1.8987627699334269 -0.9192979353177716
Ni 5.088347416021705 2.331564920746024 9.332377046560469 0.7122266860244444 -0.38806534188362846 0.4243024698387918
Ni 1.6705144486565857 8.77485793297324 9.621606071869634 0.007724108117135084 -0.7622544400057969 0.7935648200833043
Ni 7.2027737402896985 1.7839529382767028 11.307971553223574 -0.7211173036458549 1.1296774230487252 1.1985354223627036
Ni 6.579781207417114 3.616569508517092 2.5866285317584827 -0.9501817693808216 -1.4431100679181275 0.43870836085147674
Ni 2.3837355017779966 8.424596681136972 11.905153129499222 -4.061245133781844 1.618154627793213 -0.07576089708139856
Ni 5.591415488954332 0.3979416182412934 5.300859102277386 1.397884877531741 0.7411608525602913 -0.43217595904959766
Ni 4.703535174036868 1.2252921807857926 12.094816854029371 0.22724926690309896 1.242434694848815 -0.43463290523052245
Ni 7.091220707157907 3.0797706190083187 5.786044563146486 1.4966172958076482 -0.6361438868272529 -0.3318000916329963
Ni 2.887850003061644 0.5641860877299486 2.980968928107074 -0.8172922456072312 -0.15306368472862028 -0.87680197093709
Ni 7.355646552363147 1.2848348966871186 1.7559058302846133 -0.562591824471715 1.1982675134132974 1.69283643287782
Ni 9.236370544903167 1.7979335981376376 3.7679528099647634 -0.43590020197872026 0.21327352144929723 -1.1436395416557723
Ni 8.54574668779434 9.078454136723447 12.315913023676398 -1.037229295119633 0.9055139941598018 0.8020949690415026
Ni 2.3348267604708273 5.269813175740614 12.602713581028599 -0.00011415698036109372 -0.0435953680924475 -1.9180473291946512
Ni 1.4349643695700538 7.9762445554955566 1.436846055145403 -0.10815422581043954 -0.11001004807225569 0.17939203821050395
Ni 7.053652986628017 4.2085557094391595 10.596046751437887 -0.40012972924733026 0.38562742186609716 -0.08798906371647428
Ni 4.30754217507626 4.609007812994658 0.4808800209780093 1.6527277377823923 -0.2409555607455979 -0.975065677106695
Ni 0.32864260774112586 3.0514039261414583 1.5694285272197348 -1.3804268299562936 -0.10528358913086384 -0.4772391699368232
Ni 8.371860463158502 8.854829569925576 0.9330558523777479 1.1448222491099638 -1.0130146455466424 0.6278651917582283
Ni 8.625963434090158 8.207929448781021 6.308910871934777 1.4172784515670043 1.8198702692015816 -2.0901292068969877
Ni 0.9684458706636215 3.5353534702824616 7.569255574295033 0.5757970103080793 0.006002240330021921 -0.8796774927126723
Ni 7.734792997600566 7.099497861141657 10.646270598645664 -0.5331398377591849 -1.3454238315185474 0.2581834945881102
Ni 2.1178578550767453 4.230841805131169 0.7373190724987018 -1.2997489551892518 -0.5241872565515875 1.9750456009565664
P 2.959195676579889 7.0623732228865235 13.433298644178821 0.8108981691554292 0.33165739540754496 2.0317553949437848
P 7.072667815312782 6.995118989947946 6.408765590284751 -1.6346451692490684 -2.2247498544290716 0.41054115438864136
P 6.505843031227422 7.559285280384766 12.49114452151666 0.4046062769614451 0.6607321176895783 -0.6156398533366301
P 2.462981237982327 5.22266733625003 7.294142018985718 -0.06590200200944779 -0.47946754504670974 0.17985046590416123
P 8.256442244225642 1.8559019578712121 8.734974871875686 0.27465938075594637 -0.5384741054879049 0.6288818059482008
P 5.7469562219587615 3.6320019698740382 12.363211585142537 -1.7570011404811867 1.9122425495874162 -4.734725809386343
P 8.291181780023043 1.6340308656074833 13.625128758214057 1.0530955727279283 -0.5287550784279281 -0.6905903387015913
P 4.555027193733893 5.269662339221548 4.6795587666030745 -0.04493516994979358 0.6720884232426619 -0.3457048746395466
Ni 2.919733072279232 6.149501182216302 1.9422445522976 1.6783127853403483 -0.0787685735594708 -0.6960781012890399
Ni 5.218491050128389 6.887157751426415 0.4869210235666049 -0.19864651556474178 0.9540453661012859 -1.0226192585159422
Ni 0.7917022367197246 0.937016253731476 8.228044441326725 -0.08122860506418914 1.075392950673548 -0.9826054371271657
Ni 6.067361270302392 7.580157283710531 4.624118804020345 -0.44596632796547064 0.6693268013371246 2.0277285331725787
Ni 8.049928195059326 3.8362063348421547 7.880588748745085 0.5611226961253561 -1.7106631766465958 -0.2835957640136277
Ni 6.487280712099854 9.111336497879847 10.551866735003438 -1.1278953914476382 0.17954604728986498 1.0064994701359438
Ni 8.601065981161817 4.317082584907187 3.352267160711837 -0.7692560681346106 -0.612514677444087 -0.9923509465497039
Ni 7.6737136346612544 8.70239041284444 3.516640314635829 1.9297574185427284 1.3925740068417887 0.48510905960320333
Ni 5.216699866464479 1.9195455416346465 6.90897625390932 -1.2934548946504238 -0.178294434270951 2.4743173252133968
Ni 4.423205503352601 2.3604595414296154 1.408435996779311 -1.253681471407228 -0.6994272202669309 0.3089638104647711
Ni 0.3264828173337488 6.023967489223576 7.224076570423046 -0.12094057894183043 -0.08736120032448826 0.5307880496975568
Ni 5.264062533451221 6.353319028604313 3.050593179851478 -1.4352664035039928 0.25995395622497164 -2.4076838443545636
Ni 0.12443824277300902 5.690213408942599 11.407467092112523 0.24915249473409348 -0.9360944380498202 0.5862899394196031
Ni 4.418388162024928 8.366543475861423 12.210249213885893 4.487167912832879 -1.3737329628758856 1.6424260987460684
Ni 4.058935309808072 3.960948136109784 10.988456440342434 -0.2640813481297839 -0.9636031849930503 -0.43437913734850353
Ni 6.552630633985224 5.214918110083011 4.713957034776088 2.2502351431843697 -0.4801645711137343 0.6310186497855456
Ni 4.023818682713006 8.216998494489868 1.8710893098846757 0.8731237507545544 0.47194783963089687 2.227944964327602
Ni 0.9554833573063822 0.7536970902845432 1.1106347435459731 0.2669057049524564 1.1551280019113461 0.43899658151585685
Ni 6.450240919386696 0.04506335279922881 13.500245547709802 -1.161509737067974 0.40259747406153246 0.08169268918480124
Ni 4.107721496443499 9.154051514622866 10.118395574696136 -0.43727805616285337 0.6031198664927484 -1.493089485160048
Ni 2.7287269027293948 2.5057433911375537 8.938188429459187 0.6012876983800161 -0.0364844680792791 -1.0467295213005845
Ni 5.00600010389408 5.801445914471374 11.919433576941802 0.48054509438160464 0.8243841194570061 0.4222833825262341
Ni 3.2789125333052804 6.8352511343028075 10.632528449030502 0.36541880812870614 -1.1417379537576853 -1.6753225923637727
Ni 2.840525045204668 7.248722314910196 7.892454869154362 -1.1122188612526458 -0.39072874764840454 0.7501386305788693
P 5.574267262193009 9.41444248294309 8.474017323880721 -0.3855253490705941 1.266335926946445 0.5918337520559679
P 2.2826938885686214 2.6414114127550308 10.910180771501347 -1.4872147715468258 0.0005497018558829242 1.9501444668395123
P 7.012286071274151 1.6074176472747657 4.0090414174857525 -0.04438443965264614 0.16151515793008311 -0.0546480263621833
P 0.61232084914866 7.948283235773687 3.693844942691121 0.38993067722714136 0.4176430555407453 -0.6629468659527099
P 6.263514736065359 5.368234004431217 1.5189972797982427 0.9781854536825993 -1.031330670247011 -0.5622496106409478
P 5.366725639240556 6.423910519527228 9.7843926141587 1.9218317359377481 2.7367865916610543 2.0090602673391142
P 2.334100859722822 2.534845412034861 2.3815521431645155 -0.019736559196978913 0.5135174355425672 -0.17575598411981347
P 5.798476320502262 4.05359946794611 7.381150179552486 0.07009932792024702 -1.1448142786901638 0.13172712803437314
