# total energy = -340862.65777306526 ev
CRYSTAL
PRIMVEC
9.37569026727067 0.00000000000000 0.00000000000000

0.00000000000000 9.37569026727067 0.00000000000000

0.00000000000000 0.00000000000000 13.72227041544711

PRIMCOORD
 96 1
Ni 7.7582618473028555 8.451190991021866 10.82467605756242 0.025263145442162942 -0.17676591344156656 0.9142215492361287
Ni 1.950996772235816 4.557785578873919 10.026945447561582 -1.4117395240266462 -0.2903713921745644 0.778740353475962
Ni 2.521329389465186 4.0080513532549595 3.2178587982631206 -0.7688084390742307 -0.9479073715243482 -0.740982418000898
Ni 6.265370679289299 6.665506390326683 1.2170339823073724 -1.4586775833390813 1.427125005343781 -0.7409901313103819
Ni 2.7460553104983894 0.6526633665459404 0.6079469491828564 -0.760624874822174 -0.12503068985080404 -0.6258257927306964
Ni 3.0198348432319437 1.9778112465215583 11.48392115870577 -0.8927515522878108 1.175910485874336 1.5818406238535274
Ni 0.8259542505401285 2.3450664116428235 3.216459007699883 -1.3983227364001078 -0.334112798926573 -0.5006297809466217
Ni 5.755220618157894 5.788344932022065 5.91774258426236 -0.18794815531063117 -1.003002769836595 1.9922740490197108
Ni 2.098232612859347 7.686069031918165 -0.25736363657030037 0.09092320664413374 0.9988879763372732 1.27831906745025
Ni 9.659867482987172 9.172265957050595 9.24440533100052 -2.2983227427202158 1.2345712329403382 -0.543744866968541
Ni 5.113567124742635 7.582430151234739 10.415258413118435 1.1063693444504044 0.006044149311550881 -2.2921592942219813
Ni 4.782389615933096 3.5441515724213057 13.122675566281517 0.6718377406844366 -0.6535913928797389 -0.3789775206497473
Ni 3.5169901975941045 5.760124104189868 7.134153083164138 -0.05255951926427077 0.2889863389015797 -0.19285819101773882
Ni 4.532958750933833 4.358617789624959 4.417116471743301 0.3616161465531643 0.2831568767039962 -0.0497431328613982
Ni 5.02647633745583 7.516031512461442 7.53374594173259 0.6716454221679723 0.9773696426495231 0.21183833166466742
Ni 1.1545881345686455 7.794292625163034 2.0370299816556865 0.015434589387515352 -1.1767324675549993 -1.984016951217241
Ni 6.600073447655285 0.10748385127943359 9.014845304043636 -0.2407619566775531 -0.8476623732586563 0.22630335805006188
Ni 2.0314308194027335 5.2318414579995025 0.7559403455834115 -0.36115463353571353 2.0730442263902424 -0.6028781827955876
Ni 4.6479890953435445 2.097145032783422 1.4755967696682835 0.36766672362261843 1.156919289483814 -0.6680232520343528
Ni 7.255584211348282 3.4035255934661133 11.75338506118977 -0.6766624157665895 0.7136634184709709 0.23182788741271687
Ni 4.250216058264205 1.7368841326331934 4.454921130210074 -0.7443423356120665 2.0358781588629067 -1.9486128606863347
Ni 5.214187033146337 2.3973733878806405 10.89048777812233 2.7250111962926815 -1.3568888947353535 0.43333526946502143
Ni 5.076711286135203 7.96419888495542 12.571219026352669 -0.22401687600873033 0.03127438463324936 1.587850320382717
Ni 9.133159952768835 8.342357977906866 6.921664313123156 0.35645414273625065 0.480963669976262 0.09133818269436528
P 7.366658014447299 1.3914461988626006 10.429460708799569 1.0149524859993038 1.1946240031234394 0.11184427306751706
P 6.53393732821066 8.82193391293834 2.8294502006651103 -0.6862127784591859 0.29060973343761565 -0.2439210711318251
P 0.5286811130285275 5.129458919817576 2.2292381959877567 0.29398302078522276 1.030434897905619 2.5029853825720507
P 6.4055466251096265 2.12878798757866 4.87760818914938 0.07855234378360665 0.05843474709812517 -0.28677698995508677
P 4.204922098378044 0.6558201614732164 12.59715406088736 1.5522266576418364 -0.8177144207463142 0.9752744506833914
P 3.740141002655278 6.907408576007256 0.9128687748491108 0.3758423174548753 0.23315020576856624 0.6675802509596632
P 5.08149288819315 5.8669600952689 9.054421030409912 -0.7258666454053821 0.8069181014617588 0.01680601581374525
P 9.335431095510307 3.6988410868410484 5.225372231685809 1.024852775832151 1.9600509273199473 -1.8807971865939412
Ni 3.0471649804847196 6.988695810992357 9.470096010566593 -0.7208938747811391 -0.27302570180726526 -3.2017235471917567
Ni 9.291927892473298 6.000160527498811 6.646889082078712 -0.040787723440323304 -0.024958983938182824 0.19134818213111562
Ni 0.07250502587200425 6.846832240916284 9.455646196661283 0.9883094294904786 -0.5431457999319613 0.04767365192687919
Ni 4.127638283155186 4.24382183747299 10.550463367936558 -0.22140746341034126 1.6330870807333293 -0.048741173959445085
Ni 7.547796351230706 4.293475493353162 6.335846805778285 -1.5280881127224197 -1.2896342353527532 1.386813707319244
Ni 0.7510302965682215 6.978926341689649 4.149600837705658 -0.4908037959951354 -0.6626632732740201 0.885829885467313
Ni 7.920339405686643 2.3120077276108204 8.318193073702645 -0.4320240068527657 0.3522766143197933 1.2314154609201762
Ni 0.7995869966821587 1.2884167380493055 7.337105838591125 0.2645348907274347 -0.23136354618178864 -0.05187457738210421
Ni 8.276728145738964 8.641001841341746 13.486124201137045 0.1522239624361443 -0.751867440344518 -0.2324508657086964
Ni 3.448463277120506 0.8679189027973154 6.42819735532883 -0.21739525692715464 -1.124781785519321 1.2887569749541226
Ni 6.086276242993407 9.369802376185667 0.4933488240964224 -0.11930689999314936 0.22193891043377909 1.0440902839055246
Ni 2.0376844048393035 3.0109560645086577 0.17314368565632574 1.0293990004419369 -0.4516849756168027 -0.04535374554445092
Ni 5.359528984327309 6.91919381872655 4.127261380404736 1.3314041202006877 1.1697537222443208 -2.912736179848913
Ni 8.465798316524378 5.479903472213549 11.120705978538956 -2.1586889582442566 -0.35563807459285846 -1.4828274411124076
Ni 2.0576264981280357 2.1530710254807834 5.213406038143539 -1.3126787758770426 0.868888372516968 -0.05556385330823334
Ni 7.717908876209906 2.9648932980171008 2.9847997636826564 -0.8589122351408627 0.696038506300356 0.8335318473945451
Ni 6.875062444438791 1.1743802168124227 12.464925887742567 -0.028179804868325664 -0.15755591617201897 0.4351586958270054
Ni 7.641412618973062 5.374567591584068 4.349946213657517 1.0478260967988728 0.7772457712083066 -0.29355184678507507
Ni 5.906366121640571 3.946696835868282 8.808998273018046 0.1515063675438294 -0.44922982920809085 -0.05085719186118338
Ni 4.369643601429166 0.31440064856936123 10.374325086795315 0.5326832098377406 -0.024533466364990007 -0.11519750581046613
Ni 9.293343621710063 2.7968996790478937 10.876285482441196 0.054299898994145196 0.6540858160176541 -2.5743414657175343
Ni 7.435981868597222 0.5359979017462174 6.899818017132524 -0.9263124189623918 -0.37792825344962655 -0.6607814828702749
Ni 8.008330259243179 7.278723415032622 2.6151219201853646 0.8104569678529527 -0.4394881764402947 0.5202717235472653
Ni 2.9177710785205475 6.728839178368708 11.579290680536042 0.44618744283734124 -1.0247651012143513 1.4494290681576198
P 7.019485577969412 6.655315014960039 12.715358076466906 2.4401954438290234 1.6275003306741713 1.466769102097964
P 7.2812173486550025 7.257449973719912 6.31696510306358 -0.3249002791893695 -0.47221472013903837 -0.2830208653467642
P 6.240421967375187 5.1624519740174115 2.7564885786750235 -0.5997226678857414 -0.8879045086081547 -0.07505410082236107
P 2.8313459652457316 1.794019589380506 2.5367261480917755 -0.24308803370756848 -0.11851088645441524 1.031203400640527
P 1.509261123294293 8.278668913633073 10.66460583447394 0.7458731704342961 -0.013946949098395335 0.19048429146892357
P 1.4800089695280283 5.629089456421498 8.283173932826884 0.6347614046574294 0.6082245347091655 -1.879539917148073
P 0.13176688918155702 2.6515858549378506 12.944011474170841 -0.1309282862821616 -0.247889825971586 0.31396357767220767
P 7.821332116016209 4.81729531095611 8.984602139811637 1.2822078609816951 -0.013734318866956991 -0.009808758560305688
Ni 4.417197102679966 9.26155065586987 2.089696046832365 0.06623058899346013 -1.776295984155057 1.6248389817919242
Ni 2.532833361475188 9.512762902027976 9.036416892308194 0.5441469875029661 0.6869172607253783 -0.7085788048592119
Ni 7.794011354453743 8.610915251137918 4.7728798532519665 -0.9113336861653725 -0.6846947991527628 0.6747227755417154
Ni 0.18482298307511927 3.671248430259601 7.309853519567919 0.7202055904648629 0.09900649787290046 1.4738635470509003
Ni 8.069984798719767 0.9024130050157332 1.829453135767956 -0.5983797807046017 0.13941832603104376 -0.9796748937439321
Ni 2.9338503874016837 6.277821596020581 3.0694659974553726 0.31656193452700315 1.0586671532784349 -0.03643741689142757
Ni 8.92789796481857 6.037260134054295 0.5289633213068494 -0.4953703323198953 2.2993398711308206 0.2215293337001862
Ni 5.776072153406667 5.723980818045973 11.48257668471536 -0.8577894343903292 -2.414911472451254 -0.5646186250937567
Ni 4.0915231240822205 4.707965386254696 1.4676789992017418 2.422457660229628 0.11942028564256206 0.5152110211949062
Ni 8.99354654836709 3.6788333637201487 0.9814163218413906 -0.2922092167142516 -1.5745510321706495 0.9458810851229389
Ni 8.524471386482482 1.8421356320498872 5.342683681547871 0.41235506766892854 -1.525315177962973 -0.5623341999349541
Ni 0.4711725038068886 4.748487119773221 12.647967489658843 1.8960320012658247 -0.8799559431850393 -0.738632943932115
Ni 2.050894752485671 7.806743541894315 6.9227209534210585 0.857153343468227 -0.23612728611901915 -0.28816230033838763
Ni 0.5683093432605371 0.8469417332983923 11.966739207446338 0.6054276886903186 -2.18538523658852 0.3555424295552586
Ni 9.324864692531275 -0.1686733565166607 3.4019842299791985 2.3839283938061784 1.3693975687253255 0.2855963393834243
Ni 1.7974229649629272 4.893041512968177 5.395486631803071 0.21670234462518806 0.16069523313194906 -0.151747537020358
Ni 2.534464731589076 8.798494687164089 3.5808949027450208 0.44946894180209046 0.8133682279624767 1.5725789960459433
Ni 3.9827651164896984 2.372499681489006 8.819852509689586 -0.4062839217741841 -1.0990440144335845 0.30213187514460227
Ni 5.654703842347599 2.294418932589823 7.062935339571656 1.0451480357460774 -0.9420195452850035 -0.7818521596320663
Ni 5.5504461661037325 9.423881357892018 4.9451215975005 0.6292440743836261 -1.3929550443302914 0.2575476607763242
Ni 0.36300703984193977 7.14932013737814 12.012571331956277 -0.6925387206772137 0.6576617062943705 0.3404130301129879
Ni 6.998127755443915 4.708021640396555 0.11804837912040374 -0.9469864023719755 -1.0669461054577756 -0.3278596189280095
Ni 2.547403184216462 3.648624889542295 7.531289510871448 -4.360409698768007 -0.6932956534478965 2.4821463343395123
Ni 7.400204234375407 7.18184440706249 8.432102085551316 -0.5697508041139995 -0.3636858845979995 0.650988408039253
P 0.5762299264341718 9.55420345319685 0.9317007864051746 0.03584349206117053 -0.4729803946604693 -0.33890199278510025
P 3.1889160422770764 4.789027604672364 12.492411661454483 -0.7742476078119311 -0.4937906465376013 0.28316150468968654
P 4.131819841033312 3.6116096641995985 6.504177949598641 2.889671327609649 0.7491366716769163 -2.999469259671099
P 4.877252850486642 0.2964171369863254 7.876748071160723 -1.1120301422806074 0.45983228731428544 0.39429692461563703
P 1.1857623048483985 -0.03973136282541636 5.508887481236956 0.005166117581971747 0.4963512081759259 -0.4499641362709541
P 6.753169094722379 2.4722570263842156 0.8285269399611102 0.07576629639803727 0.12277454682677563 -0.14794873209955808
P 1.8491955268530915 2.335915737900556 9.845262383171182 -1.014204037869053 -0.4435428061256426 -2.7114632824049174
P 3.5697190798958585 7.041049665681723 5.0971099755420175 -1.9415855215259075 -0.387300695803462 1.142439350700084
