# total energy = -340853.8118434721 ev
CRYSTAL
PRIMVEC
9.41936267505919 0.00000000000000 0.00000000000000

0.00000000000000 9.41936267505919 0.00000000000000

0.00000000000000 0.00000000000000 13.78618939872278

PRIMCOORD
 96 1
Ni 3.1616750511455254 6.84255479784095 7.3691320286352555 -1.4786278012087632 0.3051503502559519 -0.8421949223861818
Ni 8.287145950547083 3.7919622919072307 12.570771663184845 -1.7628514286143768 0.22861426557142564 -1.881963953208533
Ni 7.028370567313798 5.477133389263133 4.389936408667486 -1.9100702245264458 2.687652553138565 -0.3538552716608228
Ni 8.2616194774254 4.008456925939975 3.5640466805091586 -0.24046525137274075 -2.2662114640079682 -1.7410988674286338
Ni 5.249618100783021 7.500921159036506 8.11281426817016 0.49766735588418803 0.33947406323848633 0.9711917959735853
Ni 8.764660546452493 1.9779343117821 0.3615565885209911 0.06336303763767798 0.028464683098596136 -0.38431718769510587
Ni 2.5358054915255432 3.343355720359917 0.35389111109426613 0.08734654503646892 1.0556895587073496 0.20193547072865867
Ni 3.3511455333752784 5.287050648452971 9.383556009873475 0.2687013634002985 -0.049049706338799404 0.8083977713310787
Ni 5.937193905945491 6.719123468030427 2.1680716848963604 1.4037408220918857 0.14414221386927437 -0.8925006126192694
Ni 3.977533157947915 0.5643300367986229 6.169416050004534 0.8378754690752215 -1.9959530405331949 -0.8183489690065197
Ni 7.867343790367334 0.3402047769814234 3.0877754404901174 -0.08896454025586613 0.427174134959632 -3.2642296361457785
Ni 2.2070320532085006 2.8949469554308886 9.362353024265762 -1.5456659737051832 0.9967853281719737 -0.9846756893926332
Ni 6.145277049019687 9.371823251600276 12.348924005286769 0.5314953601772265 0.6519615705857998 0.7164132133019662
Ni 1.6748851532050257 1.5391803936979884 12.559204685696498 -1.11912150190975 0.9892172860167284 1.6050129482049325
Ni 2.229224071907646 6.70502268195546 10.991963068353932 2.013085072227791 -0.5862032932430679 0.9678349636862106
Ni 0.9645050707630028 6.049538645769217 13.06142156048073 0.9159272190733257 -0.03710076150703933 -0.04807680090256881
Ni 0.9322512887470386 5.843546601231187 8.818460178881201 0.7462256686777085 0.8520682156358357 -1.0815304310298535
Ni 0.3955190429444362 3.2759130828871337 6.9811607210828495 -1.0956882105874743 0.6014489065482286 0.8913976093630778
Ni 2.887854175260916 8.637574503885064 1.022733687568764 0.46245532675942935 -1.5181839662348304 1.0882669784227388
Ni 9.23365061904605 1.4116139636290077 11.206668965395604 -1.2040792349990683 -0.7957160620983521 0.2961617736040964
Ni 2.195945463221704 -0.014075353795472041 11.07197867125949 0.34280981247993864 -0.035292761764023094 -1.9305647449353722
Ni 4.511290768986005 5.844290730890454 3.8392192349520564 -0.5985998671352077 0.1371459850570993 1.0810984856987575
Ni 4.681366783260946 8.926164940601703 10.43501498616249 -2.2637532322754628 -0.18714237157988417 0.7156236275211353
Ni 5.424196570464664 0.5970331224189799 8.52241525846401 0.8976075948285316 -0.30408437088528273 -0.5345791413088729
P 5.209708260703108 2.0206134445180193 -0.2777666469512785 1.4457770732273294 -1.2681732372655 1.3685915278842622
P 2.488652161471248 6.954183666093737 2.69409694103202 1.3671756213733421 0.27629537369747253 -0.6197801007572488
P 6.532893246595455 5.597305619553325 -0.16366237016108295 -0.04551392527139903 0.03990866326947966 0.5371427882709909
P 2.3614248284621864 3.360696767229664 2.5514510530956955 0.4410508929417243 -1.061665059564494 0.7284493185308938
P 8.30250893123397 8.653267162269096 13.043361816231208 -0.742062024218322 1.5446529590596367 0.529364686987469
P 2.028949580574362 0.548409429835425 5.35415607273839 -0.9497163997086289 0.5855630885559077 0.8997045865668764
P 9.112875549538227 3.1319569615887337 10.027798978523402 0.7913516144820694 1.378765640203787 -0.24333126006662611
P 4.82992897295658 7.696994614571905 5.936250085795383 -0.9798800677762027 -0.17843918737893139 -0.32624676591493496
Ni 5.3076319561175005 7.508946456121255 13.630019510552945 -0.6173889748172529 -0.39354924781633516 0.43083384319940643
Ni 7.356202069353288 2.1409269652498426 8.966013554823576 1.3705136846076398 0.7983280457999026 0.32456629288871847
Ni 5.050276126364515 2.567463969814094 10.116457788711784 -2.348663142845981 -0.8146128990028552 -2.6521453613708905
Ni 3.4402903826828792 1.2362254287486696 0.15907702436195573 -0.5637639904029452 -1.2138939070966448 0.9507944632641562
Ni 6.710853267513513 8.139987245905004 10.387756159245109 1.8678090018643898 -1.888014273167671 -0.0024698016967312306
Ni 8.6756287294982 6.866414043751363 0.5725098114328917 0.35460114868791187 1.267377737947398 3.720102424591684
Ni 6.151390215461006 8.447925053762576 3.859526439159818 1.3407829903124262 -2.244405680986786 2.7927209409348293
Ni 6.788195655263376 1.700345690787279 6.797818476274856 -0.6845546740304727 -0.4148780912010984 -1.54206462950717
Ni 0.8730044388252427 0.593407609686679 1.4718545563236218 0.49868422718447664 -1.9481408061459222 -2.731561081596057
Ni 0.5224261176191298 9.582788719683785 3.902677481970791 -2.1329396171942943 -2.6781291870291617 2.701595645582218
Ni 3.8397467192674863 3.0107862788443365 4.235199826672494 1.2209443861855231 0.3954719187603447 -0.645223737641334
Ni 0.6711625655261105 0.5901268456319624 9.11887474168996 0.6976927540743274 0.21208387201657022 -0.054252847806293664
Ni 0.18934614664111615 2.0753587809693896 2.803931420676068 -0.11605419738380658 3.459956149850248 -1.931439948451474
Ni 7.146404602253944 2.3985936339744214 2.116938674069405 0.6244559089663632 1.0927093304648083 -1.3698842785537568
Ni 1.811588365166269 1.5087087551191543 7.229078349334757 0.5847786449813993 -0.6593398653277418 -0.31375557542645965
Ni 7.528152536820557 3.778972990639777 5.889501788340435 0.3635624716462577 -0.22156532914444424 1.1749064700898542
Ni 6.2799550979841925 2.7115802202796777 11.939171363252232 2.6268498200288954 -0.6697404918357756 0.7371005664479886
Ni 4.009756798002997 5.737013608239961 1.3877179822037697 -1.9798533067578548 0.6390615746946801 -0.3314987583424936
Ni 6.434922454367184 2.2835549563968933 4.218325980196412 -0.366246189126008 -0.38268273741547637 1.4884471012920302
Ni 4.770276148499159 2.2416670501341187 2.2910574788476015 -0.5612736198809236 -1.2246747997622327 -1.5363369829947735
Ni 7.926572743499857 6.603943500011265 12.439375320211335 0.4246621671710557 1.7172503429458101 -2.7117489319661363
Ni 4.218160199411563 4.832472200905972 7.333012540136215 0.4010039043221675 -1.8991777459836583 -0.055218811263988775
Ni 4.663724316782381 4.234012986962777 11.703868145629313 -2.526078259835772 0.7600319784331814 0.5922690398211735
Ni 1.1867926129026967 6.439566200215521 4.285147881662287 -1.0472897646794286 -0.8274187925182717 0.724400602382817
P 2.658059400989126 7.908044856920392 9.155766617936594 -0.35550026346341357 0.63744975012287 0.36445258756069493
P 5.58600238422269 4.673209615097338 5.8072396674129125 -0.262228096971129 -0.4782239024475958 -0.7185009490689303
P 0.46462043020198984 3.9372465433569803 -0.12364797515436089 2.135722065035438 -0.5476822543497343 2.5438199000899093
P 4.559433132131731 2.1714833780936567 7.2359573099697245 0.5617073649842326 2.212655128048067 1.349043944769638
P 8.349389099767773 6.723107858484475 8.924434603659838 -0.7823008171337108 0.826187491214332 0.36731371115857386
P 7.926195968988836 6.979973881373134 3.036035822700418 0.21832702471280466 0.218899609386823 -1.9828576408018173
P 5.569414886374985 4.6672848359115315 9.710109304384323 -1.1906534485114655 0.6356227242164602 -1.1118866747242075
P 3.1789878399269464 5.412252818465294 13.011391557034788 0.3661996521587887 -0.057923097569029275 -0.17318590939979206
Ni 0.9539082876405334 8.011149201861326 6.878054492269361 0.021427316635840517 0.006567883025504818 0.036635134724530456
Ni 2.3335152565582957 0.8396344623203783 3.2239144326211067 5.209106426828448 1.8757524250811826 -1.3776916904133176
Ni 3.1148419794255986 0.7179099210447804 9.070774765676724 0.2615177011676657 -0.08365315534528174 -0.7087806364573729
Ni 0.4280252638827846 7.825361690476805 2.3849138934155216 0.326028993477174 -0.46777622475171055 -0.39200555747829907
Ni 6.894106970311417 6.231294669885813 6.721732631519248 -0.29314175583085 -0.4953703323198953 1.2261770953393722
Ni 2.3756857437043366 3.4204814627659426 5.767134846523546 -0.6315238715567382 -0.23818314020678338 -0.3220743797048002
Ni 8.0378719340555 9.096749600466522 8.80191695203854 -0.7808939094838551 -0.9541001305986212 -0.3201349965902422
Ni 6.8188745198232725 5.170015065967031 11.30510319027243 -0.3319569289258348 -0.787072013270109 -0.9768086279397307
Ni 9.192940133130218 2.235845883938842 4.929500114920412 -0.3711287140292899 -0.30635311231480145 1.9998981412238719
Ni 8.961694776990996 0.5824086197736945 6.921921406651275 0.6174465675280657 0.5307471691572924 -0.4069158989312282
Ni 1.47672059913346 5.269238633444447 1.6224824122759287 -0.06113286275557858 -0.13291240659172593 0.26000486406756507
Ni 9.505832525807719 5.5032909596907755 10.948316567060965 -2.784160452959328 -0.31260243565862295 -1.2326223367440836
Ni 6.7761200321851485 0.38426384636395733 0.9178556766171986 -0.5748055929290875 -0.2991918186796718 -0.5990351549004136
Ni 8.507559039494446 4.692839567121539 1.3980020424820918 -0.9718538550376167 -0.5240712997990136 -0.5306109006897443
Ni 2.722035712960514 8.071433123624708 4.7504587511557235 1.656115937528335 -0.3330766443525748 0.13675697714879675
Ni 1.1264427555998866 8.548175331782524 12.91921744065858 -2.642909444594919 0.18478029910561078 1.4941858035480202
Ni 9.153896874425653 5.698846350273521 6.15740824633829 1.7363950341950611 -1.485411914010132 1.2271471725621252
Ni 8.237788489603314 7.35036206443246 5.064191350992802 1.27751945436709 2.29315893913109 -0.24907150498451297
Ni 4.8249084525972235 6.6601394183300675 11.347936800557866 -0.604208728681553 0.219311500113261 -0.0846132052657059
Ni 5.13576626291521 4.054837868246676 0.40080707320661785 0.5977061516763449 -0.7352845962851723 0.47726308119622324
Ni 6.754238852457596 8.561343600942713 6.384949909034174 -0.891098075844788 1.1691847371147284 1.550904339285987
Ni 8.308179387624838 4.452758848698872 8.320792856317548 -0.6542902187189764 0.4416149929753104 0.8389782152210971
Ni 0.3926367179351245 7.775420229040953 10.477200544288973 -2.2113847459760754 1.5553042681258955 -1.0383500389876377
Ni 1.4410400529397587 3.998510078849017 11.725126705477402 1.374953465546548 -1.0304122721977995 -0.07529167075446387
P 7.9477286322936935 0.2481644155566255 5.066576333647566 -0.22186820509684368 0.9915395063920021 1.926291571481315
P 6.515175425214687 1.030487707005579 10.523935654636032 0.2796018123628862 -1.8185937164820034 -0.17536414799803346
P 0.5743409355564545 4.342119013537516 4.47019974081404 1.978161520877729 0.007059477949942682 1.6405111411115425
P 2.9862865162651873 2.5227502547186607 11.247187296310816 1.5633075980463464 -0.3972431517281546 -0.03773582398787695
P 5.815957287661664 4.223444461928635 2.9787406647457115 -0.7610025698765668 -0.9193370160858232 -0.9452591352682238
P 4.807633341266904 9.325998051697331 2.809170470251817 -2.8689482361296847 2.4605971474138264 -3.0589602159478804
P 3.1055639070917027 8.203210008854349 12.536389105181613 3.2849406434408848 -0.5118531604662668 0.7042791490425936
P 1.945399832755425 4.834177105568343 7.21537411843264 0.2599750392708942 0.8008896358794917 1.1546654604526307
