# total energy = -381165.09469371696 ev
CRYSTAL
PRIMVEC
9.31252553379110 0.00000000000000 0.00000000000000
0.00000000000000 9.31252553379110 0.00000000000000
0.00000000000000 0.00000000000000 13.62982244320693
PRIMCOORD
 96 1
Ni 8.219495846514462 2.9519495528116946 2.659450573692131 0.31222654037644293 1.144176645106165 -0.7404000631348667
Ni 5.076872332014058 2.7534996322458127 5.288466882466319 -0.5184488114059136 0.9030382789257996 0.7530264936496257
Ni 0.5170826402806605 9.111402985988764 5.007324528317666 1.3332671415513553 -0.9043559692959586 1.3814789253698916
Ni 7.2487861154010975 6.887283184080263 8.6913969063348 -0.28678136083046096 -0.25710748791511207 0.6842181166266603
Ni 5.807225777355232 7.203285115312646 6.585303122645912 0.36905460510908056 1.830111744423932 0.41020999630146776
Ni 3.8925332636045242 1.516498231560349 12.886575145701617 0.8723827588234718 -3.023169945722148 -0.8918105285307802
Ni 0.5419647774350472 8.388043247374243 10.259944705986507 -0.6319252207602148 0.9840401126911634 0.6325394573054461
Ni 0.0922089034948445 3.7593548349788706 7.10203747446908 -0.3019819798302993 -0.7599607588756138 -1.2465744280488014
Ni 9.275266186471038 5.861843740007456 13.279481775855498 -0.46612583363248106 -1.5866580998468285 -0.6642280466579786
Ni 4.311634165770031 5.061683602758171 1.771563651519956 -0.831494248139226 1.40749617536926 1.0893370715584658
Ni 4.9222099068259695 6.776883193075639 3.7538846574406066 0.35000890133153917 1.5117641787514158 -0.802381904154302
Ni 6.209890071834264 0.7737237395720247 6.644047465392117 -0.8651877837369293 1.6100636232549628 0.39329393727241946
Ni 4.543441553040136 8.915439509758455 5.174766532388558 1.6312739387839905 0.0689245908858555 0.24097407268835916
Ni 1.7150971525358534 6.884424238720633 11.45270416004483 -0.7395315444869843 -1.1954819802483605 0.49576782486862997
Ni 6.563142105472255 9.056105208967637 8.926525140234366 -1.313723415091473 1.1981374155933364 -2.3042787031933347
Ni 0.556428060946585 7.613995431911289 8.05637019805982 0.8670402635646358 -0.11873688642229228 -0.23169650404117517
Ni 2.7107737647865786 7.669246646304408 4.539344041775519 -1.398095193770334 -0.812565272445207 -0.40230179719798453
Ni 7.8011771964994745 2.2166511563761757 8.581458816600007 0.15552680155713217 0.03359686211883891 -0.17564825489735558
Ni 4.165911765159288 2.829564341358066 11.062032536035284 1.6304678979429275 0.2603897582108096 1.027648336299417
Ni 4.203078054834485 9.18880869878762 7.560353421942092 1.1301957574460408 0.7784511043703174 0.7029159501464798
Ni 2.8361110468558515 7.510021083571633 6.913659050341115 0.20959375860486484 0.8554702993388493 -0.38178542241218766
Ni 7.969873597768876 8.639406938407292 6.882856009409356 0.6440315171054456 -0.4114536389005817 0.15757905610047054
Ni 2.7777215113350597 8.493265474144486 9.2503011678388 -0.8268382374244535 -0.2667339552612826 -0.3802653862232354
Ni 0.7142967886992364 2.802334516499566 9.162403032444843 1.7576459731540373 0.873710733606276 -0.543512953463393
P 7.1352384907432 6.9215905283958294 2.9312701584612206 0.3515124824602591 -0.4374644611420466 -0.1874017958888579
Ni 7.472445042769975 3.1125347442822746 4.895096488537487 0.015908443700140343 -0.8109691316026808 1.0664442261206926
P 4.586726172035453 8.331190278577681 12.805205090754244 0.24332997451504543 0.3226989006626765 -1.9188317727691597
Ni 1.8817913608009535 4.361074364187876 12.703362379524748 0.07837725165832309 0.26018869794359706 -1.4016728838192636
P 4.239070966283905 9.043225986060898 3.0953596533156085 0.37299662047596405 -1.4619755373640628 1.249940516307557
P 7.251319122364679 4.540061106246827 9.564918326514253 1.074969489982884 0.05022418626287479 -0.4026681793984678
P 2.132195861697059 2.6679361470201286 10.901131649946816 -2.9151334764364956 -0.939121654911918 0.6748590440092636
Ni 3.8621092424647427 1.0359067228487833 1.616878876270424 -0.23565343180639417 -0.04257412591678475 -2.3363161912448542
Ni 2.6910684606140114 6.183675312266316 0.41826091235626023 -0.1363250318177007 -0.6538140504135062 -0.5255322006152562
Ni 6.885327553703968 8.490639341924892 1.392654678597541 0.8731198940998125 -0.26936265113338126 0.6090015220845061
Ni 5.802681264861748 7.209198569069537 11.169421787512974 0.9815831665102384 1.2065827181472124 -0.5339404792836094
Ni 6.010583398913052 1.5794136545234227 3.441925293571793 -0.09169839424726142 -0.5024352095864766 0.12242204858336338
Ni 7.617953255291885 7.4389478881817315 12.739917767520492 -1.3594479137117814 -1.4792615781380203 0.899803831148902
Ni 6.4886046505586314 5.070651564912321 7.33852813086413 -0.42048669563712743 -1.6479794244641297 0.5635079085280812
Ni 4.227411684230949 5.578575336264003 6.131893944912279 0.023155869291173026 0.35550206323562644 -1.417434003308262
Ni 2.7110624530802223 0.7354958219782685 5.869982887383082 -0.9331106728311478 0.3962244806556531 -0.33492989551122965
Ni 9.175696662740846 1.5169079826868108 10.777359803431137 -0.5010807524411112 -0.5211335573269283 1.5760301878193375
Ni 2.568739124313992 3.344006880630729 6.3355644673303075 0.15776263286618636 -0.42492647657603594 -0.5373127381899521
Ni 1.8032867699811328 1.4516364907465824 13.557502571422562 -1.1044435881826011 0.17977744657438072 0.41516374076231727
Ni -0.1316493119219033 8.919751209111904 12.728522961194617 1.7909695270068315 1.0418146004974704 -0.4307204575499937
Ni 8.511853275244885 1.0178869858100699 3.743689304412192 -0.36572939739058946 1.1811619640812625 -0.6005433640148238
Ni 8.694863028363642 5.2871398475681195 2.012988083978629 -0.996483994881471 0.6355651315056473 -0.8284845147786248
Ni 7.3470705105982965 4.106050850593475 0.32408985971720033 -0.35347114884852676 0.2804073389833171 1.488451215057088
Ni 9.224652609827416 4.132954737055925 11.549789101944569 -0.9335505885820439 -1.2232709774361707 -0.7780932068102664
Ni 1.872050459021887 5.46347251983067 7.021239208593634 -0.2051858593451563 -2.452623899400363 1.4048934476390902
Ni 5.348267265615723 0.44461163479798804 10.910768251439146 -1.4739658769567197 0.3081950506195466 -0.8956350444831931
Ni 1.377331848972994 6.347417449915772 2.724111163952907 0.5502027067787427 1.584503258287355 0.8553209182451786
Ni 6.951595485883547 9.059746406477785 4.769851400471668 -0.45404833364265673 -0.7507286987543845 -0.6609218651028811
Ni 2.9825877620403074 8.974946548351417 11.408038493502824 -0.2092397176995558 0.44659907645346314 1.2909362419936283
Ni 4.179703615574965 4.603963656923649 8.082157512702663 -1.712592789569141 0.10947114484965018 0.723249005276877
Ni 4.706867064819145 7.153165102525899 8.895367292077193 0.34027213365974945 -0.6421443273850619 -0.013117768328880635
Ni 1.0886901179575312 3.3269742713057644 4.309354459502807 0.4886008748065457 -1.3677952572352121 -0.4522557605186082
P 3.8409791218751614 5.022952808781938 4.1498858398518355 -0.338357690245856 -1.4720239227390004 -0.9492854828187974
Ni 0.07899536091901484 3.2765562576997724 0.4880080041005226 0.34645152299758397 -1.0887326052052475 -1.089209544841666
P 0.7660939873467958 7.43967426517864 0.6360967174665813 0.2968320601982436 1.5820126306550175 1.5107321379424756
Ni 3.365723690333199 1.8130556093370036 3.816950012065863 -0.12338852626169072 0.3954832316142544 -0.16751559848789213
P 0.9391868319526195 6.35683241329879 5.527083588456168 -0.4800666120832894 1.617920143184904 -2.5131792923859173
P 2.5179858597863496 6.327274457039938 8.847608935782963 0.16418627700434305 0.4060628069023136 1.2736813115679224
P 4.028496137384997 2.0429166787564155 7.18491988357412 1.2740453797755606 0.18071255679414042 -1.6109195434973547
Ni 3.4456437850444335 1.827788024838422 9.130127681215503 -1.2043512577135322 -0.7999653242930095 0.9392250132590019
Ni 1.6571266806671243 4.433581688520394 1.6899887210093525 0.47969097391142557 -1.4003929886655753 0.3201362821418228
Ni 2.089162680892979 9.144723202590582 2.6304197063823196 -1.282492224991333 0.28296147286373846 0.1807891756683467
Ni 4.81323473223836 2.9536164948943453 1.9082705960959807 2.762431288812352 0.12127353680121694 1.4113564296556147
Ni 6.787667097722064 5.191407084385704 12.067762950925282 -0.23915733119459456 -0.3708165821055098 -0.3650184873664939
Ni 8.79593186871566 4.931941496079435 4.301177130772216 0.6962668202610783 0.6543249286116538 0.5291559134107726
Ni 5.855511222598502 2.6247353407552234 13.070086843950287 -0.8249132524875986 1.0274791577114046 -0.679884522248313
Ni 7.46941847194952 8.790120852740387 10.820157377337502 2.2234054245860353 0.17074310428625433 1.1489483554631954
Ni 6.6178066307524865 5.640149755540474 4.981441294661129 -0.24355828847576763 0.6639367406698049 3.5586579719985356
Ni 8.35368934043067 7.184483126123415 4.855583442410738 -0.11011597752250067 1.0574643912195854 -1.3052367177767004
Ni 8.447699286376825 6.161790877103021 6.846968329499233 0.553874242093059 -0.8081990250567114 -0.30816008361655317
Ni 3.308423720307771 3.325223516492701 0.3914445636344624 -0.059066981365485376 0.5737743234510957 -0.09694575868912982
Ni 6.120126637562348 6.132773047329052 0.8464322144575328 1.682841269338321 -0.5589040912074826 -0.4478103231527449
Ni 6.417959831346394 2.66741464558645 10.66528169531314 2.2053943327205956 -0.16957608056134665 0.8085263264891431
Ni 2.8602770507914905 4.5155412263383345 10.18797843939143 -1.3448566461611677 1.8291290687956887 -0.8196388914625368
Ni 8.443629712689011 6.270514613499392 10.713135970621067 -0.7513416497480351 1.699838575227266 2.564312363616306
Ni 1.3179365606872504 0.7090761868470902 7.735700828996015 -0.16849158924791627 0.5009352280021824 -0.035529303254861394
Ni 9.324073133147985 5.460613574471041 8.982925520286697 1.3848915505958668 -2.0896309271043303 -1.3993714893795963
Ni 6.410509810865272 0.2411376066701497 12.913847808177882 0.6527516705872629 0.09436308556361814 0.4001847508549818
Ni 5.612854743002764 2.951204550763582 8.56202264441732 -0.2849023986401932 -0.8104459121093591 -0.7904131618282001
Ni 9.103347651343551 8.265611473292607 2.7574490743533673 -0.40508733036292177 -1.1571257490676652 -0.5730248468795809
Ni 9.152247723276513 0.7048352626882116 1.1933917745466567 0.030018914959593464 0.3937760191151605 0.37010130120604
Ni 2.7329003256155104 8.453314739314472 0.37575947676402055 -2.6199199256782815 1.977118424325195 -1.2661348666792323
Ni 6.490094654654857 4.703579743281849 3.1672160321085885 -0.6480141559022775 -1.8465601197879422 -3.5787290317167977
Ni 6.946436346700371 1.579441592100227 1.2076026886143965 -0.2546004052225422 0.3681189806686886 0.31245254034431996
P 1.1108259913120644 2.208195383130102 2.1980540427501754 0.5144024092506817 0.1683334664034972 0.3512273471196726
Ni 3.910692688527259 6.220115224944604 11.585280999516632 -1.5456983696050155 -0.00995968231587317 0.9464564980104344
P 9.419060894282289 1.8758779070440632 5.749154730210008 0.3877177287362226 0.4680739584977875 0.153894922380664
Ni 4.632143359393492 7.786202655332419 1.18663833098052 0.39406166867637943 -0.1446597769356412 2.275830475154971
P 8.80249719926465 0.2707812381645333 8.753003919450876 -0.6541855748203121 -0.19614328952691382 0.6189059256824115
P 7.947542161376713 2.092524502635085 12.648052496220341 0.6525786353445084 0.04764536979210504 -0.01290693786965519
P 4.687971950373899 4.707090565433577 12.887583692224247 0.545882482136834 -0.27612336689598255 0.7772164606322679
Ni 5.255654198509778 4.919909713002423 10.193662805018526 0.31114590571775447 0.06329567473485229 -0.3311938255075651
