# total energy = -340862.412494141 ev
CRYSTAL
PRIMVEC
9.38396533485577 0.00000000000000 0.00000000000000

0.00000000000000 9.38396533485577 0.00000000000000

0.00000000000000 0.00000000000000 13.73438181331287

PRIMCOORD
 96 1
Ni 6.159831724519524 4.640746077660351 9.552784461816389 0.6255306300877808 0.07559377537591498 0.4430974910581078
Ni 9.190721061356193 8.242358785098437 2.7489086941448106 0.45590467012510516 -0.5748724416112809 -0.12889505790221673
Ni 5.852797771927278 5.159435362038962 0.4749243481611313 0.6990209859674478 -0.2562813924693909 0.36704194555442593
Ni 0.9851568032333414 0.12728504038498964 7.675513807253717 -0.01666331958829388 1.2604378162944552 -0.5130438383402584
Ni 1.1024751343347887 4.946682106341313 12.80007272477407 -0.7401982315367058 0.9302845162362624 0.4621812471624363
Ni 0.422948442521658 2.8390810911388935 -0.18602396963866974 -0.7904244746821096 -0.4552917191314546 0.25558873727774045
Ni 1.1221908449126274 8.953973007016213 11.343335080128233 -0.23380532285406186 0.06879115063178476 0.6244659362686923
Ni 0.26573606078738543 7.596010040129194 8.028569539658857 -0.4197369619552965 -2.7328330063299453 1.245321786588623
Ni 1.2369661214845198 4.014995135983995 1.973850422895425 0.4205034078076758 -0.5729006625968908 -1.5005310290397578
Ni 8.315778927678641 8.938329937271684 9.31618185893474 -0.6658812659906855 0.6781677966675224 2.06956706647492
Ni 9.084494576948227 1.7447418545056694 4.8989993647139105 -1.939950042805014 -2.4495100363617297 -0.009911345576440996
Ni 2.1552621737101973 6.159212382825979 8.139859611609804 1.2282368060818782 0.49771055041729767 -0.32663654515418583
Ni 4.071298926306238 0.12169782759201236 12.89132427774933 -0.7383997448753864 -1.3836782470140556 -1.8311406999090785
Ni 3.869468605931104 2.2759493482659257 2.8636182829613275 -0.6200382395146419 -0.3052498519482937 0.290296573072571
Ni 8.579796784464694 1.467989957141737 11.633062185971927 0.5307530826945633 -0.5181027409204044 -0.18526006695550676
Ni 1.711175411508559 1.6625289366701406 5.832168063153209 2.889064804373902 0.1696555276490304 -0.22773880494500778
Ni 6.427387336130823 7.896118626511803 13.777370457274932 -1.8153852368470347 1.2105195913077733 -1.7896374384589693
Ni 2.30952517522809 6.873031836531378 12.20710466501284 0.6305265406404754 0.6638884039303727 -0.14050178890320963
Ni 3.1657838344837095 0.876419169777004 8.355256330263083 0.022761462066231766 -1.4514561258899776 0.8139184440389917
Ni 2.3831893008996916 6.654695121626772 5.472051835441658 -0.2810092342333741 -0.42685686082952934 1.119650892050659
Ni 6.150579134976568 3.126314877467817 7.426770230385585 -0.11485349220748607 1.1415656898458793 2.333202585316537
Ni 0.4718098101598059 5.008897794647392 9.194426789155902 -0.5324366410445733 1.549462721743454 0.22200807310881768
Ni 4.327321644866531 7.506121038879733 7.418145428104721 -1.0634242083474459 -1.1482811541928417 0.7874047140191794
Ni 8.329451364761894 6.4770003593697725 10.300332701114325 1.0786808773962004 1.4945979513847745 -1.349819903703714
P 1.2347327378017376 7.181445231986517 10.200909591370298 -1.0543101618613198 -2.012690922113166 -0.9243743213994146
P 1.8232856420051986 1.9183170561040912 3.5555974964007273 -1.4796865814905809 0.2168807791845813 -0.25956983341267553
P 5.604141465934145 5.87887581081153 6.267313783451675 0.5972821767650488 0.09415354065597333 1.1343560594713176
P 4.785653266019698 6.375174954571996 9.737882234104257 -0.7415318627464648 -0.6242257952334281 -1.9329095910184648
P 0.25142269889096586 2.0906911101756385 7.284070150606869 -0.9818171368979155 0.5892860459334496 0.10476885427797439
P 0.6591006150807261 6.92229765306334 1.0220273403258622 -0.006945578079897715 0.10421478154671729 0.6843870381043567
P 1.0652864808269469 0.867218192041844 13.178303758625297 -1.6819426687834518 -0.335194462026526 0.2404043162278182
P 7.986167155167177 8.970939215833317 4.873081791632076 0.13159163089777337 -0.5770733059173415 -0.1404521666121968
Ni 6.017824181361773 2.8805957525364945 1.9713505346051172 0.5455014446483315 0.21899139776968088 -1.0063791425079958
Ni 6.220893185123996 0.6232257166804036 12.33920180267737 1.7207542423340105 -0.7204884118126043 -1.1080318197544918
Ni 4.8259667798904236 7.684585286271136 11.331853798885023 1.4182485287897577 0.2741693284934052 2.366966312030543
Ni 4.715320447942162 3.3908863881920372 5.017513212963199 0.6107025639360127 -0.3187059774531995 -0.13728251063496355
Ni 1.9747146860768714 8.486097893403427 0.008225983766079718 -0.006481236848969484 -0.15378487916536096 1.694252082278424
Ni 2.3263881604296017 6.560742863509056 3.049884358898383 -1.0799905973465593 2.215187150441301 -0.6124683975871839
Ni 5.5094291066470795 0.3568778213715164 3.8877917360949725 -0.11735080470804304 0.17116245121186005 -0.175375203741627
Ni 5.962815378216942 8.268934174130536 6.033733755713828 0.21749552995044477 -0.8007091444375694 -1.4461496260753997
Ni 6.460062302447831 6.798476234179673 8.35790636199425 0.952267962485889 -0.04476676269272935 -0.8872524768464526
Ni 4.148087912340723 4.568367555201108 8.065515148471809 0.8564486040917186 0.49918379252871453 1.2956778704436718
Ni 3.0554940932074888 4.5303155769083245 6.1509150809254916 -1.3906240822042697 -0.7620104423157908 -0.021365353049653528
Ni 6.907358380697838 8.77297508906031 2.3138999797361284 0.5163824157951881 0.6361590563359044 -0.49032068571112974
Ni 1.1473117193614015 1.2676423032450888 9.774581044636296 -0.6783377465864834 1.154187749485264 -0.44885264837433014
Ni 2.4965569827135274 9.341943658196683 2.6959352730201283 -0.5891186671176499 0.20516477629923377 -0.591398464290762
Ni 3.271222065827163 1.6034662606221077 0.5908519756416192 -1.4162636371492447 0.7874970166226696 0.9315207026362086
Ni 7.073135507336628 7.089782661341905 4.083272865714768 -0.4600796274384012 0.11603465699978081 0.11666072061955392
Ni 2.4037214164372025 1.848688035405584 11.815276265798792 0.3598523697845222 0.581512829745934 -0.15355193721894847
Ni 8.70045580712526 7.555067800599869 12.74234726374619 1.7535810590560443 -0.2973491090439782 0.36615260097093716
Ni 4.678479001141307 9.15629129357414 1.4224289300129778 -0.13067143307634912 1.2028667027482056 0.30856091859939766
Ni 3.192753350048064 5.346495321419561 1.1950535799686421 0.13860637165270967 -0.2622268114195484 0.515648365842641
Ni 6.9923114163290485 6.111645063968737 12.056726625027183 -2.21782047429909 -0.7341255429800647 0.5781367141848495
Ni 4.412237144637528 5.944225743445548 4.593436817842086 0.5602035267451966 0.4039755853559817 -1.8364765102996952
Ni 7.542042857105323 6.675527524046002 1.4169759079202686 1.422434541846647 -0.6714577316371985 -0.4158751650070451
Ni 6.132439930527752 1.5961561518452698 5.904314801675626 0.5737709810169861 -1.3666300332825174 -1.1134558189835404
P 4.7869294852670015 4.391198294987116 2.901538885743358 -1.3288343025909823 1.148784061971189 -0.6436641064636979
P 2.5777282804280954 8.449340902288057 6.633527711655125 -1.8594225775729072 -0.15685991854625891 1.0837374659835015
P 7.72585596457734 5.011609760547913 7.696912062765685 0.5781549690172946 -0.5561892633794808 0.22778791301538837
P 6.421334678671182 1.184725588030532 0.7052650311624387 -0.11177202506868492 -0.8681499516890469 0.10524605102470908
P 4.27684529684264 7.297393504190124 13.555326137777609 -0.6261034718721152 -0.201286267180434 0.69959331353115
P 3.7559320127463005 2.1833483811159433 6.909862960970673 1.4543907830382694 3.5493819460132485 -0.9776627484099099
P 2.539169568022412 3.519625004763846 13.606555079798806 0.6292764702834581 0.6889319771625618 0.98589259251887
P 0.8198404292786873 5.486823134832699 4.498614666163891 0.5582906259931998 2.5407343191860505 0.38856619277944693
Ni 4.023722223483942 0.33352113235283926 5.864223687776672 0.18989885127909875 0.267994567141261 -0.6162232366439258
Ni 7.080032721651103 4.1367145466956305 5.433884434378715 -0.16602641553687536 1.222619974115733 0.6390417772003382
Ni 4.872182807779931 6.958557294030864 2.087680734186409 0.3390392896939129 -0.8302675748209765 0.6335005356671348
Ni 3.13416925621777 8.161149951523655 9.845793140239362 -1.0239145802885978 0.005913794381273686 -0.9379895981900039
Ni 8.48534717619913 3.1024326864061322 8.852976206332679 -1.0964145472305376 -0.7035996064770657 0.07000136888980202
Ni 9.19302013279435 1.2725219650730164 2.3024731254902293 0.9696828155282268 0.5315868914497683 0.43244541066090036
Ni 5.337561786688432 8.839038203038408 9.198437495819855 1.3836394233563203 1.1793362237264333 -0.25645545615341
Ni 1.2545892078553822 8.57502973021741 4.75176589141775 -0.4728554390468308 1.0258814742069815 0.25818735124285214
Ni 3.9780223136723882 5.093222104620003 12.799948856435362 -0.8217762495205138 0.06536875521379709 -1.0787613529251485
Ni 8.28446463629442 0.14954662068189917 0.29806663558692276 0.8719875802675822 0.6089814674798479 -0.0058639149799447395
Ni 2.554305903654042 4.394173011909141 3.6549933926460993 1.8335745061615518 -1.5055475084177425 1.6117983465578822
Ni 6.2297422641696425 2.298301953023856 10.33744346771222 1.0439599289752473 -0.7514097839818091 0.2469359466987489
Ni 9.168621823654712 3.827831952987805 4.3933406542088775 -0.3384805889769655 -1.4216277296746354 -0.8690974032039807
Ni 7.0514303961674045 3.094409396285213 12.624176868617866 1.7037425382673625 -1.362050384331635 2.2336574413313466
Ni 2.0616571222994686 3.1596936411638534 8.446823184464147 1.2543882676662654 -0.35963254046423226 0.16518180814839295
Ni 2.573965310441558 5.0817173634641595 10.862178840774936 0.5236275273933757 0.3267481310313856 -2.001810013534604
Ni 8.489063226360399 3.5792976385403703 1.7030357602209731 -2.4761584921871935 -0.2264761361825003 -0.3992509261868027
Ni 8.963722946707016 6.87177438521418 6.008091132808068 -0.3047597996857526 -0.41571138573567123 -1.3842451752611193
Ni 7.572578279390086 9.30695085251141 7.142757020863094 1.5797392612398085 -0.4274158186567929 -0.7637109699466654
Ni 4.86881396432565 2.4454519090310387 12.634422281663504 -1.736566526775919 0.08084885312726722 1.1883155444069085
Ni 0.7498182204444296 4.279632334463591 6.9841661346624315 -1.5704334104578501 0.7931665562036211 -1.9434523995313175
Ni 8.515450936091423 4.326505239906858 11.347867535249174 1.2047109550457964 -0.6456019469163591 -0.9786968461013791
Ni 4.103485926440453 3.1430558711236305 10.518339100449039 -1.1429947089829218 0.3935708450828899 -1.1528037246535436
Ni 8.445465324720875 5.521872244308295 3.0130072530303242 1.4936543565245826 0.10716049443860254 1.1571082655661684
P 8.124646327464735 4.881097574580953 13.51785878050767 0.7759075120128572 -0.29294892309375353 1.2551647408209738
P 3.992689451051333 0.7641907013206876 10.404768724990044 0.05818097921610625 0.7430858374971461 1.2743392568668959
P 3.7885506752729863 8.269347068592898 4.011372925473264 0.40928491338403705 -0.7898544611112526 -0.33485816173302974
P 6.707470541088821 2.552156975656743 3.946053021527419 0.6399156951648592 -0.5633790962597007 0.9830785201088424
P 5.646406844536043 4.290883708562986 11.792092241737103 -0.4451320049896334 0.9040718623966365 -1.9166501917368086
P 1.2140504788233668 3.556963801712547 10.46047569513487 -0.6827073364090888 -2.4149125008925187 1.1914108955027805
P 6.886253843292051 1.2937578779895558 8.55950020645003 0.056946078367740634 0.5654151528531229 0.07655176841381009
P 7.23764579869317 8.237863865837712 11.288356305671574 -0.2985693546043245 0.48878882244763566 -0.31292639465694494
