# total energy = -340876.96487814584 ev
CRYSTAL
PRIMVEC
9.14547889703835 0.00000000000000 0.00000000000000
0.00000000000000 9.14547889703835 0.00000000000000
0.00000000000000 0.00000000000000 13.38533280498920
PRIMCOORD
 96 1
Ni 9.038897236386545 2.09864956647021 5.552744121008145 0.6781479991731805 -0.7165489675488821 0.6354301485896798
Ni 1.8927756967036529 6.009594617572388 9.049876383499278 -1.6196605229147785 -1.108744015330168 2.0876174962187273
Ni 3.5193448010229185 7.161595689549402 5.599111697735809 -0.2873842845217825 -0.7859276152530206 2.0403212822359245
Ni 0.32295245827784075 4.4522019137201925 4.827379627797506 -0.04553809364111512 -1.8146450162469006 0.6685878662885713
Ni 1.363206755793321 1.5036264349011224 10.178032449006464 0.9659847978513492 -1.765378823021921 0.5045345153176666
Ni 3.8031930217125645 6.806723681706495 8.37779893615874 1.4019022262212502 1.11102381250328 -1.9340676158823078
Ni 5.263908870813648 1.3659686903439627 7.324253514529194 -0.0191680882880186 -0.454840490526649 -0.723834959687334
Ni 0.2947596912604108 6.174862562157321 6.225317253291217 -0.41859642059295005 0.7724015557421279 1.9690209920290411
Ni 6.845134692013435 7.280130238260892 5.540844938743773 1.2246696575559102 -0.3085629754819266 -1.5295330726990626
Ni 6.801739395845236 1.1986704494999476 9.116415227925273 0.2906683545896929 1.1232283249892718 0.9608083958567325
Ni 8.53296935777227 5.30844735181241 9.659149999892241 0.3521598862362709 0.31830977045604536 -0.4685537263476834
Ni 4.492881002730972 4.785179645688146 1.4952354582447847 -0.4921212292549782 0.4706463472106539 -0.4395642810938688
Ni 3.0068779051778196 7.825292220260113 2.652637849909247 0.27378829100490265 -0.7024423529441709 -0.09899672768088758
Ni 7.065449272559672 1.1239427434956593 1.7029356800966502 2.5203223311886016 2.2455156262215135 0.5064499871728245
Ni 0.5499313491123327 1.8185235555888788 1.5848364561686392 0.45611935723907254 0.8633831264280227 -0.04568413230067616
Ni 2.7133171861677043 0.9256138936108227 3.0775825151263883 -0.19739953053151807 0.24894912047403578 0.45299315290526504
Ni 0.6835092956461762 4.6385867684952995 2.647819097211455 -1.3469107004767191 -0.7033751491710853 -2.5839301378472337
Ni 7.907473491359676 2.644927296864061 3.5305955688513944 -0.4359940472441072 0.4627373767762224 -0.5398979824186251
Ni 3.2169495496422065 2.878255893521436 11.41372653970298 -1.2270738961220284 1.0158929955357021 -1.2282907992482652
Ni 3.039554700374653 1.7190664753298364 0.35064862580487377 -0.7089942951300758 -1.52890829463087 0.33899223850606136
Ni 2.1825410420762967 5.872485601733898 3.897072274546321 0.3813480777644529 -0.08412623832695833 0.3063464274465821
Ni 6.567825488554612 4.0531846804602365 8.891983352893277 -1.6853295829778134 -1.8511672795426508 2.149120854939847
Ni 6.518165539514926 3.5888230022852587 0.03794550544393503 -0.42100580136539106 0.32975066530313535 0.2826542260359648
Ni 4.832717843682306 8.557845059685336 4.440409733555962 0.746270920093347 1.7126807212972568 -1.6432650497075956
P 1.6746926129466755 2.576811771919753 4.182340788069459 -0.9096899799143624 -0.46925692306229505 -0.8389877283027939
P 8.979387606846721 8.965266987819598 1.798761090785958 -1.2536107660702926 -0.587137375021563 0.32827150965444757
P 7.56852376183686 1.9812124751960611 7.101855593947736 -1.7264906305971555 -1.4672519552716536 0.5140357699398824
P 8.1039915364729 6.806549917612249 12.34054032011196 -0.4069758056348862 -0.9854431636862772 -0.07597506997473367
P 5.582903165934145 7.179100135674994 1.9905865908066835 0.6821512067953026 -2.286995490632855 -0.2945867158074926
P 7.374923124411235 5.113602929291131 5.09837936553948 -0.14594609984723253 0.336692129617975 -1.7122400342154123
P 4.2304240565908335 2.7507679212169713 9.318239479748042 0.9945412693328033 -2.081596229725312 0.06434725592781822
P 2.4053249018565523 5.263570488103801 11.368390572966415 -2.171043880265183 -1.3016520857492357 -0.5972312689224553
Ni 6.26794524380114 2.8144753254546253 5.445394492678891 0.9421722688127838 0.464526093245529 0.4767414043647982
Ni 6.894812932010411 8.03767767082156 9.75528361321187 2.1037308568408224 -1.110765673745887 0.3803841711892868
Ni 9.005571112205951 8.767313102559186 12.43639225268934 0.4923341165967327 0.8459227648597302 -1.6387645907340809
Ni -0.06585110443192736 9.194224045684898 8.996924062147569 -0.1926159930999457 0.9156066025091134 -1.409575683606108
Ni 4.902863664885696 2.455478706743043 1.6423532859118248 0.45705421034851607 -0.05346943267304984 1.5845148282515806
Ni 8.030260687640864 1.8717319503426362 12.929802714682873 0.9414148218214691 -0.020195501111268443 -0.8719289591155048
Ni 7.264473178821492 8.579885663218604 7.363258066400163 -1.2746544741144694 1.1116141377891113 1.444964604628363
Ni 6.438234056161911 5.333652290956678 11.27379614370266 1.5067806094938954 0.425144506124113 -0.3170023644985315
Ni 8.863523537899427 6.826496206535924 1.4472354135790757 -0.3141448404450783 -0.01739994064400229 0.02108098904001531
Ni 4.545220577013501 3.801665726778932 7.479924193824579 -0.13543157346915385 0.15826862596832744 -1.0378900686320836
Ni 8.791905294634272 2.8236939679282913 8.8276668597779 0.01979723723158526 -0.6193386423444559 -1.0119545797132443
Ni 2.9491333530163857 0.5474831044791975 5.716808520603461 0.26145830868464004 -1.5035191651338042 -0.1752314790749111
Ni 6.552918358364062 5.929827752834974 0.3236264800539411 0.04666346549480996 1.2266303808267067 0.3383114103889528
Ni 2.8825817049202893 7.315459222264633 11.515133436009032 0.5226031998939192 0.8604322713298149 0.06557675745954514
Ni 6.987868177218297 0.44488363775790135 4.933927197649637 0.4853543428447899 1.2218072484064506 1.099522753842216
Ni 3.1132581127707564 0.9856722518693176 8.360665796466115 0.4531777581122453 0.8119026991605437 0.3435441195428019
Ni 9.248731098406175 0.1520719334487711 3.9872494376247793 1.158506688575592 0.5302764001684609 -0.8697671755774956
Ni 2.564895213245957 5.359405958819618 6.938956328331731 1.27973831639528 -0.49052020331644547 -1.8991412363187679
Ni 8.938287825818295 6.689067098944878 3.989833035341854 1.0923072099303832 0.27834171470353997 0.3436719033699178
Ni 2.353442601506249 2.643134783049737 6.163972126187439 0.021381550999569628 1.8239634654343493 1.5684626598847247
Ni 4.1984240268136945 4.80664408406681 9.84551473461433 -1.1125309931764258 -0.3206728713715832 0.31043602413492344
Ni 5.674641462217221 2.902912103947034 11.124429442836934 -0.5621819906278059 -1.0138011460036798 -0.2565955812757
Ni 4.202731547255259 2.618698064111607 4.507055580082097 -2.4789396544767563 -1.5615546199109815 0.48207155832846016
Ni 7.656594721183488 4.121592860721169 6.959409276772312 1.7536525357239285 0.8624408171194115 -0.7251336238940995
P 6.595133887787118 0.4511062214276257 11.279110581342984 0.0469408875259127 0.48539033828904793 0.7715194102474906
P 8.828962774101825 7.080969149819405 8.313241916955011 -0.5732202507198386 0.5018438558593808 -0.4282951359379527
P 3.612720137983362 4.738299922156388 5.097602914402562 0.5819216351485785 -0.8265728995782088 0.377897143101375
P 1.228192054564425 1.6135550882081284 12.65615261722972 -1.310896230055323 0.013750516816873093 -1.211955038202719
P 7.705486450017037 3.4301763842389494 10.725760652313333 0.8335506164476224 0.3830190377089726 0.5921967918223414
P 5.184535261657948 8.320044323970796 6.613358083082033 -0.42664371637745874 0.08610753042304525 0.20954876429954233
P 1.2548694157704596 1.0618083615848606 7.378811781930881 -1.2768620232887495 0.03039326757987669 -0.8272303306565495
P 4.335670224831851 3.370419826775723 13.125309269858015 1.7118800797728324 -0.5364275073715213 0.4599353885510531
Ni 1.8695827628611763 7.937004241902798 7.403654560120827 0.46234271244096503 0.16995917493237828 0.9881549061904853
Ni 0.8076417918359704 3.58758836266825 10.66270257705944 1.2901507699778556 1.8689266604086008 1.493351480572183
Ni 2.658517478129802 3.1818857845191566 2.3667547602211974 0.3088933622381519 0.9011081517826224 0.5863128222377386
Ni 8.80400476288096 4.5515126663209236 12.508994549456643 -1.2775623917898837 0.06521217503127479 0.6976192205239146
Ni 5.483866777692749 3.991123462378594 3.39172239018238 1.9044557065531462 0.4369646386874926 0.3523614607241157
Ni 2.2554579433089725 3.5590087419041567 8.594200166392993 1.1873135855049552 -1.693700323540012 1.3948365776237204
Ni 7.3497456217029 8.086578545133754 3.139315410524693 -1.1921781126861082 0.7894091460437179 -0.9196895143292355
Ni 1.0750144327475326 6.4942501128595325 13.000142420033526 1.4093126597527084 -0.856363757687396 -0.950242447415428
Ni 3.5066417311856948 0.5947963236987037 11.391760929094596 -0.09559695797071924 -0.2792742538201384 -0.3117424016511728
Ni 6.592381098715121 6.110871648081687 8.066215222383889 1.0483511160644072 1.5430064245951491 -0.795645870982049
Ni 1.5901883902714062 8.638919727868915 0.5731782412788118 1.3118611650717535 0.34677676754748665 0.810391661832656
Ni 9.174103992666977 8.541849617536089 6.224099075535769 0.3178896521994912 0.9504568774190794 -1.2930358048351345
Ni 4.761776365836845 8.777757239171216 9.562749338596195 -0.15580293803665424 0.212481364565305 -0.06718343982503268
Ni 2.285381949433808 3.991416117695218 0.18366590397409416 -1.3470590531291253 1.4837000735253478 -0.7313425809182889
Ni 3.815338217352474 6.8066322269200485 0.5672848948402898 0.27326944238695516 0.5644571598152279 0.029613194880742547
Ni 4.711055541274394 6.201421032140978 3.750743701686302 0.12542946795111945 0.2775832392709607 -0.5222630429456812
Ni 5.532337814508651 7.673724202684654 11.928981891986789 -0.848111544980933 0.14675265490892792 -0.5475051053419215
Ni 7.056861668112477 8.657174103243356 13.574333065798285 -0.02886526097112448 -2.0477404575181315 0.14323512867397267
Ni 5.456869324734157 5.5906859682606225 6.050773049717157 -1.1860668575820474 -1.5357970513309034 -0.0019231851646418492
Ni 5.422418306680289 1.1913997939775625 13.097815217409025 -0.07891949731503826 -0.0022900815857573465 -1.858256068068632
Ni 4.346608217290684 5.315288169838503 12.25170205510706 0.07942111954180514 -0.2679449448502482 0.10796216440429149
Ni 0.5601340450881476 7.429430177132512 10.37043319963393 -0.030150812551767426 -0.21139815880345528 1.6565499397419599
Ni 7.059431547611585 5.753292578560004 2.820249780670769 0.12402127474968318 -1.3026887545438663 0.18784351141196684
Ni 5.151831030025182 -0.00325670494530989 1.7829668491668897 -2.6766194352528547 0.010355889313027325 0.2816864628060568
P 1.8313455166484816 7.915741004054313 4.613964396340687 -1.366436943435105 1.2787175884402495 -0.5498154986426531
P 3.7197862564746367 8.75464661463654 -0.0806539761659307 0.6601312508807856 1.066783354627666 -0.4477177634389386
P 5.8040682759943225 1.4694863631211676 3.4026183134394485 -0.05054865948182908 0.22293521290877732 1.5287272889683157
P 5.337539119380595 6.517927757070169 9.716452825435146 1.412736854942909 1.365549398623829 1.677345793441389
P 8.119904669314346 3.496664013984535 1.5029716186301754 0.20885225245314998 0.0566894822722443 -0.29980039879794823
P 2.2119986287902624 5.798645007158127 1.5779700308023414 -0.8367598674135396 -0.25108185054632237 0.45654101815752346
P 0.7802501687477995 4.57851926475816 7.6813871992408895 -2.996664700342768 0.07300904536787427 -0.29006954466342943
P 2.5118331461505115 8.495884441868784 9.701488078729133 -0.4605277707194133 -0.3529109054696825 -0.051106845978144244
