# total energy = -381165.2025238597 ev
CRYSTAL
PRIMVEC
9.24363839778992 0.00000000000000 0.00000000000000
0.00000000000000 9.24363839778992 0.00000000000000
0.00000000000000 0.00000000000000 13.52899915645303
PRIMCOORD
 96 1
Ni 4.666086969544234 4.715244638400005 3.6560087225824076 -0.3516412947286396 0.5149392555907584 0.25302483320530617
Ni 3.675372296241503 6.714338577932013 5.500809699157144 -0.19375396335913084 1.0816769839100466 2.578777904222333
Ni 4.411692797942185 8.312877935943305 10.376607092419109 -1.7260257751455954 -0.8248726290576504 0.6982432272611587
Ni 3.504623808256581 5.821551009529254 0.15728790178940263 1.62373083632941 1.129520585755887 -0.5619289940767355
Ni 2.8524481466450484 4.699428773147612 6.28526182585444 -2.332724360128537 -0.21274078887427877 -0.25635544024043594
Ni 9.066456310482222 6.041494140923432 3.4300609237025754 1.5160872316068017 -0.9709004899854117 0.5214726858339019
Ni 5.197744074077625 7.718835516045566 8.231814000523137 -1.4602498129222077 1.7064576232056803 -0.17130180500320177
Ni 3.9077481212443708 5.67528891958851 8.034818201384404 -0.2968891386884242 1.0683039050372505 0.9752243141717463
Ni 1.716192387194494 0.932803278909836 3.514712315174443 0.8519617719649585 1.4636963767099114 -1.591707489345278
Ni 6.325772995378191 2.2604393271888785 8.017001088424738 0.05741736157720434 0.9892057160525028 0.126954132125762
Ni 0.08157048680288811 3.908275008631505 7.474541868091261 0.8903928222476472 0.6195733840630814 1.430858247133968
Ni 5.411577160508721 3.9549923569573924 1.6491307151783716 1.338244797271605 1.7066481419499315 -1.5214065869371862
Ni 7.852960708805486 7.674429077312372 8.347825359531688 -1.9817219845354774 0.9368467428348123 1.1789636708783633
Ni 7.802573636046401 3.0726131253601245 6.0560399302636805 0.012769383850526395 -1.0141343609733824 0.053963341590332864
Ni 6.095800516351725 0.3899974221374551 7.084623016879957 0.6376952904747727 -0.9814052461714775 -0.9092030129756147
Ni 3.1986871090991005 8.383443871265788 12.409230481413424 -1.8383359321059372 -0.7920967201782101 -0.0630323937711366
Ni 4.015307097326688 8.770502740765174 6.522601484662413 -0.6588845229578782 -0.7786295389297107 0.15802771360211496
Ni 0.34917474200060933 9.162497713154554 11.656883359505494 1.2623879980422905 1.5617623650464134 0.4507971736952107
Ni 8.931480702992191 1.257402883937908 7.629976420387323 -0.5386096026245047 0.4858899036332857 -0.17869861168790516
Ni 1.503200471855138 3.605314761029413 0.3278810966496962 -0.6012097939542291 1.074475066844969 -0.36332361616257425
Ni 8.662583262786397 4.41954064691897 1.6378479301830058 -1.7805642725131077 1.4240995882538958 -2.102750495205424
Ni 7.326646427250401 5.188657577559154 11.040407553645727 0.30070234178692723 -0.6280102019765249 0.48114956073482296
Ni 5.821190507632794 0.3501980127682539 4.468898902727388 1.1386415742205485 -0.5808494851303223 -0.6045450289750491
Ni 2.7774452649045944 8.524187509099182 1.3933518465483805 1.7221984309797052 0.33055233526882427 0.1907239182835554
P 1.2645389727601448 7.17958938440977 12.593360984667713 0.5547543307051671 -1.1936025038374605 -0.9900289832847465
Ni 2.824883617023403 3.297852861540755 4.309649500875707 0.2983631521307894 -0.06718215427345203 0.15740293553392246
P 7.106157921192347 5.900768990366781 4.856071468978735 -0.11388341498473291 0.22036976617444629 0.789959105009917
Ni 8.126027029916497 8.817820925585163 6.067269102156495 0.7240727867297531 -0.7239735421477274 0.6143995531716256
P 2.1534904312390326 2.023007231997198 1.526368727067644 0.5563612701809708 -0.7557220382039178 2.1181560311272167
P 4.114491337045084 3.0680744989200748 6.4184007224001975 1.0270438699461988 -0.796981301964021 0.017503556101402112
P 1.0521756248300012 2.3026457799898292 12.10936038211868 -2.1079672635196727 0.6971487086453994 -1.6925173589755045
Ni 3.8784088130555365 1.276509484450296 5.132942471643156 -1.7377878007775296 0.9643639744184747 -0.22581150601530786
Ni 5.367059798115077 7.298102071961453 4.0586588369217775 1.3154134011993863 -0.6524534226205537 -0.4106496549420476
Ni 8.977172007458922 5.71438026625851 9.3981762901473 -0.983199876178055 -0.11581354212791023 -3.242625170502125
Ni 8.482868445581826 1.106463512981552 4.399305398161511 -0.7208758770590101 0.260450436245416 -0.5520109636320751
Ni 5.742379246883583 3.526947194921998 9.867348248021939 1.8793493984038214 -0.34772421906242046 0.9227465559880044
Ni 6.473745158417529 7.600313584855512 11.2011451812751 -0.11818409924261583 -0.9460466641665256 0.8272514137024721
Ni 6.394795243092754 8.13252530769115 1.6416359731873489 1.8736608326594761 1.5229222522507644 0.9948402886304609
Ni 3.9762712124869126 3.14799499627378 0.10394933529853004 -1.7103937250352932 -0.14051695841186124 -0.42974755211376314
Ni 8.693346091284331 7.129655249930853 10.997859086225056 0.09332153167298121 1.4140638012844486 0.7598250046286978
Ni 2.555080300257275 0.6413670752645872 10.449825951954002 -0.8283503031936057 -0.4296760754458794 -0.012479620524249476
Ni 2.4641598732423495 6.055257918457514 3.9087445854607403 -0.36547614372920284 -2.9458802707010494 -2.787908350037534
Ni 1.1115937322773313 7.143511463848642 5.168497202272499 -1.0709940502749038 2.4160761821833168 0.8320426644435283
Ni 6.459814995392773 6.239418925718428 0.1532669190981163 0.585653848497501 -2.018146031690466 -0.3843817223844541
Ni 2.0358004275023482 0.7882605057060555 7.2651669884463885 0.7139364696266995 0.2894645640895789 -0.8266042670367764
Ni 5.7997637538893425 2.669997212482727 5.017878585567609 -0.2551606486013863 0.7246320016673327 -0.24384548069888326
Ni 5.677867894693955 1.4413143129628114 0.5674253632090984 -0.5313866025135041 -0.8912073477291426 -0.8544094621745028
Ni 6.911782693531729 5.6254472214933005 2.7378233333921127 -2.4459241187826843 2.2245979022322397 -2.215368927434804
Ni 8.355444890640717 6.238115572708149 6.696733144291039 -0.1755405256748977 -0.6960788726199882 -1.1529294515981305
Ni 3.904762426050611 4.843241298920102 10.352024560535874 0.3172535612773891 1.1587627704504562 -0.9206091979300274
Ni 6.017432950244309 6.178494105216662 9.376624747285842 0.7148399552775754 -2.37545403778658 0.6857363530433996
Ni 0.4723406771081398 4.170951480213767 10.828110759911851 0.45950112922711184 -1.5900707250728034 0.8362955261826114
Ni 8.466950900307355 7.087642913535689 1.411791980734236 -0.6459883837215004 -1.1898494645529314 -0.9972203588268632
Ni 8.999707997806867 5.6546016569147195 12.868026455216869 -0.20266720668836066 -0.7479997298589957 0.7294327654900857
Ni 5.246910986571768 8.08399620624459 13.21983470978931 -0.8413382308128413 0.8587260872719856 -0.778444419502098
Ni 4.270819749171601 2.1792616950167485 2.5764765499941036 -1.5225029053251586 -1.3385579576366495 0.6797150865499841
P 2.996944701656975 8.579473710194776 8.61900043223204 0.10096747825401321 -0.9247597297632912 0.39279591459007834
Ni 1.8500310271649194 7.270500567786325 10.479387107463735 0.6105341566789485 -0.25069387107928437 -1.1536393331809616
P 5.500759783509941 1.2720725380323248 11.788330670229401 0.568334383382447 -0.2321852707521356 0.22823168542102631
Ni 9.11091821104564 2.3167885466971123 2.4358965245598734 0.3105206134289297 -2.9355084405484217 1.6072336100053353
P 8.507530472755048 0.10585999534976885 1.6605900536666192 -2.03062205267029 0.024815002161150814 1.7975497513275107
P 3.0913407366993106 4.70369933407491 1.853661928316959 1.4275019290672255 -1.2981523001260935 1.9596038124801993
P 7.529553533127244 3.843957772847665 13.448771901318251 -0.9251469378993809 1.7601959932694007 -1.2126399800848857
Ni 1.0969055909061727 3.934665596180062 2.8820287137953593 3.3119603665628383 1.886390878631635 1.62110753977395
Ni 0.5907304242694917 4.7069993129732755 5.319291448106433 -0.12830833216081128 1.2671710212532306 -0.5511167339525799
Ni 7.548678620916373 8.90552456644706 12.941854470520397 0.03662587875314983 -0.21431636089151476 0.9546835139059172
Ni 1.6724237595088831 6.219018215834131 1.6522023762089795 -1.2791032539144422 0.17140953422565963 -1.0112033033695165
Ni 4.627855281242716 6.7947397444809985 1.9386377714956398 -1.0711773699303035 -0.8220819536863906 0.16791257681599467
Ni 0.7431293657245924 8.40604456708233 8.328492289879216 0.4005441910769295 1.1009713133632846 1.2671710212532306
Ni 3.272710165172252 8.24144309861397 3.870105252707071 -0.9103759502377935 1.826534568595635 -0.511723319756622
Ni 3.9206892149634536 3.3581306273565668 8.642067931786304 0.3391457333647901 1.3888711040689048 -1.9064999906766844
Ni 0.8494247364416248 2.495107574507698 5.506573107681321 0.5153683727083769 -0.9326949254499679 0.6039025102950438
Ni 1.92882380063739 2.5586668319451347 8.598341824837197 -2.320450942077823 0.7980475384450062 1.2879429636932593
Ni 2.7870956233636814 2.9065511620291837 11.013971672269152 0.36921838438045446 -0.15695659202512324 0.13811246273542666
Ni 5.742915377909087 3.978840943953988 12.242296842984118 -0.6475744972616977 -0.35905609913547193 0.530780336388073
Ni 6.1947259341957395 0.19897763520542686 9.72548335685417 2.1523643015778093 1.8795630570765243 -0.06204329038498992
Ni 7.724686739134265 1.78691546436928 11.803267465472734 -0.2636602014319653 0.4252499213537257 -0.8485558316072033
Ni 8.274110116616283 2.5995052262672105 9.557615186585581 -0.29038938989669344 0.45808625115745627 -0.5171529754126255
Ni 1.2934992917757773 6.536860721213167 7.414162422253371 1.4231475087532717 -2.4956713654091405 0.27981752791811804
Ni 4.106504833492736 1.1966074743733326 8.589791459344234 1.1213221091054946 -1.3557046446192653 -0.2411270533264557
Ni 0.8133893366170025 8.076813899230501 2.725958199179388 0.48254361286887215 1.0418822205106122 1.9577726728087317
Ni 2.378794872888259 5.1925583929516215 11.95093643717351 -2.132926247457856 0.14522799073428538 -0.35320735366417877
Ni 7.7915090009165855 4.045848078503723 3.8784661236134355 0.7055942683095912 -2.365348059700829 1.5390957766868332
Ni 0.7370433542212754 8.6327263108488 0.4299012846202459 0.7387784683710438 0.916905266715879 -1.0625459195075508
Ni 5.1306075285907 5.188407999323144 6.060072005321012 2.2426002523469317 -1.875790991628602 -0.22114546799820622
Ni 6.867311549329939 4.45301186145954 7.714654618410465 0.18223670674815068 1.1468685901160314 0.8525271575501253
Ni 7.8259785284011985 7.917961973828763 3.8594991020404463 -0.6034397117260123 0.6759731030090488 -0.044901488498380736
Ni 6.5821453055915855 2.276800567105147 2.618442668197414 1.4540673382605798 -0.7903735668395162 0.9806835375141045
P 4.695786779629527 9.139240719013689 2.3907228638419045 -0.16670287277860968 0.7476181781498609 0.5805476376191873
Ni 6.1235591623791565 7.3682243126421385 6.2594351002465 1.0437976923657701 -0.052310636478258295 -0.46532390655647604
P 4.6983842420117155 6.082702280780339 11.815294363356946 1.469563891234282 1.4692707854738956 0.7010567854505539
Ni 2.3904141263203207 1.2118872086002206 13.167138576165206 0.976345572260383 -1.0909643227492436 -0.1477222179110488
P 8.858557639885161 0.48012382061633085 9.779734270452238 -1.256592731516752 0.1449171443620859 -1.174302517957268
P 1.7766920003312046 5.203881849955819 9.256852151824221 1.2787602687527269 -0.638859743096519 -0.2369706079559209
P 1.2917152695702179 0.3109698602503666 5.386679420557043 -1.234666877977938 -1.7020101289572884 0.5810752279878831
Ni 8.060813161210692 1.9615924986617812 0.5956517373380914 -0.32823217177607983 -0.8811821022826567 -1.3294243707664977
