# total energy = -340861.25811254216 ev
CRYSTAL
PRIMVEC
9.35513600386309 0.00000000000000 0.00000000000000

0.00000000000000 9.35513600386309 0.00000000000000

0.00000000000000 0.00000000000000 13.69218717329573

PRIMCOORD
 96 1
Ni 0.42778791734563604 0.7061817967431634 2.514748497382981 1.968045001269017 -0.8930084054936234 1.464209311790588
Ni 0.6175624643611504 7.341480403271924 3.188896437405588 -2.2804923994070143 0.9630424273935736 -3.7935171900384086
Ni 1.8772577222963682 7.0821934536583075 7.950874898383989 0.8377499992409507 -0.044168981207730384 0.7444089271839437
Ni 1.281784605078661 1.3239107825252665 9.251249094225287 -1.4015605266111153 2.69783257899536 1.612201752643888
Ni 8.058476737241 4.328976926335187 12.315000006216987 -1.2422261783824349 0.739962718487132 1.0107027095840142
Ni 0.058386339343106775 3.497810512517485 10.809694071999086 0.35327728767016575 -0.1431004028683213 -2.552181127570411
Ni 5.856474178679027 4.054684338563819 4.030130848595717 2.1604823026992532 0.9459469053638677 -2.0177372262878217
Ni 0.7368629007968804 4.770894841108173 3.0650512758968933 -0.3331530061164649 0.27156017300533236 0.8224179968695708
Ni 4.223413571614447 5.482895532448669 9.651540395814525 -0.7889980266482284 -1.4029306674857644 0.3033654904413872
Ni 2.1113325803668803 7.163910566693195 13.000704345750984 0.943404084337356 1.146094173843852 1.4553102095287453
Ni 5.792803123004676 6.039170629790453 11.870756404632273 -0.3116997213386955 1.2247398486722132 0.5211806085147799
Ni 3.17903425302535 8.889119263442222 7.063306369570599 1.5050908804962984 0.4224499900110854 -1.0817260919804275
Ni 5.1009066189466035 1.667337825399992 0.08861091275960536 -0.20831052101706704 0.053102536251934354 1.4387813586357865
Ni 7.7588130206143795 0.5926618988471309 3.529791044962793 -0.36360078108336086 -0.4175492102753583 1.6033149916772194
Ni 2.401566319896858 1.8216507938614084 5.683339612081961 1.0229082505112705 -1.5044439909409189 0.08319832719605026
Ni 4.752427802627249 6.688594816369603 0.42186424522500743 -0.7851262023976479 1.7911060525846962 -0.6741550759637035
Ni 6.639068726340216 1.6178398007786308 9.956684351114966 -0.8095786790130572 -0.9938972079909013 -0.09119214403480425
Ni 5.802597950405652 0.9331720103143832 5.145496939217868 -0.10764951825987913 0.5459480452674468 -0.4703388432725642
Ni 9.103660597526833 1.7688784716370465 12.20108064401339 -0.12725058032025824 0.34563468352324345 -0.08175619543288501
Ni 2.7000512893863977 7.448269280809789 1.7417831912154158 0.19684648624152548 0.9141004502772321 0.9405897548170122
Ni 3.573559048778903 9.048577556708352 13.709165053625837 0.5792451167576799 0.07622883785675258 -0.25676681674624163
Ni 6.754483039277985 5.56734434519806 8.7510599082821 -3.372360979138082 0.8069335280807264 -0.5245011882475806
Ni 1.2089361609799008 4.0724497418441 5.364667194599521 0.168337065947923 0.14092782069703472 0.6306936623459589
Ni 7.106919078128967 5.764887397155094 0.42593092284793427 0.5341145429676286 1.2487652650525332 -1.2309264370988995
P 4.218923106330331 3.203357606647641 9.719344550577462 -0.362019295528854 2.008232115010864 0.9673066019865664
P 1.6820160337974437 5.564247795179222 9.858073733475797 0.7252051005619833 -1.0086710238659662 -1.9534655607929452
P 0.19069228585795542 -0.15118180443934695 0.6779985140037355 -0.19371179726728574 -0.23219709782667755 -1.9003457981498306
P 9.144243177532024 4.53557574994852 1.1840253048162717 -0.3222934376941417 -0.1579940321507021 -1.1922146223509982
P 0.6974169698167311 2.2683678934067917 6.7307640274418485 -0.5016499946810199 0.1834636371767163 0.7980526806513288
P 7.76339703725858 9.153878967620853 5.69875687622409 0.23247580540936094 1.3331699538518587 -0.5323692781417477
P 2.2514912280473256 8.67025585652165 3.6424643030500494 1.0660611317496609 0.3181043393134586 -0.43456451388643225
P 5.453801059462005 5.564229084907205 2.103270324154692 0.8123215318655171 -0.7767230659356171 0.7561534693143817
Ni 1.464892682174466 2.3861022800746867 3.7267119803752564 -0.4336255470119306 0.5342883495413314 -0.8610832746502526
Ni 6.086049216329415 3.25031103427467 6.3740003026733 -0.10468195099112293 -0.4063533415595389 0.4703982357555898
Ni 5.575651705973672 0.5620967984799202 2.3016703065701107 0.17549090338388487 -0.24047425023380525 0.8758442350095109
Ni 8.45143922528112 3.6308592568314144 7.144117905439856 -0.19478908949186452 0.5669724700379138 0.2744935446020434
Ni 9.716337809864307 6.953111287012013 0.7126153237762592 -1.5039917338948485 -0.4043059721122069 0.06758478902850941
Ni 2.2711837893453724 2.9548103531718652 10.975054520573027 0.9077279710919851 -0.251228917647148 0.027195072357553165
Ni 3.564419080898527 1.107638748279069 3.5910774764685574 0.5396395865509157 -0.3026658932712013 2.6691889471167385
Ni 2.7389218795020196 1.684111584263364 1.7517099260341127 -0.9747851697517986 0.2644217621883381 -2.2742276494442253
Ni 4.884952659324698 4.264248740291869 0.4058950280583728 -0.23133346427480161 -0.06284573168162724 -1.1916384381325542
Ni 4.3210063504558835 1.7928369749550028 11.701302148540979 -0.2218322096525857 0.6642033640676303 -0.595157160002246
Ni 4.595804115571715 2.7856694941368603 2.3432127235297817 0.830086312048106 1.229637800194463 0.5266305758857576
Ni 6.153078765830843 7.454845941423816 2.9326611331579677 -0.6669518733470449 0.46030177075153633 -0.3800404146966229
Ni 6.1549965687126 9.021952839627954 7.1750759215194275 0.26996866014849635 -0.705651861020404 1.2773639026258323
Ni 4.270161186249287 7.7068358849507455 9.92279630643751 -1.3918096178719386 1.6944145759982172 0.29276688898993447
Ni 0.4752998465923772 5.5257888310479775 7.095085766591723 -0.5210312274211092 -0.278573628208688 -0.14523287583029182
Ni 3.006076498498847 4.9329445070486795 12.380050944452602 1.1349137317470002 1.7662668820538292 -0.8097290885479925
Ni 0.7384167888879044 7.575536551070419 10.2661831222274 0.17469026185946043 0.3585287658770922 -2.546122580081157
Ni 6.260326045033126 8.509169769590025 11.642699705556074 -0.8692886932791802 -0.3828429171424245 0.1976540697444854
Ni 1.1791961836086462 3.6742016019591346 8.434181805886105 0.25851285290307097 0.60655794564002 1.001742929287565
Ni 7.691371845128574 5.578523732728305 2.6499451809244787 1.1680061434255948 1.0396651582546352 2.181180197368237
Ni 0.9752729288937656 3.6037200072705433 13.094838530810051 -0.46967961242201045 2.0785589855608846 0.5557817435284169
Ni 7.47200326086354 0.3618632094068209 13.157343001024133 0.6184223011777736 0.8495405641179756 2.3513237203972794
Ni 2.078196688624514 5.383225913413329 1.007203879118228 0.32238805429047707 -1.8083622685619825 0.11509311902211793
Ni 8.370348906358807 9.152606669123688 8.833241036063013 -0.6090393173009769 -0.6892261113642131 1.862882768207366
P 3.1909807617082984 3.123745399214682 13.270823607348929 0.121035709758798 -2.71913776823104 0.6233071400739006
P 3.392780400549233 6.483605076149746 6.208503269113635 -0.9769639225706723 0.7244589664245781 -0.03852798087186913
P 7.998154820257719 0.42989282294756503 11.11496151509484 0.7952283238286562 -1.255088893277716 -2.266765279628909
P 4.727842505196718 1.2066441526578005 7.155674304951248 0.1285955243839269 0.4339255947508527 -1.0303531368250902
P 2.3508053519143393 9.032496077909617 9.05156278060869 0.5486592735510228 -2.8406709864515465 0.8647985187183106
P 8.909897020517263 6.138896379641845 4.709496147970306 -0.5166968617118134 -0.6533975317013779 0.21452847690232085
P 6.238556643541176 8.149277687340211 9.555982359054953 1.4274145115597416 0.004534140424927675 -2.638935033328204
P 6.967452710513156 2.473647642842915 3.1250092780894403 -0.8184183887918743 -0.811433729943925 -0.15343340936321317
Ni 5.9382941982100075 4.1124429482807505 10.824126240319512 0.5512725428041538 -2.077035349827507 -1.009926236429306
Ni 4.903279370765493 7.055821325250139 7.704607491553504 0.319878657605062 -0.12072332072470177 0.04834213874881352
Ni 8.73680829408664 2.0134217269011523 0.974148441545535 -0.47167581691643284 1.0405994971434467 -0.5765575426231877
Ni 0.6932118361808774 9.216099977213874 4.993678050016337 -0.4615518411085535 0.7055163638838043 -0.624575465263363
Ni 6.975516837752546 3.697926226876876 1.4059412926164412 -0.18411181228367646 -0.5858394821457459 1.1545016811812567
Ni 1.6717815150040642 6.627365451193492 4.755748875910292 3.364345307922457 -1.2824189485512365 4.511563568068423
Ni 4.01893836387506 5.986417017838109 3.681815747156512 -0.9653358514134406 -0.2440550256065281 -0.6551600229184394
Ni 1.603367405373368 1.5042590944985423 13.494184028148823 1.0968480352235304 -2.110430123237869 -0.3689103662217324
Ni 8.29215867959915 2.9972171846987283 4.695119174952331 0.45161941248619 -0.1355452162288827 0.31438318170812957
Ni 7.877988098227595 1.455069789365464 7.378760620266089 -0.28490008464734806 -0.1661400582966042 -1.2507074763805686
Ni 5.232692419899377 5.59127478310799 5.580031780652887 1.3268290992354954 0.5148924615132229 -0.06735287552336143
Ni 4.050278069503781 3.443513303123726 5.035945490016672 -2.1128292195976646 -0.48246468000182074 0.07993739705659136
Ni 0.9034011609943005 0.17963545060942263 7.3224174426272555 -0.25765359022656914 0.26276468620088944 -0.5601371922836352
Ni 3.2344353684681213 2.5606971834026897 7.769152316931055 -0.6334892228132251 1.2055879583341107 -0.5205558304465874
Ni 4.164176850408161 4.704473375447303 7.251272568795656 -1.0948970821447466 -0.7558575353405176 1.8894592331443134
Ni 3.9433488649257877 1.2227911174085977 9.45526309375945 0.6495254503404814 -3.2422508178818426 -0.033859628861922335
Ni 8.211311594213061 8.215034938344473 2.1094044868355137 -1.3897334520692002 0.17176100402780742 -1.2354934876442916
Ni 8.410856645275928 5.488761202726044 10.019367504426809 2.169287302585393 -0.157192105074697 2.5460976403804922
Ni 2.6307577969708955 -0.071754828699358 11.342512101312973 -0.0633129011260329 -0.30915304365744173 -0.21588627648179595
Ni 6.848642483204275 7.231884984931489 5.298766810014329 0.7322249835232422 -0.37283412675617084 0.02738122022643026
Ni 4.3564903813364015 8.419491435811842 4.253245229318585 0.0701540924175824 -0.9465747687558538 0.7746672118478529
Ni 9.081292467330334 7.654203889766512 6.575796199459831 -0.22831267517060677 0.1609528576687099 -1.3011574055010044
Ni 0.9489943518456833 5.76267958505707 11.759658551448858 -2.665949100023202 -1.273695966855942 0.8611118138953427
Ni 0.41202451317119004 8.4295949827011 12.241321761554268 -2.1631531646631967 1.5979575840200482 1.5767377554093231
P 8.637550301035677 7.006585244437018 8.523742264950581 0.32006943345962946 -0.2598287435010171 0.8288020460190436
P 2.786464680697589 4.160490926820783 3.0364208176562553 0.5411909901984356 -0.6929506114036518 0.26080550559198956
P 7.181460801845279 3.3827049190679994 9.009130690214603 1.2295436978187597 0.6353170200505832 0.07122984198026441
P 3.7688849335019046 7.150214647576644 11.925607438077739 2.270863618067999 0.002371842666286238 -0.40856320472666413
P 7.880495274677892 6.794204946770387 12.318710253157986 0.7349786350089793 -0.5954201838556455 -0.5849383104877152
P 6.883948766500631 2.694344656421168 13.277710858478441 0.8892918758739845 -0.2960177918270644 -1.6350501179969712
P 7.097676203752496 5.202391134367607 6.744976350066072 -0.9329754328048642 0.9805508685909824 -2.293791687619082
P 5.812289871310535 8.862260667961607 0.447721841152704 -1.3177855009759885 -1.2385243040508154 0.5149636810707905
