# total energy = -381165.6312318654 ev
CRYSTAL
PRIMVEC
9.31990958086049 0.00000000000000 0.00000000000000
0.00000000000000 9.31990958086049 0.00000000000000
0.00000000000000 0.00000000000000 13.64062974249213
PRIMCOORD
 96 1
Ni 0.8060566256437205 0.1863227035344569 8.701044433646134 -0.5334864224653264 0.049209886065747506 -2.1089707650835225
Ni 4.684699230443951 3.782774285248971 1.153330442426976 -0.9642917264196424 -0.8472648807099215 -1.7043729727625099
Ni 4.258192201004661 2.0969517318084927 2.6060695091936545 -1.0525906080670515 -1.011328516093471 0.8709719945188743
Ni 4.484619408142033 4.930148373361006 12.4272822824293 0.6599052509129087 0.374470119697697 -0.41229079008989644
Ni 7.969268420622522 6.00069844548484 7.525399331328273 -1.443320898377353 1.6072572641544192 1.6864888933932374
Ni 3.0776485541273697 4.577016993306056 2.4982950049493304 -0.7129183127748303 1.305533937302145 -1.584221722491194
Ni 3.0479926013341565 3.2040917695722237 9.135334519709437 0.31087593988581946 -0.31675168194030606 -0.6786457647452054
Ni 3.0112814768676364 5.195849680143445 7.147458351544997 1.4195556776369551 0.5857134980908428 -0.47404817380335124
Ni 2.0314514061545945 2.43432314449282 1.7890097981106925 -0.22322780444853166 0.17775604526897773 -1.676494501184687
Ni 2.125265617599122 7.463346440287264 7.857316732832655 0.8198569210106137 -0.10366250858767309 -1.195780742435702
Ni 5.053637177418227 6.997770349217191 10.779112164339098 -2.0328108327914927 0.21537231295985487 1.0986552636355982
Ni 5.67323409685431 1.2785331778854137 1.122461969376567 -0.22891097087623802 0.017939358087240075 -2.1652864089561157
Ni 6.788025780514719 6.193462138640727 5.288908978899018 0.45882287221316465 1.642133250095998 1.4413704595192016
Ni 2.479739064656657 6.2313289319150265 11.91891009782335 -0.30160659876875157 -1.2948427761368861 -0.9675043198196693
Ni 4.225432718267972 0.2661076548471098 7.081547017871558 -1.4747960861674987 0.15968504669987982 -0.8044282451603695
Ni 2.0021962094802084 8.314822714058717 12.630828179163586 -0.9554810701065481 0.9701690111360258 0.2038411723918038
Ni 1.2971729973657489 2.1775875908804228 3.9645535327850965 0.43326944922409244 -1.5439438488077537 0.7787763489202201
Ni 6.111316454190888 8.63862433816136 13.119844775221155 1.7279798135481725 0.4745906765703826 -1.476288354442309
Ni 7.510085787634205 8.582565081074252 8.847449031772479 -0.9343494303342552 1.4997686969524364 -0.7618965424457459
Ni 0.5923389794190148 0.014765533001347551 10.862565432125482 -0.8244535392423608 0.5733225806256578 1.7902722438294911
Ni 3.2278854991388717 6.658861151425736 0.3715531136473662 1.3252668969546983 -0.48717416966234806 0.2608402154846669
Ni 7.202072090631405 2.851258626628958 5.358407545831447 0.2903523660111709 0.469840563479907 0.567058601993817
Ni 8.7609108738621 3.3964733464287633 3.7791907799538764 -0.6645969999616231 -0.6493650135032172 -0.07007335977831804
Ni 6.063412118126427 3.332212568770308 7.465380044592568 1.9673945121692118 0.8972340135391966 0.35840920958009237
P 6.777074886570022 7.306529638999203 3.297335602540653 0.04847172234814232 0.3723934396743264 -1.0072224643448977
Ni 0.8719623673713158 7.170039560854449 5.803679281541592 1.536618261680618 -0.402986481969835 -0.3097138012569182
P 3.851499299672967 1.9975735342490852 13.128724785221586 1.2239080967995373 0.8453499230753958 0.6673403670347153
Ni 6.424223103807277 0.7312522340962131 6.705433672388327 0.8914433749993487 1.8361281258213409 1.0228480866972964
P 5.617389197691225 -0.05712918272527944 10.591376562488032 0.6401648350611878 0.8233945018502272 1.8701191380548052
P 9.159858930199714 7.356689393220787 8.798751571389129 2.040129992160725 -0.6945503517906039 0.16949431948081778
P 8.303526983453635 3.9246512712235426 7.554481177681493 0.47321050839340445 -1.7795458585509223 -0.25675910343675784
Ni 5.654165561525927 3.8554136617638375 3.3750468739361184 -2.165714240522154 0.5792500018536862 1.839512983133174
Ni 1.2235923099671255 5.695443441765129 1.0643225084354533 -0.7753184722786066 0.9095351995040528 1.1929049635498035
Ni 5.156193464199031 1.82156703880602 4.774779886046568 -1.2286412406091485 -0.027816250881319834 2.2761009552075384
Ni 3.99734656719685 2.8906818448298672 6.921255754232363 -1.1363543208482687 -0.5743546214345979 -0.9522167975329794
Ni 7.1576534008097665 2.8463283943764095 2.2250455032683303 -0.16521626093075417 -0.3045777655819335 -0.4183313398570215
Ni 4.600708203865561 2.6998660128096756 10.74855684025596 -0.5790216878929642 -0.7130502103670041 1.7768310307229207
Ni 9.282788539672525 5.391586424506444 11.095343225759803 -1.1379175515703306 2.2288173396302264 0.38430998860625426
Ni 2.2048203671411923 1.6211516997534554 11.82436613744617 -0.5306970326456473 0.8024250986874116 0.5116217611817512
Ni 8.728775825078003 4.125756283596879 1.3238726747893812 1.4031751793964027 -0.3334396841189483 0.7263826658098522
Ni 7.399775335949581 1.2344406849046805 10.776520297440356 -0.12058782358810201 1.7544102398255592 0.46385452109980113
Ni 9.078123321778445 1.2753364488445362 2.070525127740247 0.4516057856394352 -0.07803272383471077 -0.0707413323796201
Ni 0.7246006145146555 3.123921905987302 8.82544658885789 -1.2833869688914605 -1.6396490502215633 0.10179743035447629
Ni 6.588915228825779 1.0242487605346806 3.360123834460162 1.475724254408723 -0.3884936876702987 -0.9297281295121601
Ni 3.3592309871070536 3.5083215832205155 4.346545877332424 0.30348967472407734 -0.9903619411441331 2.011687163439
Ni 2.3323633319353863 4.231807536530247 13.460737249805318 1.1539321818310322 -1.0805608680277328 -0.5305589644058862
Ni 6.552465061831983 3.445524031391266 11.894929038070925 0.4568096984378778 0.2993892794024586 -0.4010013332190061
Ni 8.979705074922276 5.380272054081882 5.747834382378508 0.4072707111674857 -2.741020427236744 -2.158101718282219
Ni 5.524562896679156 5.701780980388444 7.89840262293121 -0.9041394824097783 -1.0366718799542662 0.7850441842068028
Ni 4.000990651905256 8.83211498427698 13.67582305877988 -1.081981145414027 1.4779791118811707 0.6883935881605886
Ni 1.010772171050398 5.247659058389036 8.119544509254933 -1.2066130571645155 1.4522356843684796 0.4586930315035197
Ni 2.578446228714772 0.10543986685441227 2.404965428811292 0.0032295626808912124 0.5535088883338403 0.29099668446338917
Ni 8.545294762023323 0.8384656797741794 13.159484215328037 -0.9444849761063605 -0.7845291922435973 -0.07723362497218311
Ni 7.404304812083302 5.219885727363336 3.472549905655804 0.3341212835670052 -0.8629007874749656 -1.5484929016310172
Ni 3.102476793675176 5.858178385738196 4.643747547045655 -0.45082854115377835 1.37232142724034 0.03043260545824436
Ni 1.675225816065908 4.202226143014954 10.80612033077513 1.3772270920720733 -1.7221814616988407 0.4925130653767582
P 7.177392969639441 2.6242349452682157 13.786993738133521 0.9796247572322869 -1.415282504182898 -1.113937129495333
Ni 1.2025759135030478 4.655248315665022 3.9635712142984825 0.49262850790869994 0.838592292636588 -0.31005061577104664
P 5.469603388941388 6.767158502606484 0.09984512503738965 -1.220142459109518 -1.218562773327224 0.40120496458938
Ni 2.0731114026931436 7.5838994727763325 10.07750656312636 -0.3336931948906511 0.11467634319967347 0.639695351623937
P 9.34022714340118 2.3234255384945652 10.824630603510078 0.351744138855091 0.08363078674777856 0.3178739684702074
P 5.342190902883556 4.529149936880554 9.967822409376273 1.4278899085342633 0.4544923631586108 0.23926531752736857
P 2.41374478378653 1.5532468373865942 7.874353527837682 -0.5026175008006118 -0.14092344982166052 -0.7683384414163478
Ni 4.978844901753382 8.404014250272121 8.92169516072655 -1.3768321706264999 -0.8400693914027468 -0.7004278936173033
Ni -0.11222382915428028 6.690287887069581 3.390978327645961 1.3133608895457318 0.7314040302838436 0.9669983267175281
Ni 7.307284551688158 8.917811554337822 1.4887521299936604 2.135966062725444 -0.9809995260926265 0.18199733704383497
Ni 3.47688552766693 5.412351183407538 9.662913174307924 -0.8600170381692673 1.3657705134956994 -0.18384081801047694
Ni 6.628925601340318 8.728757185258523 4.944782495635017 -0.22508851180635428 -1.3155722953747535 -1.0457064793527087
Ni 5.195420964295397 8.490726690494641 2.1574705657062707 -1.3957233511040479 -0.14723730785483027 0.850309066852884
Ni 6.977173348691421 6.459871758563417 9.750977001442767 0.5173751187257606 0.8312829034593683 -0.9399742327202004
Ni 5.971937204026682 7.759067176342782 7.0362867402003815 0.3940853228254632 -0.46430652103555514 -0.9686201785916674
Ni 1.9086709152376264 0.015094525815175466 6.1713487888002305 0.518279889928217 0.8066471071885591 0.1399340893251977
Ni 5.003850219586251 6.0884733554177375 2.2201217949525995 0.6709378545779864 -0.2865283642793904 -0.03534444093756494
Ni 0.6035517628274105 8.165778717493957 1.3811957116372562 0.3450955231903218 0.9233024284914744 0.23869453262556314
Ni 5.426489486483372 1.595885424447861 8.862563129398108 -0.8745594547598164 -0.8902622102070539 0.43591639992863634
Ni 8.151351497216178 6.355414210195619 1.436972575459237 -1.219656263501719 1.5694381364241166 -0.5537531431341624
Ni 3.8570632857878473 8.277449876000645 4.467606844902331 -0.14127517673412443 1.146684756239999 -1.5009107809766797
Ni 0.5337745305937496 8.903533452615884 4.294452241839757 0.15993161549304716 0.3743438785324779 -1.34879609042489
Ni 0.26501536142556215 2.983508145841937 13.119284648645772 0.19416919651967848 0.005770583935190062 -1.1698264844637853
Ni 0.09397358190108406 1.876843423474954 6.741349808554011 -0.9885729675645102 -0.7176221460084028 -0.4681356649736583
Ni 7.670667832457293 4.368698370793829 9.819685240029232 -0.3588280422850659 -2.5357003563065685 -1.0435863476859124
Ni 7.709522536164052 1.6411335862363747 8.530276659468017 1.1826259502212988 1.323380735675579 -0.4766097638829404
Ni 6.807672150246992 6.309811891836978 12.064959607388595 1.1667514450828875 -1.2132778707792007 1.5776882922480508
Ni 1.686232629469046 3.3662488791414 6.116036056483309 0.2285762132446386 1.0332998781582396 0.4003369601621299
Ni 7.705729332899803 8.38722909283008 11.154625307635062 -0.09663516942724648 -1.4210181211150947 1.0861990401501165
Ni 2.9114279639114806 0.6696466987227313 9.833447950742537 1.1075679927441957 -0.5254679230362241 -0.5988127544769623
Ni 4.976486964589119 5.045239938742336 5.6430059016030505 -0.29406349631417095 -1.6313726691453838 0.2587635354612963
Ni 8.921464958955967 7.3930277212977 12.993149922213316 0.27140333571249387 2.427916369351354 -0.7023719047175516
P 3.9156202786853203 7.357779822660385 6.285902595389553 -0.620228501148577 -1.5071932715512815 2.058486640291042
Ni 2.5497595465345357 7.123179054680887 2.5480288392957866 -0.04592581599783703 -0.6426302658825449 0.9672829478374825
P 8.42837649433292 1.0560389726583923 4.843515152371277 -0.5085495500143307 0.26149687523205933 0.02585012829388451
Ni 6.574264330714235 4.660588623946138 0.4166148772410766 0.38356436868948135 1.8801896349169296 -0.15142974866962305
P 8.967850149732781 5.41858620302371 13.185497015403818 -0.22669982215753215 -2.3849570921810086 0.08133556295569863
P 3.1370350189917175 1.1272990025317138 4.533368128028954 -0.40954022392795275 -0.46304899447937026 -0.47417775740268014
P 1.335207549015373 0.8660805723342959 0.1083327668377603 -0.16044172236024626 -0.1371552410284799 1.4187087562556275
Ni 8.354861046302478 8.316211380610003 6.539495475437565 0.4414435003944527 0.7887907957334286 0.19095120380301306
