# total energy = -381164.213626387 ev
CRYSTAL
PRIMVEC
9.24239798159672 0.00000000000000 0.00000000000000

0.00000000000000 9.24239798159672 0.00000000000000

0.00000000000000 0.00000000000000 13.52718368196758

PRIMCOORD
 96 1
Ni 5.258212785632376 9.290643296849272 10.282512493523594 -0.10170049976529581 -0.6168238463424022 0.007951907857225014
Ni 5.828357832185408 -0.28196153211665054 7.329691111479031 0.09438853948491487 1.0548575497243573 1.43165374645207
Ni 3.2795262870192707 7.341689592535884 9.258897508269639 0.5742805736635529 -0.5894475112119784 0.6113959904586115
Ni 6.080610600237086 7.677826364648567 11.80710796429156 -0.8030208232898816 1.5333622166371657 0.33478077152787505
Ni 5.771470872622221 3.3572733388219564 11.761290624788298 -0.5574899844687754 -0.37412276366060726 0.7181847033800921
Ni 6.351422103431391 4.798006063044271 5.375567209735971 0.7927554368081314 0.8267834729271181 0.5880642577112066
Ni 1.9647119928682584 4.61062568640998 0.4335858436880492 1.9491659049763268 0.48915777575128017 0.12281491314640784
Ni 8.092079884483113 0.27548908081167894 11.552430915249888 -0.16067337875507812 0.8342972648056599 -0.40326441822157
Ni 2.3077066242816535 4.992364450153007 9.956683767877331 -0.3727400243804677 1.1170255386126697 0.8321555358723087
Ni 8.810556176207482 7.326652211023406 8.391047428881853 -1.0829525081883606 -0.19780396505878836 0.3301692408977927
Ni 7.020165051628628 7.316263755694564 0.39456351517923793 -0.19614328952691382 -0.024695960084783274 0.42885486509616466
Ni 1.8112234896244155 2.3957681922293466 0.8004166194903091 -1.3495067433386694 -1.3393074342081643 0.49412668972078133
Ni 1.1095406350286088 5.728789478753366 11.991794181914857 -0.010494728883736764 -3.238462554484003 -1.6608022872604105
Ni 1.7865370446214466 6.9065020412780065 1.7349561457382308 1.739904075789584 -0.7138318257280352 -0.9876854227532345
Ni 7.459964559478226 2.4757426619450675 5.350880764733001 0.14604791553241944 -0.6996491064697499 -2.3286265359100797
Ni 9.221158948840166 8.538654070051608 0.30401296945569345 0.7297348701115368 1.1919433709674827 -0.956620840137946
Ni 3.181390505274035 3.205189680070982 6.3636202202846 2.62029787784299 1.627683393219255 0.776530747419153
Ni 3.9096175268666697 5.295062226376232 5.0722880866798405 -0.4862264610370981 -2.7986920709165997 -0.44568530638994214
Ni 7.124881420735194 4.184015080476981 9.818057040584359 -0.3480435500750522 0.24394986748723152 0.5159962361003629
Ni 7.863968259953619 3.2111879963596106 3.0916246391389413 0.8278882759555227 -0.2863977522387971 -0.33748531494323164
Ni 3.754326756016844 2.7279492180068474 13.319555227155409 1.2764984693017436 -0.9218921784075091 -0.07428405542555594
Ni 1.5549040664618035 6.270144455600576 7.9477478249174585 0.6690653201456219 0.804567341841395 1.0409193423767105
Ni 5.309203095284709 7.119825829040464 8.230141901259545 -0.17526850296043364 -0.14852105966326035 1.2605771700857966
Ni 4.822581599271487 6.361662680392563 1.8924530769857382 0.6614859651364673 -0.6827495025009338 -0.24605148721126655
P 9.237730568417225 1.6810258292886524 7.106059277250153 -3.8758017471709385 -0.21173085955252566 -0.35939239942896817
Ni 7.070536120616341 4.977742976549601 0.8783291102168262 -1.1365942047732167 -0.07554235331268926 -0.4391701309792436
P 5.110195781992337 1.6807947693391674 6.835285667887562 1.9320534136657563 2.7373848873666855 -2.584358483633904
Ni 8.039148671255107 5.133828593625655 12.003521860710915 -1.0135738604842222 -1.540687032433353 0.861228284868549
P 0.5644387900405514 4.286337668506884 2.0373692561036907 -0.09317420746183955 0.008404164903295203 1.3433024143001704
P 7.173616585280553 9.008916521641298 9.167629752462894 0.6759880154073842 -0.7977186943506777 0.13186931003919225
P 8.738003352069217 5.63481277609886 10.047207510646736 2.1454164095050663 0.052708129026993095 -0.49699912617256986
Ni 3.507342154813423 6.99409224692875 3.7488968472039486 -0.6985005946876035 0.5632389711374106 -0.5857132409805268
Ni 2.0556109769956263 2.135132569210356 9.853958211295527 1.1088278332932258 0.8650060067434264 -0.205211313266453
Ni 1.3669599035507691 3.2843415763665362 11.945815100446955 -0.7253064020265381 -0.9865623648923849 -0.023614296984830297
Ni 1.5956353143570052 5.0528929145200765 6.182761279664571 0.8124305466395556 0.33568220029622187 -1.3785350122502193
Ni 7.614941088796752 0.7677992727812196 1.3124491645080845 1.8481652594915332 -0.918770602059392 0.6203015204783575
Ni 8.763114947379238 4.411147010820659 5.309838972265692 -0.430159185729885 0.8247546154225472 -1.0827059393951934
Ni 2.900966908181156 4.222223153723808 3.132516704758985 -0.8576485379370906 0.8706763176553263 -0.17135682661085327
Ni 0.3346598369155753 7.842618320621213 6.02289737029454 1.0465896532886105 -1.60758662246938 0.018766481974225747
Ni 5.822165425539212 1.6507200063142105 3.1390778830845587 1.7950346982151408 -0.8989337698391229 0.37625189418846816
Ni 8.286170242050446 7.305348483680897 11.971733557100578 1.775210207290046 0.31705147256891203 -0.7515378249192411
Ni 1.1641816918828027 7.420259217758737 10.389985869947413 -0.715978953978025 0.3715244068058117 -1.0459322222102696
Ni 3.1901245713645654 1.8988506648670767 4.481068524254189 -0.6997249540130078 0.6931915237698643 -4.403299299042681
Ni 5.306208558339384 3.562029423657514 8.319393890066983 -1.069272696708423 -0.652815691055979 -1.1249283383995143
Ni 8.685783803485625 7.4208137616375005 2.1824490256658784 0.7846875721983325 3.024588680446546 0.9309766572072806
Ni 4.049944855387851 5.575060673162059 7.285456994749638 -1.3034670274707874 -1.7660249412463522 1.688645020504292
Ni 3.460973044150789 0.661254757354329 12.02853363812276 1.7238069131174054 -0.20481304938676984 0.7599018806132203
Ni 4.172563749380509 1.2370025455624702 8.584865135708794 -1.243416342035794 0.5005804157659249 -0.1673415348038731
Ni 0.774107209402158 1.9429923576166759 2.904651852255542 -0.24268359918029817 -0.5728610676082069 0.2179714411455988
Ni 1.7735884450523116 8.46170186447515 3.264244906200136 -2.189998052770183 1.2031423250070958 3.0786006158866273
Ni 0.05053188671255417 3.301218195076915 9.695892872572289 -0.273800889410393 0.311184986485806 0.2679526581597321
Ni 6.864495342461647 6.626549806482076 9.84862812038081 -0.2124091165664729 1.3611340431649526 1.0153990866184188
Ni 4.729713984374508 7.237037920215174 5.858271777485523 0.2464474370981046 1.8186911612918162 0.40379946478943357
Ni 3.665867764956037 0.45002622121380026 5.776905402634107 0.294039585054771 -0.5235632498143434 3.069672717269378
Ni 1.8193383150503257 7.589311919199885 12.618630249193915 0.889260765525733 2.2617541995675627 1.3067662670473494
Ni 6.797866895428175 1.9313099665707183 9.706606660310007 0.01957535102876629 -1.337149250214581 1.1983410469637104
P 5.700110317823298 6.413697381016568 4.09390724561665 -0.04206376193926949 0.08316824528906322 -1.884405215660174
Ni 8.480260599617779 3.069816276866757 0.6864264282512162 0.9139603251549421 0.2452716716224486 -0.13251542826362342
P 4.695082719145708 4.541723609473577 0.5559154506239516 0.5678839261085897 -0.28535414146563115 0.9339161994515787
Ni 1.8896082668876797 1.7193910233011287 7.255791669955169 2.4757913386557617 0.30580032513512495 1.8403084824512757
P 2.81249867472237 9.379924861330245 9.750975716049897 -1.0462384405967786 -1.3315193056223134 0.8842535421191287
P 7.991254564925873 6.414935862345807 6.519696594962674 0.14201076934856832 -0.3566518605693535 -1.099732555860177
P 3.4802619287337904 6.700073082408178 11.413493643384806 0.15777240305819926 -0.5917658749325099 0.12317409625803949
Ni 4.867804652584676 5.086378122399432 10.17092717423874 -0.03005079663879341 0.7278487088324175 -2.6284562452840667
Ni 5.953693991184008 0.9536306235141638 12.525224726734534 -0.4203437423013599 -0.3918880580638283 0.05042370386819058
Ni 2.2157632491826145 8.778605206392708 7.520816507774574 0.2645220352116283 -2.1302145049536474 0.24029350168156682
Ni 7.247296981972306 2.3799452068886193 7.459754757044093 -0.21248316433751796 0.42103382638984904 1.7172035488682746
Ni 5.301199178634552 5.644554263569144 12.29574984850308 1.209947006633755 0.9891774339177286 2.170531202294823
Ni 1.553637857938626 3.2466048654166593 4.792518851363903 -2.2043646059045003 0.505393263773536 -0.480963669976262
Ni 0.9765148009111504 0.739109945213374 5.323311615800259 -0.4711320285978209 0.5074653158112163 -1.5352944006628721
Ni 6.215059763643371 2.3406280458842654 0.9462404020898382 -1.7177761335422932 2.6654068543664873 -0.9408800323639216
Ni 6.483773242496354 8.363834112271318 2.504977290993698 -0.8730664151540578 -0.2908547595688862 1.046404533860998
Ni 5.850225345804661 4.262520008913978 2.911591044658473 -1.0421007642793214 0.8654024708508967 -0.2587923318167027
Ni 7.424141024910084 7.661448835429076 4.798511622213745 -0.07193535268772126 -1.000047286752697 -1.2575790066894212
Ni 7.75654386823909 0.09255984304426533 6.290167186583141 1.707018637915473 1.5860194378215653 0.5155000131902348
Ni 2.4019328716816046 -0.03809716447107369 1.373212385783831 -0.24397069342283786 1.6119387287904885 -2.659808534343103
Ni 4.03986139919233 2.6133619678582862 2.125012143422917 -0.18503612387015875 -0.7962166558838546 -0.23309029906490825
Ni 5.059011381982438 3.035610161945009 4.7652214289317545 0.20680051213044384 -0.3101897124520722 1.0942627909948575
Ni 1.8157892342262374 3.8423421119746397 8.21056742657898 -0.12467639183517884 -0.09940116220815784 -1.5949113409945563
Ni 7.919690677371403 2.7986997745391307 11.773438832692415 1.7716155479602522 -1.1363720614600816 0.3813791881127045
Ni 8.063493147532839 5.654951961295965 3.058563657326841 -1.6584684969209116 -2.5271329263525315 1.0563349056008324
Ni 8.80524179736933 4.73643320770553 7.593538467795862 1.773392951575649 -1.0755307618029928 1.5675324347609714
Ni 1.037708717932737 5.829189648003553 3.743336620579543 0.6098260748683304 -0.16013653241500164 0.4519744818327635
Ni 3.5055121600135024 4.336708737494597 11.812112722797405 -1.565001955029634 -0.11945885218998134 0.30992668859867273
Ni 3.844153621978602 7.747680408576849 0.25055771226225604 1.3679531229693151 0.44079095441211824 -0.6137968865906204
Ni 6.716127127698391 5.365184299845916 7.8591446524481725 -1.7812013918764744 0.3243312940597769 -0.9457587006124617
Ni 4.137239304303255 9.21788713995546 2.9519692329508618 0.3784846401737288 0.12395442606748976 0.1823369797714408
Ni 0.42350885717111286 0.22588328237666036 8.866974546193115 -0.7555058084280537 1.1304793501247303 0.6898580885212571
P 0.18697925656198533 1.511945400653567 13.073062321524493 -0.22773803361405942 -0.7110213528624335 -0.618990772086734
Ni 9.4373201527823 5.995756144388244 0.4909145898746518 -3.004657231629942 -0.21647557332636266 -0.3245603793514475
P 2.4621840641092922 8.195206561137221 5.386524996780343 -1.5977269560664804 -3.1334512451779197 -1.0783708023549492
Ni 1.3736976116777495 0.5135769497201328 11.410896529552597 -2.22833757178033 -0.5167829936677164 0.36784875772643744
P 4.696848017159773 0.6106886737692511 0.8755536181036134 -0.37950382546686257 0.009211234185622846 -0.4289834202542289
P 4.648371639757837 2.6005889738507597 10.138096328136328 -0.35880284547408525 0.8187654877186479 1.0491939236806769
P 8.40333612123526 0.1751073963574501 3.5240616527581516 0.3089851506210098 -0.005746929786106231 -0.34925531099496626
Ni 5.698973502871833 9.42872472266146 5.11860543991379 1.6329430989562976 0.7075837879357944 -2.1298324390238803
