# total energy = -381173.03075762844 ev
CRYSTAL
PRIMVEC
9.13109024811619 0.00000000000000 0.00000000000000

0.00000000000000 9.13109024811619 0.00000000000000

0.00000000000000 0.00000000000000 13.36427356286533

PRIMCOORD
 96 1
Ni 4.082693102185839 3.7206727644188815 3.1768076761135435 -0.177390691509759 0.756393867459962 -0.5954294398270261
Ni 6.875181404871198 2.0336764352272994 12.957572328999639 0.7844052650712233 1.9582352142674468 1.3316458038978483
Ni 8.401077907613807 0.873756771685663 11.331353450061812 1.238782957028841 0.7721914966138508 2.8824239020186164
Ni 4.4553694223518185 8.395343582895226 10.568895538240488 0.23239635832167718 -0.12695207524323296 -2.285787843477999
Ni 4.088673966342959 1.6999350841696586 11.684090208304275 -1.4625524929134555 0.23238273147492236 -2.5309980657348925
Ni 3.8060849832367527 5.752294704325033 9.950904258748121 -0.3122489089739461 -0.2073291309404042 -0.4631497817232927
Ni 1.184293282922708 0.494925183537523 3.675268417821505 1.4656337029419404 1.3134930442482218 -1.3544748859772222
Ni 2.9276558326362827 5.9931272114151914 0.8150192070085498 -0.44053024455156387 0.1367163537188484 0.31894303316467004
Ni 6.025716072753761 0.1647686985380279 12.116839058551598 0.5918360660488129 -1.977132565392582 -0.6883727622249821
Ni 6.342455333642611 4.882010486286626 4.028713748672505 -1.4625704906355843 0.8567553366988601 -2.0364617992805187
Ni 1.8097090519511896 4.645515247096671 8.795456090134335 -1.4287414579012814 1.0185972818407425 0.5463020861727559
Ni 2.112642104281923 1.9376904138232525 13.321146778338417 -0.27612336689598255 0.9347137556522095 -0.515354488751306
Ni 1.4037773008535566 6.8464276014654395 5.179003764366661 0.7761641081083536 0.20447314954884785 1.5399182725881286
Ni 2.875106407866468 3.9531594549600197 11.69388604199551 -1.4791985861105688 -0.48976301343544687 -1.3019199946986417
Ni 7.5782297037681365 0.4812385922625491 4.331828509700531 0.44929847766249714 -0.8620682642713412 -1.2234488977749316
Ni 6.441463745941325 6.301027576877945 11.269945041467206 0.4406449157525572 -0.2487740283487522 -2.3178124760137115
Ni 0.40197798899071213 8.927996605401283 5.595581453663969 -0.5144412329084173 0.34164741674072124 1.1182393564151127
Ni 4.296871956642967 6.4515901251020065 5.705689619351074 -1.1761948498839743 -0.6793600172034105 -1.4044401621517553
Ni 7.408701880957296 0.23699014428509507 9.620753252402814 -2.4058809868178694 0.4199758174389799 -1.6355913352124218
Ni 6.177566104712408 2.038598092907739 10.647464004866357 0.3530111784929727 -1.3331303588631749 -0.7660468171686936
Ni 6.675320100029895 8.766084111914168 1.046296941191821 0.8737968655621791 1.2363882315444192 -0.46125205047994755
Ni 6.41624367448794 1.366979006879212 6.11764332451225 0.30684445012892314 1.7694843605498622 -0.24271676641107875
Ni 3.5714707486519366 8.651196733555556 6.051744245700131 -2.485066850420417 1.0692762962528488 1.401700394623089
Ni 7.092793549287222 3.962482298172875 5.808914769157816 1.0668496890892272 -0.4347907709646254 1.6373995920657543
P 6.14318754967186 5.2493999051595175 9.379114470037736 -0.9475962680418325 -2.2431941771771884 -0.8630609672019135
Ni 4.080656869045323 6.830439062321747 8.120079560440686 -0.8877944653928517 1.1351813835860902 -1.8691657730026001
P 2.600689750593273 6.685346037197099 11.427389692462599 -2.417747913458785 0.9801857719420798 0.2568922865805124
Ni 6.092290852249281 5.968400218838882 6.892209975201906 0.1784762112644539 -1.7037078283746852 1.044665182572388
P 8.442615237462268 5.561966257773857 3.284738076760231 0.068907621604991 -1.0772919674684736 -1.3454433719025731
P 8.143416801070867 8.202933247751954 12.456638888034048 -2.0764311405846048 -1.0792406065544122 0.05465573967166716
P 2.023139157002388 1.5975116440926802 5.537433757421284 -1.7400591133102097 -1.169147970339522 1.4905091260273815
Ni 4.7280146481036684 7.5829230841906705 1.513437130006135 -2.9388429042382933 0.8496061272485883 1.1181822779249322
Ni 7.4533437815132695 4.116742937975003 1.7728778860517067 0.21840647180048836 1.1983392471914973 -0.6116489870096821
Ni 1.6838369719421722 3.3678565656906687 6.73524653266618 2.074264986171221 -0.13147181749045744 -0.22298560653073854
Ni 0.06178187018853911 0.42087204107302323 0.28014185090146165 -0.4028353011039514 0.27160979529634516 1.8144922927191203
Ni 8.364854872329385 7.379884159919324 10.380632544318841 0.8667409871566621 0.9530508633985006 1.0208164009792484
Ni 5.569061114949556 2.7473259299813617 1.7115890947402432 0.8997914898537277 0.13419975794458178 -1.3688249840513071
Ni 5.379563597617156 8.429037306162057 4.800700866347831 1.771767500157084 0.5883902735920576 -0.5471994011760447
Ni 8.766138898456065 2.2933737749107572 5.646124777891312 1.1034917657922931 -1.4134657626891336 1.0498654958264046
Ni 3.7217684952568275 1.5601380914284142 4.438623002711881 1.410897487741325 -0.16030751077522715 0.6111540496511346
Ni 5.40331356352963 5.30873373003428 1.5162705073312563 -0.24180685300229968 -0.43236030714626184 0.7734004293202874
Ni 0.6776109074940271 4.998842786882591 0.9249611868518991 0.3920425813638216 -0.46927646344632085 0.3838389625071067
Ni 2.9042254548848763 4.619655999321151 4.943365021448367 -2.0735556188090225 1.2035123067520046 0.25718847766469255
Ni 6.261097318925139 7.285103442437017 9.157039961784177 -0.06520291905989416 1.3410311017674903 -1.307673095132335
Ni 7.247885118308127 3.961852252941056 11.00976923265118 0.20250831251299314 0.46604587232416517 -0.2688731130914724
Ni 3.775139718155102 2.06570830005658 7.211348886625857 0.12775477365018645 -2.3706080225481885 -1.8031845810157847
Ni 6.486653511916271 7.285267802062709 2.8747356855996298 0.5072902236859328 -0.4206281063109982 1.5995159296461032
Ni 8.195400098241075 6.762850731801127 1.2907654484458957 -0.10034938505404008 0.533767701151171 0.731706649125927
Ni 3.1198652837925986 9.07029551688917 8.57085592229931 -0.10176246335148281 -0.13026597010781435 0.0815438223117628
Ni 8.720373873791198 2.4967596806141192 9.727828069886874 0.39099948481128793 0.6656439531688989 -0.5634865683718425
Ni 4.761078326138682 3.6867781571650933 5.510317158509221 1.550028364438937 -0.9978705908163523 1.185145888429675
Ni 4.525934488315524 1.309772726048128 0.3532088356118103 0.8065077533972175 -1.8546035589177094 0.5536891226654465
Ni 3.1030458154301312 1.7416550358244425 2.1020664754776828 -0.5555485444716884 0.6370424873821222 1.0865556521585868
Ni 7.979760269333354 5.394145948852151 12.82151086530676 0.6412372421897601 -0.7534358132729024 -0.3004904828864373
Ni 1.2793570642048175 7.692067006740383 1.558047071746001 1.2470248853226586 0.4497206528015803 0.31271170754297756
Ni 1.6951321306633296 2.788899784191087 3.5923836848031625 -0.2896723092250108 1.529118353759147 1.6213402246100463
P 4.2810660393056 6.024218573941901 3.341737081841137 0.064546773533134 0.48098629568408136 0.2659186584488388
Ni 0.6949115843161587 5.0963080449178655 11.072287068719204 0.5021912118964706 0.37899037616555376 0.4958521570523203
P 7.407012629248797 1.1952597223924815 2.2962765485222816 0.29555396481676843 1.6147042073507674 -0.23274114325560563
Ni 8.322066583107603 5.353905233828594 9.328489879106579 0.07318233772094493 -0.8928469402150946 -0.09925898020333872
P 4.71889268887777 1.1662959039094491 9.304501591736852 -0.10328584197454471 0.6859086169552058 0.5804874738052131
P 6.731741107093785 7.938095104220467 6.470727064186729 0.801546038516568 -0.4910681054001156 -0.7184608398596143
P 7.95142649608214 1.7503204405345303 7.73886293150195 -0.43694869784789264 0.7499162301554182 0.03207708304020282
Ni 9.12114655886017 2.625708938059701 1.1963253206323838 0.36370825319550265 -0.6733824594637371 0.9580994815660016
Ni 5.858982363579684 2.9800043734191406 8.1288728004152 2.2578484367552534 -0.5350540240627624 -0.29257842712821225
Ni 1.5241342023115803 5.76964377592584 3.2560719318215074 0.35247330371163166 -0.8514660632754627 -1.9315417641366606
Ni 1.4358639522247343 7.851769776370975 7.346047078534528 0.7041696200479227 -0.7151957959550973 0.8460945145509041
Ni 0.06947937932510795 3.1206322953791603 12.256562089461282 0.5193065314205185 -0.42466833781864277 -0.3621375662742731
Ni 7.788820039730991 6.596975345116774 4.982254335105124 -0.5427776179592653 0.5507243836101676 1.632023158245189
Ni 3.960656080109632 4.1602708455123985 7.872238941532832 -0.32895722286756246 3.365295330540553 -1.4830197596288717
Ni 1.6555123297812748 9.126269100527566 12.059505855565119 1.3893483008156395 -1.1568406137270786 -0.5280017452016713
Ni 4.887032585960545 0.6185866265809847 2.6795631956357027 2.3386371260685466 -1.7622922136767971 0.14891829510167903
Ni 6.089350641167459 2.415995186767202 3.843899567563292 0.9105291879862061 -0.22667154002275802 1.5439898715543408
Ni 4.599092783929035 3.6310602440555524 10.026465857332859 1.5569315193166735 0.35358247761541034 1.547919031405418
Ni 3.9845156191059004 8.02473088914071 12.649939504483152 -1.3583695930459379 1.4796454438400002 2.165111831051465
Ni 5.364844280027418 0.02613591981210084 7.498493370690824 -0.7505741754543912 -0.7845297064642295 1.874024129536166
Ni 1.4022706709513812 6.880970516131678 9.52109653269165 0.6791561287227206 0.13281341912001643 0.2408509168469336
Ni 2.758520646709041 2.6743959116257567 9.193056634427453 -1.6315832424942935 -2.627572814237849 1.4877228215314957
Ni 0.9554042419661584 0.11481706896317632 9.711817616126423 -0.5698413069452767 -0.9814085886055872 -0.10538746169857978
Ni 1.201532781439721 1.145769212878599 7.752695620221984 -0.3463391657894358 1.1244904795311472 -1.8735443616862701
Ni 3.228388292200808 8.119429426810171 3.7807799926434273 -0.4023092533971523 -1.0006815779025864 -1.3031068159178911
Ni 8.407807521176858 6.369309870262597 7.3060483374043494 0.9496017285076357 0.12602827787738297 -0.5283737838291094
Ni 8.863731991755765 3.721348465102282 7.685232385638696 -1.3526925972658186 0.7859299292458658 -0.11766730750719734
Ni 6.053136736973354 6.811446394464021 13.266741002907317 1.4959115279898754 1.3722072702599788 1.799203741991166
Ni 0.41660964811341433 4.653952374548852 5.309639534193648 -0.8343219473960082 0.5858225128648814 -0.3639620210775215
Ni 3.9175299405461512 3.914124043858203 0.3083843132495132 0.5474745092143022 -1.1623882830181853 0.3522138794026579
Ni 8.30526537692577 8.772804594386901 7.691714546654177 0.5753776633824735 -0.8001036496430867 -0.7287771341839577
Ni 4.358278539019509 5.875372670697288 12.121957947782867 0.5365997712833274 -2.6636821583658965 1.7354360127159014
P 2.144208283505076 3.5508984021695054 1.6828690763686536 -0.6291643701856261 2.051800229409802 -1.5316436912841622
Ni 0.6973915884460425 6.9446872643582225 12.806008100167888 1.0098349622670801 -0.4500726368243604 -1.094211883152264
P 2.7934014117169808 0.020732140562965084 1.0678828386993522 -0.08867246293674405 -2.0504542569048683 -1.28357363098097
Ni 0.030219343401511976 7.757436482314162 3.4962944820785427 -1.3648143202300171 -0.7070957925557821 -0.6805504379670859
P 6.179063603524268 4.271158806312507 12.83021096816005 -1.2839438698361951 -0.3229889210992696 1.3809155966672542
P 2.283375231014502 5.72152292995939 6.985705948276722 0.41495265319277563 0.395588389733551 -0.7038744574050071
P 1.4609744505943243 1.8147585448960561 10.903416684411136 0.4255615390568736 1.6747417801596383 0.805469027720058
Ni 8.584822838046993 3.20626366036462 3.6203284736069055 -1.3175042222901439 0.1802952667510637 -0.8590623875654817
