# total energy = -340891.06753090187 ev
CRYSTAL
PRIMVEC
9.06484640776285 0.00000000000000 0.00000000000000

0.00000000000000 9.06484640776285 0.00000000000000

0.00000000000000 0.00000000000000 13.26731900647698

PRIMCOORD
 96 1
Ni 6.642202691262589 2.0427812491984323 11.300571922498406 -0.15944413433366733 0.2714102776910293 -0.41120269923204017
Ni 4.752952744283235 0.49586703667996057 6.289027213565385 -1.284153157633524 -1.2026954672776642 -0.11891892052611135
Ni 2.8878606127619815 1.4926447905355242 4.951894394171115 -0.4380807545698068 -0.4080600398380005 -0.6517885353430453
Ni 3.252947298531209 4.367143819813363 4.846710449830376 -0.15141483627128763 -0.43072714241821297 -0.45481246550219084
Ni 5.0218614105363475 4.603301196291573 2.8201407718008995 -0.07892309685946408 -0.4203344863299794 0.4959346894637975
Ni 6.9902746604783985 5.907252145710468 2.7801929005279904 2.055989327790485 0.5815480538592436 0.040493589238672204
Ni 5.168322132621348 4.377912857248345 11.206877670875546 -0.42938888322276375 -0.21680827407543307 0.3230308300807985
Ni 5.626241909612491 7.70287129499124 12.565212259341093 -0.27791979667477296 0.27429968342368244 0.14741934195864934
Ni 2.159119486942995 6.6349417493556695 0.36213517180556576 -0.7497851038941926 -0.21828948660664987 -1.069684587434861
Ni 2.5272610259239965 1.5246980871433449 0.49358813431366927 0.22787070253718178 1.3964319471352984 -0.21061654344242436
Ni 0.5122934447068362 8.98546546646669 4.75620158520638 1.019352157728896 0.396304184853653 -0.09460939724646932
Ni 8.555746426394927 2.310112632190866 1.3657242511902914 0.532028092752245 0.910803010472883 0.7131605106926234
Ni 6.472427184427781 0.9173715130113358 4.772758527020346 1.4443799357694866 -1.1655098593663025 -0.1690423195450637
Ni 0.7183392146601989 7.595099337024504 2.3238368095280384 -0.023749279900797806 -0.7184505554469691 0.8501997949685293
Ni 7.479558805756606 3.46741249775192 3.8619970999497415 0.45541076120782215 1.4670976890819765 0.539286316976555
Ni 7.411218929306844 3.9407787728821257 12.704320484571285 1.6551764564332008 -1.5681770103235055 0.43454163106829674
Ni 7.898980180402326 8.67830314871895 6.7631485903945245 0.43468329885248363 0.30330352685520023 0.3800435000204164
Ni 6.783922498719226 0.683404203405425 0.1524108872132172 0.05935031693385909 0.0956676633076546 1.239122856866763
Ni 1.8424028211679229 6.3862839497942625 9.281776256677887 0.74831623265815 0.8329777746632879 -0.28400148409247866
Ni 9.070557178926421 5.133766938427623 1.1073226483133451 0.20387742494637792 -0.6249346483749947 0.8677403749554539
Ni 6.441570447534958 2.047902887372476 6.8468125895579535 1.0018974525875586 0.11101123564326043 0.8698895600879728
Ni 3.518556360721752 4.452697839435709 0.8262326415677012 -1.078418624873749 0.14142918581348546 -0.47958555868181285
Ni 5.977840104049015 5.7378301678823656 5.01034996218729 -0.5696818985492769 0.5036999352315131 -0.9017470709182018
Ni 5.527416954969261 2.924174387142901 8.936892393914839 -0.11056514924477732 0.3489102689507217 0.969771518587291
P 0.5755996119919151 5.8653816205318705 12.116989148464596 -0.736723385614228 -1.0856956181511366 0.4815761067492803
P 4.246255029213279 5.850062030241367 12.711006715221153 -0.4540215941697794 1.1099706886484173 -1.1163333976416514
P 2.475654855791552 8.608023395155477 1.2985310778007344 -0.2817119167273535 -0.3938698643805475 0.24670043364917515
P 6.144642341288979 7.849177914688704 5.892029549275652 -0.07436144563071065 -0.5005351643502863 -1.1364116564487654
P 4.927976797140646 1.3988780201420572 12.425985284624034 -1.5132006540876262 -2.565252101821756 -0.2492723081414094
P 3.9673387726165474 6.370221042105049 8.215216409322133 -0.3376832898866507 -1.8961083630297153 1.265767970258117
P 4.623941851375286 1.3341731470689164 3.6508478215149864 -0.2612595624102726 -2.669392321376796 -0.49502297628280545
P 0.18501260702374545 5.772403491768742 3.7234998453619044 -0.4569477666776388 -0.9958746434322462 -1.1908066862598783
Ni 1.5634593700322144 1.2364812982164035 2.673643790330596 -1.169505867899573 -0.3533773035831398 0.2729321136521945
Ni 1.850180459315409 6.58517574302735 4.848223372682142 -0.1725153656953287 0.27430482563000497 -0.4277140666235021
Ni 5.854349702553443 5.368356096491479 9.039276207225555 0.23022788991544865 0.7317362168122817 0.47559906323023904
Ni 8.816977167810139 2.2078430359438537 10.036594225922132 0.16585389451475308 0.5773733536562637 -0.37197229297650775
Ni 2.340216986838653 5.15367334095895 6.891005528365207 -0.9033653232479151 0.3299085310372383 0.3567945567948049
Ni 0.6998568994866452 -0.029072775135917193 9.262552437074886 0.3710631508986771 0.6285565613982982 -0.04936415225542466
Ni 1.4926266608428727 1.1537373809550378 11.462565258762565 -0.6538706146830545 1.4822188609941314 0.0020877357669641466
Ni 4.151754006267427 6.829446156967099 1.6720009334520072 0.561636145426665 0.5970726318574039 0.12364769346034833
Ni 5.76387347137622 7.69906405953443 8.169855918308125 -0.24574218350096388 0.5237967059813883 -0.10415770305653675
Ni 5.142587033902569 2.9304200662613367 4.873258665264575 0.2570846050969766 1.3641856855070829 0.7941332909922646
Ni 1.0099870479214337 7.473222478174913 7.074837892397341 -0.6838483919920674 -0.3010980345634492 0.26302539606144376
Ni 4.890674954510222 4.638826329042153 6.884451644471697 0.36706739947572264 -0.454598806829488 0.1779931009804483
Ni 8.301105828258532 7.27725863030504 8.994871151014278 -0.2367780323291406 -0.817052104571967 0.2674050131863782
Ni 4.896585234314604 9.046154612617528 10.441870814361167 0.17003553669626845 1.0470254552744485 0.4024627482558811
Ni 8.15115514033812 7.17294037878841 4.933187270808682 -0.4472464802294749 -0.7394754944380685 -0.3681107531385725
Ni 7.3444744658104115 6.135704402811799 7.017734799452967 -0.019430083700153634 -0.4207630892269657 0.13296665686842907
Ni 2.181745343372045 5.428437897938492 2.5592653723616583 -0.4496949417699675 0.32611306855054806 1.0429073193410168
Ni 2.6076208886016925 5.255009258034412 11.308863537432563 -1.2299658729578429 -1.0615593872245652 0.4322029556327911
Ni 1.0631161122366029 3.4331111192553156 3.7445683611921923 -0.4502477289496439 0.32280868676766344 0.6330079123014324
Ni 3.52409498182678 2.8249596441076634 2.5627154528732357 -0.0631663482458396 -0.42296806729808445 0.5213089065625279
Ni 1.1321539818534478 3.447288538908775 8.109065245878439 -0.6482306427884578 -1.0712107942714004 0.6764240745035383
Ni 3.6416207144400143 2.522828316070709 7.283810701229285 0.38938663179821326 -0.7209108440620036 -0.6074855996606119
Ni 3.8674622957995313 6.77559190494587 6.145740094179027 1.3701609292539114 1.4787028774210726 -0.9048200534165707
Ni 0.8985936838475628 7.916783538586082 11.520146069108305 -0.22459871665412934 -1.4407071149035897 0.17000494056864915
P 0.25148965755356856 5.482183371803813 7.954566724556404 0.08577688655650388 1.1755952686267626 -0.34491348908650277
P 8.533528488050536 1.3792073036151988 7.75208071975516 -0.17926168328022676 1.151398616775901 1.5195271105262862
P 2.010174996964741 3.2676051550399325 10.256260833964554 -1.545845950926473 0.4049474623509477 -0.14970093890397446
P 3.9373250664320185 6.183865931340462 3.8802129086413184 0.026196455889709723 1.03860689219345 -0.5131225140969937
P 7.119503109698166 3.8912756470972534 10.289468991994275 -0.6440068345150974 0.3680634448404049 -0.07306972340248062
P 6.58168577719194 7.534972211345862 10.319373920022894 -0.4495316767192258 0.031196223097146276 0.16122230928001266
P 2.5333254081159176 8.524309539337258 5.9367138027537605 0.07923291479039903 0.26124593556351783 -1.2042892941273453
P 6.822049242365294 3.8375664326172365 1.6424540668532537 1.0437899790562863 0.14265354513888978 0.43112026409157367
Ni 5.2194478658985295 3.136926330408047 0.22302060118294575 0.7427222835101402 -0.6164644061204544 0.7722190074176765
Ni 1.5286412952950426 0.9408041407633768 7.126500264577005 -0.2453279787816807 0.7361104346205773 -0.11037128806641636
Ni 7.1129401609583285 0.4352694454770132 9.28323569693633 -0.29968855581043224 1.0484416188956844 -1.4154421696892139
Ni 3.070145607526312 1.5221146059405088 9.59261618257998 0.2777943268405022 -0.3150107879897994 -0.6183775639827672
Ni 6.4093086594616455 1.8931840902847252 2.557407985349514 -0.36171436269392543 -0.4076916007549882 -1.4303077739471368
Ni 4.247850442166609 6.803738252787296 10.66734889538302 0.29939853537383926 -0.384701310507402 -0.9116820706437266
Ni 8.265281555579202 7.069592065828635 0.14019056788148546 -0.5834617259421887 0.7692272717792042 -0.13772396904775636
Ni 7.708899417797859 3.8421985690896903 8.076069205252741 0.6886761523980139 -0.4591609722788737 0.05812004407118377
Ni 3.0829904947698874 8.763648676875803 12.347667731823528 1.9507491903030467 -0.5624825525873602 0.06637251388796313
Ni -0.04798838996384137 4.8701158830434395 10.055791757470786 0.7557732031568275 0.047556152512408426 1.1400245706110046
Ni 8.785422437750233 2.235200742154941 5.623366540357966 0.07195232196858575 0.2281401541484845 1.2849198605962193
Ni 3.352007939178909 2.887362046214066 11.821234033333168 0.4199151394043735 -0.43057493311106493 0.7368066893566536
Ni 1.040662487887742 3.4304823138208502 12.869856362779544 0.17535977712265927 0.5688424333671172 -1.3205226974014936
Ni 3.393089822727168 8.566306972364417 8.152236576504782 -0.786196295533375 -0.6303655895825788 -0.07078375558178131
Ni 5.51658446361 7.936254828493774 3.4907381603173175 -1.6545344519738279 -0.5570384987536535 0.9763504573563895
Ni 2.965274400383812 8.39621419590821 3.43291894451321 0.6021850133833048 -0.08641734835398021 0.7634433181075755
Ni 3.3377489359085177 4.244387670870176 8.798023480627645 0.9352233482987765 0.7933089953187563 2.0704684952432664
Ni 7.069184147743977 5.92048682134605 11.656162275256788 0.6989646788082156 0.1678434141409561 -1.5728517900913557
Ni 0.29890605571425566 9.074364414383234 0.5639141185934021 0.517160174501477 1.0548547215108801 -0.7648232291742377
Ni 4.595487298758784 0.410807051182368 1.5504059913231472 0.06943238376020945 -0.14297313326183764 -0.4277893999461278
Ni 6.003276062839046 5.49095814304713 0.6053848840490356 0.23239378721851592 1.3593594677630332 -0.34846443966255475
Ni 7.872855293291541 0.009805444270554261 11.407346747369312 0.985874851907057 -0.9559083874519536 0.46558178820355295
Ni 0.07293484705228116 4.730743870785169 5.8115763186808005 -0.07176488854812801 -0.0358072395065964 -0.18957592072204127
Ni 7.567233999419176 8.630341046809452 3.0048886853119336 2.12120947324156 0.8203382315224067 -0.9027276896639163
P 8.520565757804727 1.5146723671070752 3.612345793231033 0.07680039408950644 -0.5624609553208054 -0.9516951207015546
P 1.6826167749840826 3.4879171801407467 1.6418838880193645 -0.6663224672931621 -0.7915575598452883 -0.23764475120481007
P 5.040462475196769 0.9423632943314042 8.415341021655522 0.08184464138163323 0.2676634090540874 -0.20145441732718208
P 8.697620336239105 1.802952609958297 12.497721758992054 -0.9087443281716414 -0.5935931579492357 -0.24189349917883504
P 6.482525423234657 7.705599813735288 1.361161007549913 -0.7064825844518156 0.02772291983656516 0.14440060973698357
P 1.8621097970800842 2.983358768803665 6.132034953019139 -0.35499889834696285 1.1778748086895585 -1.2044340472353257
P 6.935223848742172 4.05915660104998 6.021929703608156 -0.2723749555971438 -0.28085316827148404 -0.5706542897648753
P 2.579411086835986 8.36841231222716 10.211656351134113 0.13662430822567437 0.6278392236162994 0.5816375282492563
