# total energy = -381167.26322073495 ev
CRYSTAL
PRIMVEC
9.26995811496057 0.00000000000000 0.00000000000000
0.00000000000000 9.26995811496057 0.00000000000000
0.00000000000000 0.00000000000000 13.56752072296885
PRIMCOORD
 96 1
Ni 3.0388313006472534 5.4247516454246165 0.17259271409514781 0.13718403738388632 -1.4713402664084145 0.64304035683677
Ni 8.207778453472809 1.6612969933739952 7.251744504098917 -0.8363886001170499 -0.0708248932323619 0.9082959277803131
Ni 1.7353732282121574 5.035357787257698 10.236436468702456 -1.2317219364170013 0.3399659152732403 -0.3670136634196518
Ni 8.887868926367538 0.8665547522272476 2.5025966718691577 -0.6837717731178611 -0.7868203022706192 -0.3439516393938657
Ni 3.159906222837372 3.3477619228743336 5.131521551159668 -0.09869899393481067 -1.0005008293503481 0.33644401816291086
Ni 8.345112882095933 1.202109620991518 11.60698678957513 0.22577679612263052 -1.090163424114503 0.7892451096620278
Ni 2.6355325053939564 0.38321913910476146 9.038017218013662 0.6310713574003518 1.201993299004317 -1.6493937883131529
Ni 1.3608669226857202 2.3124373872548865 3.4225426745248724 0.9949878699519188 0.18149185816232616 0.021372295028189
Ni 8.956698364945108 4.261853947016683 1.1946148599019606 0.9345193802532163 -0.04620143825672688 -0.5375173980015905
Ni 6.023767065147706 5.366480689074637 7.1171549100566445 0.3815730492910654 -1.3730619049507902 -1.1695768303468246
Ni 2.7070038820179376 2.791212181013041 12.494424903314505 -0.5511383312191346 0.4183691350734924 0.38701581757319153
Ni 5.247602746944166 7.263772274678633 7.701114990898411 -1.2397589477888646 1.4730883594477728 -1.1575659219288774
Ni 0.16656446037030026 6.9874162850659065 4.893166827608206 0.06956788089680922 -0.7513779023026091 -0.6746150463192575
Ni 0.9593572293375375 4.815112853767534 12.599247735038064 -0.15074069302239845 -2.279889732826009 -0.5977076943382416
Ni 8.40577548762477 8.722678273781373 6.267746799248512 2.595403685704472 -0.20019971898447458 0.7022662323776228
Ni 2.083126434784404 0.40489600902661843 12.363918725796598 -2.076174287378792 -0.033908994042619024 0.058478712962183155
Ni 4.747340190408529 8.015241424616768 5.03744445481646 0.7395770530129392 0.4706208932893572 -0.3102089957257819
Ni 1.0239224872086177 3.1941494479020913 7.608624911374661 -2.466298311563662 -0.27622184014705975 -0.6704303188139487
Ni 8.776453300473424 4.190308410728242 9.475990291381354 0.23888376581823373 0.2698169650619805 -0.38808873892239615
Ni 5.005415822731698 2.6468882040144983 12.252203680257223 1.6390751799959642 -1.1267389092456919 -0.8832793511313175
Ni 2.4296560068930497 3.21933592394455 1.3420757907071894 -0.648579027266812 0.26556436043321363 -0.5981095577623505
Ni 3.5680346662386704 7.777133281949636 11.765482678452107 0.32378184931421006 -0.1535452523507291 -0.2751301497447778
Ni 6.703913157790782 5.241475304668102 4.811354812770989 0.2147403358028108 -0.22476635258024513 -0.016797531173313007
Ni 7.60883719341418 8.286980975116816 4.201005942326695 -0.4660330168083587 0.6741771874508905 -0.42072220868670124
P 0.2983369141588722 5.704500439686419 2.88579819805361 2.4241903266500184 0.802647756221179 1.1348067738554908
Ni 0.35026165722262925 8.69819631455129 0.19062092852553927 -0.8740514047751463 0.5483126888448815 0.11650182644418645
P 8.740374623713302 6.537953098685836 9.259222519158591 0.01698625014535139 -0.1727953588295927 1.1316630860201866
Ni 6.896431646730709 2.801029066596023 10.583493501424577 -0.5549525627589024 0.7461457073693923 1.3442809761633556
P 2.9962636532468223 5.630359315141853 11.69863515690725 0.6877567259075381 0.720929613115081 0.007648003463561021
P 4.868118473940805 4.004899979618482 9.935617059775762 0.029650990097213455 -3.7677979308954335 0.8161866712478782
P 4.12828312136494 9.154667589222894 2.651568605837773 0.9570340164159645 0.8399135825511729 -0.2155422628788159
Ni 7.607845307902018 5.430702958497586 2.587434401016371 -3.8425915789675558 2.392497366422112 -0.8966719703881397
Ni 4.9985745936852 4.764174434241103 12.292390802428466 -0.9360142196311879 2.9087882509447582 -0.8008567257590273
Ni 1.3330663184710223 5.545909997237254 7.911086029873353 -1.8980235777745569 -0.815986382311614 -0.38148563178358175
Ni 1.0483024769000664 6.199859188409593 0.8417984022386609 -1.2849257741334903 0.45253549654255615 1.770321511739177
Ni 1.8055931604983644 0.9517187838980874 1.5956350994647026 1.2610050016518346 -1.0387462459847918 -0.9079984511445525
Ni 5.818029616017664 7.320513687949111 3.0332359539636946 -0.87450674714501 -0.1805240949324181 0.007883516513134809
Ni 1.122304552073768 7.177858303400933 12.215503916307243 3.2025085049868975 0.7987543347040438 -0.7245037036195845
Ni 6.480386659148232 3.710198743009795 8.423774965185181 0.366486073050956 -1.6406345540632843 0.8788771082985638
Ni 6.6493687245799515 1.899238276796089 0.260162299881931 0.3187982800566897 -0.8271002328365885 -1.5356543551054522
Ni 0.7457996435901155 7.965508099637823 8.03547218108164 -0.18464017398332072 -1.3225996345351803 0.5907328056823051
Ni 3.798226264724623 4.731581261710635 7.442205989345864 -0.2480309795351406 0.49723103967771787 -0.3349921162077327
Ni 5.86913489478913 7.067332593480348 11.466196520588138 0.38866132359641453 1.3818216534212913 1.0825961532902064
Ni 0.05138801249222289 2.2264121764804967 0.15064516139800938 0.8745620258629777 -1.0162382946902626 -0.559756669015765
Ni 6.896292597359845 1.0145598295704568 9.251733320043869 -0.1599521843183374 0.4074920831496724 -0.6669287334185934
Ni 1.1422442318556336 2.397313123230135 10.476065811486835 0.09416176818608944 -0.09501408888405571 0.33086652407513345
Ni 2.6363389917449664 3.3948811196810387 8.901107353469575 2.851327694834444 -0.45425350767492734 3.1102431824925723
Ni 2.3802378604880636 4.848809151306855 3.16471918506087 -0.0423812931796883 -0.08892417393623395 0.018183098666929975
Ni 2.3655449769667913 7.943556838957462 4.780353292039007 -1.129238278628778 -0.23829369764271863 0.13301447938722896
Ni 4.767882417464138 8.339958785415915 9.58880475394636 -0.23998496930221255 1.1699460407607851 0.8242473367688257
Ni 7.129014894395518 2.2206462625686787 4.97714986662251 1.8415924913700217 -0.6796767771128811 1.1528350921121113
Ni 3.369824423051386 8.572671812493532 6.878692654991713 -0.22161160900134735 0.8536116488635557 1.4642316803880913
Ni 6.163650732236666 1.2109902408106845 2.542363864940392 0.1982089138066909 -1.6604065944838888 -0.3900561470614121
Ni 8.665464092649957 3.768247220366393 3.6273308799498194 0.9912420297562413 -1.1039887600333695 0.9074731747687017
Ni 4.425876584887594 1.4170335985566282 10.091250385604557 0.1588959751396812 1.7857941534534796 0.18148774439726809
Ni 1.0500174191407197 0.6890100265377378 7.153950154574616 0.6792219489636496 1.3911634996475073 -0.49026000767652345
P 4.04820922366352 0.8078675747604822 12.205165132085618 0.8511793852729792 -1.3234334432903851 -1.2116665604280228
Ni 2.768853042178145 0.9950280279431251 5.530405992385942 -0.5297020157222296 0.2783008341632755 -2.1374786427152284
P 7.841513140659566 2.4925248624395917 1.8118883890152704 -0.14540771084525927 1.9383325618062486 0.6908086253599843
Ni 4.993939614656407 1.3096782142917354 4.538565903018821 0.45703672684701935 -1.5991963415231556 1.9617828224093892
P 3.043262340598779 2.2709543249471933 7.161208531733705 1.2233110866454868 -0.21785497017239255 -0.020598907197274204
P 6.954100055806945 6.429763418195761 0.5047501432313134 0.1408100641722478 -0.8377155464585895 -0.21322364204796826
P 4.690163089109344 4.60207994764617 2.829777987520012 -1.6389605087949708 1.417187691625411 0.9218150453126704
Ni 6.297471846755964 3.3694350848129675 3.3177068648600314 -0.5630625934605464 0.505701024821942 -0.8820850737129002
Ni 4.923117135096457 6.147901073496828 1.1789310178643324 0.2764761222497109 -1.6816817018125814 0.4602776023818202
Ni 4.062012191211264 5.4278200015416775 5.084305946789164 0.374745999066903 1.1497963052857876 -0.6204059072667057
Ni 7.660007361892049 7.98670849371552 1.888585240996312 0.011114364745606665 0.27718677516349033 -0.7284351774635067
Ni 2.6274305620516274 7.751872646242718 0.4335939451812903 1.0517940803076853 1.5952851793942073 0.8088430863986135
Ni 4.891691977281243 5.95028410762523 9.671132178451577 -0.54661396098622 1.425595713183448 -0.5951075377112331
Ni 5.19488449547068 8.185799382918274 13.938456327718043 -0.7699577221873255 1.3877886696380035 -0.038539550836094914
Ni 6.452586054933535 0.3042613443534748 6.2573134614547 -1.7427222619646696 0.022226415498368172 -0.32895285199218827
Ni 3.899352237174819 2.3256378075288877 3.050928595912402 -1.3682400580821146 1.0574499930418821 -1.9281044563203376
Ni 7.321737322412711 8.314327351386693 13.150048248912043 0.6125254760773644 1.3247236228567187 -1.0759267116898308
Ni 4.861110385649271 3.6198908116128012 0.9542049866491318 0.24184413399813834 -0.10464621265718108 -0.49100537048298015
Ni 9.304442301559297 0.5398165405715463 9.467999587535717 -0.4573432023438446 0.5648561950258596 -1.1585442266817467
Ni 4.926936357816183 0.8588986938674881 7.792166372931622 -0.8182504957554424 0.7499895065955148 0.30018760693403784
Ni 0.6278857770976333 8.000418761682688 2.388345365805227 1.5663196453997925 -0.5758018954040857 1.7070896003627245
Ni 5.374944160781212 2.9963100030371104 6.343073551428642 -0.7590588158866347 -0.05582430605847161 0.063722992080258
Ni 4.378850087661465 1.238725955318979 0.6372660476561036 -0.9651725863626991 -0.03662510742220144 1.820302471642994
Ni 1.3422435769480319 4.864651509627269 5.466937370553075 -0.14860899139137632 0.6740596880364198 -0.14245402753357403
Ni 7.178062242478201 4.362572041312345 13.025904970604863 0.4755059892958004 -0.49001061066987867 0.3910804745608684
Ni 2.7896919078915965 6.992857750445709 8.839673487430348 1.8647221354089498 0.6211173315114336 1.1538445072132322
Ni 8.459504164526532 8.133016241738385 10.987534820318285 -0.2333191272462627 0.05798094739015821 -1.2777539389753996
Ni 8.166267581290944 6.513081801217336 7.154479469179705 1.4809891023520882 -1.4459215692249936 -0.17925576974295582
Ni 8.4944797162778 6.374755487082051 12.373999805184223 -3.211792501391985 -1.9594153506184773 1.0620849207107321
Ni 6.912978521863498 5.209271470376051 10.707405957776121 0.9900048149150305 -0.21780997586707004 -0.6933187933763478
Ni 0.47858568661377954 2.5517598944275606 5.488821887535422 -0.9575302393260927 -0.6973088883723475 -0.3173579480657373
Ni 6.110135264370227 9.538230643771593 11.33818674277514 -0.22232817545239777 -0.28882950160874127 0.970944970070102
P 8.830126357626842 3.249324238260838 11.724874700185051 -0.03418615896340564 1.305031800854746 -0.07871149506929026
Ni 1.598557917240259 8.355411805497909 10.34580436086165 -0.8993389756973414 -0.8526888799389701 0.9988134143455959
P 2.7309389137226225 6.655106828617596 6.726912850727456 -0.13834077669614883 -1.9398232874191623 -1.8038998619152544
Ni 7.13280630724107 8.130652402433702 8.686008173697177 0.818663672033461 -0.5863166788924805 0.17635402271512854
P 8.201493421909767 3.7889841165412106 6.999050082428175 0.3027831355753559 0.7330647058157181 -0.4453137819831363
P 0.5154402588633206 0.22125906690166375 4.317850055659332 0.779296225979432 -0.6502600145136607 1.5038132993354552
P 6.575839417267186 7.086039368840554 5.912033479692217 -0.5100562164668442 1.8904241681607445 -1.253781744430518
Ni 3.352508141399817 7.198993807772228 2.8042568659916745 -0.38735237497700387 -0.4190664182508331 -0.2552668351619475
