# total energy = -340886.04744269507 ev
CRYSTAL
PRIMVEC
9.13304703898054 0.00000000000000 0.00000000000000
0.00000000000000 9.13304703898054 0.00000000000000
0.00000000000000 0.00000000000000 13.36713752409511
PRIMCOORD
 96 1
Ni 6.638446697627155 2.0042928762454495 11.220388714698549 -0.2607718241405767 0.6824872499784826 0.20268186197638
Ni 4.856881443778088 0.23091083269970472 5.8247972209444985 0.6945277260827846 0.8997107572144634 -0.7039112241802135
Ni 3.2807001556669038 1.8433503182486062 4.614870305495057 -1.539209162336246 -0.4661250623015327 0.5439184164319277
Ni 3.644907812448094 4.306396156029718 4.288966648727416 0.5393670496158195 0.998869464394512 0.16636014472721028
Ni 3.856511383338394 2.6687768593131125 2.3758754686515657 0.27388779269724445 2.06288194114526 0.568030478988783
Ni 4.936512482432864 4.941672654108509 1.9225155714954927 0.6010110476798617 -0.06211630971477044 0.9723984146871769
Ni 5.531128654317015 3.28358619858638 0.3276782078412299 0.6084340796168102 -0.2913489255964853 -0.8125099937272394
Ni 5.902350491358197 8.29796704156181 12.307805848130405 -0.6689825306238285 -0.4182297812821507 -0.13962247162204985
Ni 1.8970069706281008 6.865549049638818 0.3590730576377428 0.8173984321677922 -0.4268074956488327 -1.1584773779995534
Ni 0.653623876626053 0.24564517776929434 0.36329617866927955 0.5402466240072953 0.483001012121265 -0.40164308056806314
Ni 8.2673165351132 8.8969305439196 7.083807872033619 -1.105655091992199 0.5494825407832665 -0.7480969175584923
Ni 8.708415316385107 2.554175382877725 1.0824268364343839 1.5862480088926034 -0.8928063167851463 0.900569505670333
Ni 7.264453152784212 0.9844968243825761 4.802919747621661 0.22953163517937245 -0.8902236436596346 -1.6419005652599012
Ni 0.657046029416963 7.722941255950683 2.1752744797394064 0.037633236971741646 0.05173882313518832 0.6843091336785698
Ni 8.024322680949993 4.4983910745525675 3.841822703504872 1.3774132399409502 -1.8512953204800826 0.42105388099450713
Ni 7.571195676497865 4.240190696778832 12.3530664902065 1.2640638430828166 -1.46324951898048 1.1996764779456823
Ni 8.71044285286651 7.657375110004744 9.139686938855254 -0.880771239997483 -2.7841684233791275 -0.18104371488131402
Ni 6.981283023928683 0.9845790218074979 0.04559673821355361 -1.1066537084600425 -1.0009240329306954 2.4271303831149487
Ni 2.0895772711254024 6.496199487276409 9.308673884837777 0.1314975285220703 0.8451738025088478 -0.24279389950591737
Ni 0.30250752972073847 4.988296860133585 1.1316521343058732 0.7311312362384311 0.7348850468539087 0.7764564425377918
Ni 6.986918114059431 1.9982011337540244 6.762662532864227 -0.1333294395244865 0.5259500048789653 1.4528218958892527
Ni 3.4086632801756873 4.5155612033140065 0.06723384036712994 0.06365305807427102 1.4346058871018583 -0.04756309449094389
Ni 5.83785291193624 5.309533529775112 4.7432617699181545 1.656925577913824 -0.34784274691815575 -0.4598343441968145
Ni 5.541896516981768 3.077425923835344 9.192834880504956 0.4017577517690564 -1.1162796615855808 -0.6082754425517588
P 0.25811544043464957 5.650360585689662 12.374614088497385 -0.2362512132913931 1.9180840959698582 -0.34284966457893856
P 4.22466451651583 6.594014422933328 12.697992457710484 0.08665131874165723 -0.7273835962705408 0.30471120583600425
P 2.65312281638912 8.54472371117699 1.4710398219795715 -1.5171778935678193 1.4234293016597486 -0.1794069506088394
P 6.878499710587605 7.901930715241464 5.672318257800433 -0.5527660966305448 0.05975500857144548 0.8714021400777574
P 4.961893220639268 1.3323380605571185 12.65048508601986 0.8039983567118025 -1.193771168204841 -0.6996506491316467
P 4.393772018721569 6.193758628800331 8.42931669997737 0.0859082699280456 2.008518278792715 -2.3821617888240585
P 5.176492431015606 1.1947487042852736 3.715850583288639 0.3208039976328088 -0.3570503815593528 -0.4052945612777213
P 0.6113433478557325 5.928544070766604 3.4412490793288444 -0.3120355074115594 -0.663490911381638 0.7663859456756672
Ni 0.8287564500785598 0.3034929855150785 4.518760509752906 0.37913692904574703 0.8369336739872424 -0.010842856251774873
Ni 2.094700910612193 6.786420328580785 4.9783628446794275 0.046982025176493275 1.1229079655353758 -0.8585350543071022
Ni 6.534010302740429 6.176524568708397 8.919917510451338 -0.007136611044781257 -0.05660515008855412 0.6913249028747708
Ni 8.929416792858131 2.645788979476655 10.139481617320497 0.07673637362079043 -0.5454885891325251 -0.016068623427088456
Ni 2.8083754859719336 5.470055967600132 7.154493090942742 -0.14759751940772645 -0.24487854994908795 -0.38032323604436435
Ni 1.0427382664632634 0.04484691503732271 9.170190403243728 -0.9559819210023663 1.2810475221250066 0.05184706657827845
Ni 1.4461175627432878 1.323542936090488 11.522339128539262 0.1711010018463053 -0.008814512967836433 -0.06472983607821756
Ni 4.420066061649326 7.401202268712412 1.771372773158768 1.5813955658963088 -0.31269653803432595 -2.2782843360121023
Ni 5.4839747315535545 8.03086194275488 7.6111810705034255 1.8314410047583167 -0.1751728579228338 1.1435680649878885
Ni 5.414243916078244 2.857931400152553 5.165997646462537 0.28650830967473234 0.5798596104132272 0.022897216313147662
Ni 1.0864033651911553 7.8848793160938015 7.167352421419394 1.4487068452796146 -1.8390751242648071 -1.2413224356212427
Ni 5.28048130658887 4.748389975928552 6.939776977562071 0.7964537115953252 0.12380967295950936 0.9222523899604052
Ni 1.0584471076705366 7.787237908333941 11.442416745678372 0.2758472304164604 0.4774253178057004 -0.5639210848060998
Ni 4.8440495124430765 0.5784232791745599 9.916317435267308 0.3374305504458963 -0.9279314426230534 0.4760775455285543
Ni 8.608691573860561 7.53432556489684 4.318347661613346 -0.3331401506006585 0.3992344711265705 1.3762390171271912
Ni 7.631144998407483 5.964336482796432 6.738013351739628 0.4494784548837872 0.7762839215156695 -0.5576907876256718
Ni 2.545955640385547 5.805330130808856 2.5177938893026246 -0.10779015760280146 -0.41902708037246544 -0.27990340276370507
Ni 2.3208625587608616 5.804964808920316 11.539543049575391 1.0019234207294874 -1.1415644042942985 0.10992982965362358
Ni 1.4730509189759908 3.5826478295934527 3.6094478433368384 -0.9593228124501415 -0.10454773940610383 -0.07355874722375719
Ni 1.9486726187150456 1.390360309504681 2.2628558359935624 -1.3325755148009695 -0.6640897213079014 0.1810761107811462
Ni 1.4350117773316342 3.4434784561536675 8.25137388789726 -0.9087389288550026 0.9571715704350934 -0.28352068780131817
Ni 3.740192894026863 2.969729031093386 7.29444699313817 0.2319207042368393 -0.12561638715094495 0.7286110409197387
Ni 4.3714051860956324 6.907908122615176 5.721856819191347 0.19388328984814351 0.4869638534237548 -0.03297774047760127
Ni 8.507497410734638 7.464128964013642 13.129309745416698 -0.350270639633358 0.587169256700763 1.1151836003079245
P 0.48866551776941985 5.805394062139351 7.984110787373537 -0.308401767313714 -0.36867151073804894 -0.4002336018150462
P 8.956770269262655 1.792579708788587 7.900406409661525 0.038721584939913956 0.18803480148716648 0.4046774965190127
P 2.144448618784297 3.3821591771620203 10.337476034557914 -0.6347740030629198 0.3501076316929326 0.6397133493460659
P 4.4661057526527355 6.343942457179634 3.5515415840888878 -0.881986857572139 0.036520463523537106 1.0597665569902006
P 6.890190011020925 4.392648653914305 10.302680951283804 1.2812573241429677 -0.49714979281782123 -1.061992875217558
P 6.896574011023183 8.179748878429864 10.00899229195245 -3.0383556523236512 -0.39358112949553503 0.10208076592285001
P 2.724634576071068 8.900245840058112 5.654660424317792 -1.4165847679340895 -0.7449761125413235 0.760513031834658
P 7.50672549621755 4.164331606623244 1.4856234717701375 -3.6504872353967066 2.3789286265987415 0.18554185986198368
Ni 3.175578782239162 2.1951370308193936 13.358649693995677 -1.9789986720670434 -0.9719744397758809 1.3260999343789548
Ni 1.8842298375763706 1.2595294081708492 7.101947017104412 -0.7746499854566724 0.2848275795381998 -1.8126632099301814
Ni 7.110269049725382 0.9881226441263479 8.8857115087225 0.07366879043906023 -0.2852775225914248 1.1122692548746071
Ni 2.656291983772215 1.5385440005442217 9.291497362943288 1.9941463263417591 1.8575500431405427 0.7182741777701049
Ni 6.2674257876246715 2.706660739154839 2.52692328329727 1.2647217883817896 -0.26926289233072337 0.7395346298107779
Ni 4.356764911412342 6.969519659117655 10.506716879252972 0.5055578143758584 1.2982515447081189 0.10508921373187063
Ni 7.279650543347528 6.382018131012845 11.408597985151388 -0.17680036622392778 0.5220061897398688 -1.2126659482268145
Ni 7.819523230233774 4.037099125891543 8.282759604646559 0.5680057963984346 -0.2173628610273224 -0.4211806363803585
Ni 3.219645735044449 8.825400518143226 12.531611170097982 0.47920374986236186 -0.24423474571750192 0.1154096218212722
Ni 0.0903331433795926 5.101628843006291 10.24500210491147 0.10410988053773683 0.0407859236681104 -0.542229201654963
Ni 0.14185814253944917 2.645788979476655 5.73797756082795 -0.1475008459288621 -0.4812284936018744 -0.3514068101203303
Ni 4.0258654778189005 2.7487640868092167 11.345424697575394 -0.08195982680325885 0.25115384143483843 -1.803490799402294
Ni 1.1789850647947193 3.747334936947844 12.397218380350873 0.011719859540089493 -1.476928302019153 0.016356586981152475
Ni 3.224321855217777 8.589822698317407 8.042378715291145 0.8589227766638239 -0.4282239163803851 -0.5399285785462443
Ni 6.220856379882877 8.122247213173473 3.5753888836681385 -1.5419535578506023 0.8828551191097054 0.278331687401211
Ni 3.4376150398425804 8.670494904354527 3.6106908510626003 0.3908580741374172 -0.23827492858964128 -0.20849872576847317
Ni 3.980227640892885 4.666393478045471 9.664614307281278 -2.1176641790924626 -1.2766121120614724 0.4485019499031308
Ni 5.279147881695693 4.7294571690549025 11.566143049584799 -0.49907220665151464 1.09768750040569 1.6392014211611836
Ni 8.096866474967069 0.35719895634952625 2.3864487974106705 0.3045003753767788 0.12086447428825635 0.13357009478038287
Ni 4.602379950125831 0.7174931023997181 1.4656129653252912 0.6972929475327475 -1.1341462574533565 -0.21397671816390892
Ni 6.507953719040224 6.113406079415684 0.3998694662358645 -0.7371494174080531 -0.5666294848761982 -0.329038212617143
Ni 8.31783141925124 0.09655000861784316 11.117542383331696 0.6384391106193327 0.3216015538334397 0.6023529064197368
Ni 0.8626811539532208 5.033021392338246 5.790831418357376 -1.758922525873616 0.08489216995870541 -0.09401932907095421
Ni 7.323260843792139 6.303912311242729 2.791138685965837 0.08805848350182899 -0.2731663411501876 -2.2493676529777518
P 8.79957226062336 2.1669798462600776 3.400786940258738 0.3254486954936717 -0.6548959706237754 1.1167013225040316
P 1.9821452367526369 3.5135563274230908 1.414029514663268 0.06585752192475754 -0.2627942538872442 -0.2406845664723984
P 5.0352407228111336 1.3382654081987 7.806702258555418 0.6811546472099882 -1.007591417648542 0.4066364200175964
P 8.569903522344696 1.8120330993534082 12.493835973518097 2.141358437385609 0.9211599282271749 -2.8508790373327995
P 6.805828053909539 8.079568483544643 1.3135440760011143 -0.26455391689082824 -0.024303866852687178 -0.5633389870503847
P 2.337165048037015 3.508752344588774 5.849138618378 -0.6281590688495633 -0.35520972880618823 -0.20213241723081316
P 7.3877401571196675 3.8839379241206275 5.866288654435569 -0.7947333864701087 1.0987095139123013 0.2040239778265712
P 2.8090695975601623 8.630483024512046 10.177671454243875 0.37482750303711576 -0.35219896700432246 1.702881218708332
