# total energy = -340888.1760763276 ev
CRYSTAL
PRIMVEC
9.11332604670445 0.00000000000000 0.00000000000000

0.00000000000000 9.11332604670445 0.00000000000000

0.00000000000000 0.00000000000000 13.33827385846910

PRIMCOORD
 96 1
Ni 6.5241752869895935 2.311658891919641 11.271214671063884 -0.3190355928784763 0.13745708853961489 0.26820205516637685
Ni 4.627300307230194 0.34410460229624473 5.988471210956736 0.546719890436465 -0.577563615290199 -0.9810728025327234
Ni 2.728128769359789 1.3958060985713152 4.829575130852655 0.587439222532698 0.4577157551919149 -0.29898690175771736
Ni 3.644902008617685 4.623272217210095 5.03574498993799 -0.2704545986459794 -0.8190966458058215 0.3505197795296867
Ni 3.5417938400941322 2.363103616271369 2.584744257298156 -0.32827665186077015 0.2227135838162745 -0.13241361257843648
Ni 4.7907660327743855 4.1486319809502685 2.8213380433588338 1.5380089713805578 2.379184708473606 -0.13190761947629542
Ni 5.3189106050251755 4.5565626720808385 11.724208935794886 -0.03206577018629316 0.6481429681706579 -0.3782804945827227
Ni 6.0121521881450395 7.853171593847442 12.221099357086553 -0.4082821831511355 0.12185614877756434 0.06357746764132922
Ni 1.937684452858963 6.838065568804754 0.09701682153388129 -0.12990858676839562 -0.6972965470771733 -0.48096315575562976
Ni 2.8806949572025324 2.0929937517787423 0.17384306967515775 -0.6806332274888794 -0.577334015777896 -0.08374237262497836
Ni 8.02875804275528 8.803873745197718 6.822447150984738 -0.32498461137305973 2.0400297191374346 1.1106610298472226
Ni 8.803983105107765 2.4367848556661826 1.3043055731667696 2.4196397311648585 1.0329049567126662 -1.3155437561296632
Ni 6.914708639096699 0.6781216642231489 4.619564004926885 -0.0830332623730957 0.2857449491461466 -0.18064056590562438
Ni 0.8759409828437383 7.614147283785948 2.4559492685695044 0.13200017919010168 -0.4492100317137489 0.0008530920289146598
Ni 7.9109865329594635 3.71420885161058 3.769035531180542 0.028784014111227847 0.8281587560080899 -0.0044662633014697275
Ni 7.423915720257519 3.959721849668253 12.868486329923305 2.0974712490843554 0.6059614497066016 -0.33967923727075694
Ni 8.480851910893552 7.192428130663497 9.107292815625785 0.3416998672452115 -0.2557949397512756 -0.30976522332014395
Ni 6.689718850824695 0.9836012576230375 0.022637501379927965 0.8617985555497223 -0.24019862797491534 0.4457621823744646
Ni 2.2503626623377584 6.501264385834546 9.310301261978152 -0.27702633832622614 0.6378608695183595 -0.7480627218864472
Ni 0.022082499836434562 5.178410460591057 1.2963505510433644 0.18514076776882307 -0.7547229075154421 0.7900030708739749
Ni 6.556746313532211 1.9714493250862708 7.0145715522895795 0.5562237161618421 -0.23166462236197521 -1.4874495132654513
Ni 3.387742180139904 4.519125129541087 0.19732355369503876 0.29672175987262445 -0.456348185420427 1.2670231828214567
Ni 6.629106120680612 5.798690757057257 4.452902236011544 -1.275741793641377 0.13779133195058205 0.4733724878925654
Ni 5.5768724061766415 2.8669885151431878 8.922344247085258 -0.8065442630621077 0.15829048034519838 0.9841846086888274
P 0.2223451011140123 5.730541306445701 12.577444978647499 0.4362814965775389 -0.81089148428721 -0.3671111082294645
P 4.159513292000041 6.301810136558739 12.612484805159449 1.0083897451801214 0.7540801317251206 -1.580960278131103
P 2.442043244674322 8.65282036944397 1.0838031865370656 -0.2839744875092851 0.35456772434681516 -0.4091154776857083
P 6.505684348865651 7.751485104154513 5.519750991160841 -0.8593596070909264 1.4567140318548073 -0.003859225845090127
P 4.7572836736480335 1.5667994312571398 12.608469473795521 0.8251683059211983 0.41436669878231863 -0.2355547014450008
P 4.164726114378993 6.397190204772236 8.028453657672314 -0.7012964122651857 -0.2557242344143402 1.2503637198879047
P 4.846348207056261 0.9277912501952279 3.456360055699497 0.16158354927417334 1.0680146559316057 1.3221052113972651
P 0.13029777615922708 5.855794856753967 3.6831907357906437 0.5916933698233615 -0.1768996108059534 -0.8256002512522942
Ni 0.7680856828915203 -0.01676305154518498 4.686042071579873 0.5041887019424736 0.9274964119681639 -0.7679946849236838
Ni 1.9516096147384032 6.593883116319332 4.807981105281101 0.35954666561864534 -0.0848811142151119 -0.9313165570452026
Ni 6.103321899821689 5.980419587579456 9.14965519944803 0.6498905469893839 -0.8493585300141566 0.6025159143601623
Ni 8.581781994541982 2.4007781052828916 10.047735184748396 0.9612524253726865 1.1390732624413284 -0.025357504928182135
Ni 2.2648619637449507 5.440518824998509 6.9511209324797525 1.1467503193706123 -0.18124400381757816 0.6651593002229964
Ni 0.6722991603456787 0.15186719575101995 9.28630587504846 0.19344311698693137 -0.24959163915404112 0.03757101627523852
Ni 1.8267388241153062 1.7150732426305004 11.12105257857703 -2.020409630913662 -3.128359689587625 2.0491486507195678
Ni 4.0824145554162286 7.121335075806486 1.2037591605360907 0.35731211986117173 0.29102985169416973 1.460860707033329
Ni 5.7180013700935355 7.991703259900696 7.971325863328427 0.17229090838934843 0.647569355055375 -0.6815236005136327
Ni 4.955288904115705 2.747695079932537 4.737434849974329 1.2173795516524002 -1.064154144534935 0.5437631218009861
Ni 0.9596240973450221 7.579981425221797 7.122797764603377 0.6061375702731496 0.3239731393894098 0.32531474101896873
Ni 5.069724936655058 4.617640181842625 7.174017389806924 1.3462877221807394 0.12562615734295784 -0.5182878603480171
Ni 0.8257001288351213 7.26147068720711 11.157252531468073 -0.3273585109218749 0.9650635715886605 0.008974178474152288
Ni 4.996526703529624 0.6028209868270415 10.522657022776595 0.08349708938339168 -0.020304515885306965 -1.0167162627679458
Ni 8.593137198535295 7.409088339120183 5.130487125342873 -0.09622662113491814 -1.942849732950312 -2.1389338871045163
Ni 7.519942834605466 6.451560306717748 6.943731847890845 -2.2295220790067343 -1.2775616204589353 0.42283051327895566
Ni 2.479134480832256 5.612232110425483 2.4098795837966334 -0.2390066645493432 -0.4982594809422322 0.4536467273288639
Ni 2.6838653457678765 5.237792891747101 11.415854999425902 -0.3195097043014175 1.2486436518730044 -0.12521349528557144
Ni 1.39742827057036 3.1951411518937696 3.730915400535574 -0.49141828965068274 0.33942804049189934 -0.8283945261679797
Ni 1.6495028632309103 1.080849557633187 2.2519811890064685 -1.6568690136442754 0.4202288139900504 0.48717931186867064
Ni 0.9540558552584134 3.470591425327072 7.830339978627179 0.2297352665497463 -0.5402484237795083 0.42358770315995437
Ni 3.6883452328842377 2.785788781932576 7.170989031631178 -0.5357155689061613 -0.5144600019614946 -1.3065582648016014
Ni 4.417174353398875 6.799452407231986 5.864905448593546 0.3282748520885573 0.9835256349485899 -0.036978119886246
Ni 0.7507566938118372 9.091089322287013 12.732195630693449 2.3679798408967216 1.3370600329348845 1.6232269001097983
P 0.13883969646655658 5.617435819478598 7.641616670524828 1.7861265970922335 -0.3361632536976985 2.3416987957130058
P 8.701804495819621 1.5220894546991983 8.004257777574203 0.08652996267244452 1.1622571567569595 -1.618616140810664
P 2.031278309208343 3.5588904393649634 10.297480411324925 -0.9640469573986882 1.0865129718461093 -1.953412596067823
P 4.247365753071903 6.141424715147567 3.7523235142600457 -0.36962384734898923 0.9081023237122684 -2.084813708221345
P 6.964157545090053 4.146490349378496 10.131739088319152 0.45601625600230494 0.6008449544156427 0.3460424604846234
P 6.75984589314295 7.978379577526519 10.113839605042054 -1.6790843733990501 -1.9507620458188533 0.9467470326676598
P 2.6037956649610945 8.356117820158014 5.78787688461868 -0.1446788030990347 1.590343776228532 0.028335099499267328
P 7.02267421029155 4.24095908500826 1.7938506538335492 0.3312863852213714 1.1690386984551673 0.07352069489697015
Ni 5.546306311318237 3.3179158775742805 0.6262103375885492 -2.5629849030541343 -0.7993711423524363 -0.8571859964783752
Ni 1.5541865882982748 1.03899205206233 6.968474527539197 -0.23542717472820102 0.13642093396561666 0.20874863699575016
Ni 7.067621133321262 0.6696726998393602 9.20359515241402 -0.1738446260297135 1.1192713972240529 -1.1184239616220932
Ni 2.778534574566062 1.809952077922944 9.072039737289241 0.47797424833063495 -0.8389203653999682 -1.1755515598730206
Ni 6.843068784689448 2.112386909160581 2.2112455338461867 -2.2833694638444935 -1.416222242388348 2.121409762177824
Ni 4.3989659283758895 7.414528994645069 10.37781711257874 -0.5633245888726814 -0.8282618572448575 -0.19285459147331302
Ni 8.285626244806267 7.5546919460232065 -0.015141790878723959 -0.5437582367049797 -0.69345480473358 0.6437468959854913
Ni 7.6786605173884075 4.038789064632929 7.953412710062571 -0.6025650224305429 -0.1349651753556966 -0.18756351827770276
Ni 3.593639550782703 8.883323719847562 12.288298287813273 -1.3651475351997198 -0.9039124540006369 0.9693287746229178
Ni 0.32746093531952886 5.083723005141199 10.322236760962031 0.6729816244808926 -1.8539666966646586 -1.3281943550141384
Ni 8.874255960639418 2.2163608436386797 5.556618039503175 -0.1293969372392997 0.23233233785296117 1.038698423465992
Ni 3.897550740805987 2.7032676164755522 10.990110490281102 1.5298593456902299 1.1846692059035726 0.695438667932828
Ni 1.0755182620183488 3.6222827338894317 12.418866729749869 -0.934166624899488 0.22654607018848724 0.9035144472312697
Ni 3.2613403507761354 8.464529944318894 7.912823779448269 -0.5445578497881395 -0.10589988255862408 0.8004553765555504
Ni 5.5046492989158 8.06880199648451 3.399579479070012 0.5465995628085167 -1.7717932111886971 0.15746952710579978
Ni 3.002476330366774 8.437773219660492 3.3062781604800104 0.8396346178581733 -0.2377730492525582 0.4830166958505487
Ni 3.874029246819838 4.657018862785728 9.360319750836338 -0.0670487140193813 -0.6083273788356168 -0.26368616957389424
Ni 7.66468978887978 6.097279764791539 11.345521995943724 -2.41342074683834 0.18234160775713112 -0.28814507394720695
Ni 8.326162318130711 0.009402218266373462 1.8876723433288627 -0.5249953542751797 0.5739792403730501 0.13983690162570112
Ni 4.5611466749770155 0.43769663598045744 1.2634177254650047 0.19674569899760308 0.19423270276776225 0.3255649093565619
Ni 6.127517779919801 6.022905912633089 0.5026208805781808 0.5853561147514241 -1.1930831409988807 -0.08397222924759731
Ni 8.080184540455335 9.204823628736893 11.426965966286774 -0.6345228062840621 -0.34151449070728285 -1.2950273813438664
Ni 0.3184086687653088 4.875957402701746 5.612531938845531 -1.3618218132605966 -0.6245016746026342 -0.5109599592280362
Ni 7.618640153423751 6.685854800669667 2.510529888341858 -0.28698987729684117 0.31407953442478165 -0.8353953829658451
P 8.77556775514697 1.6146443919031228 3.468631148939462 -0.19539381295539895 -0.6493210476391592 -0.3727989026428612
P 1.8450839490258517 3.594313936894665 1.5195495707883344 -0.17055875618959015 -0.18350271794476786 -0.3960861553055759
P 4.810824462942349 0.9055064345252046 8.062732521476848 0.2334746789875205 1.6021096585152086 0.9747064939950633
P 8.55247353864913 1.9941961863762467 12.318936377945791 0.5820152233036493 0.05834013050178986 0.6918288390943826
P 6.380439911883223 8.119544994746763 1.2043287434009238 0.2664822442617927 0.138405054275181 0.13937847393204383
P 1.9666374890441605 3.4637837709265864 5.7947465096348605 0.5541233819893876 -1.5999879841865154 1.0374054156861812
P 6.69584300578738 4.05107382786165 5.712942562921233 0.1213766380379845 -1.3874629108674685 0.7895577558064403
P 2.379079276464209 8.600664805676931 10.426888726882426 1.0420675970485407 0.1430852333596697 -0.05171979697179479
