# total energy = -340895.6346484807 ev
CRYSTAL
PRIMVEC
9.03729210525821 0.00000000000000 0.00000000000000
0.00000000000000 9.03729210525821 0.00000000000000
0.00000000000000 0.00000000000000 13.22699049953692
PRIMCOORD
 96 1
Ni 6.332792044082258 2.03980719278164 11.308481953842946 0.7443405358398535 -0.42301640403751667 0.06635117373172443
Ni 4.808164722957656 0.4902920730295902 6.183207689493615 -0.9548583489208845 -0.2562721364980103 -1.8555006168106818
Ni 2.5698985963517074 1.537704282747724 4.722446007687912 0.7956852088604167 -1.1217355424938293 0.8132903235366896
Ni 3.5412900089188075 4.29212630855411 4.988784042238742 -0.23964429813334212 0.628958167712091 -0.3925064083741176
Ni 5.082591133909795 4.704452759179525 2.582874340303663 -0.42468350732729443 -1.0938640128945418 0.2187689973462297
Ni 7.201646340840131 6.035356687523712 2.5427831052293732 0.7553595126581766 -0.4578599940792631 0.7746764678192335
Ni 4.980325136862624 4.328293551412256 11.515695312494014 0.5984728546390403 0.5932455448018299 -0.1370760510511123
Ni 5.621638493919748 7.883808258046886 12.415567403089401 0.19961967811128847 -0.5108532584468427 0.592343858923167
Ni 1.833738859035652 6.382723082760733 0.3797415903432229 0.7956345581281394 0.6924788139735558 -0.35090827321735696
Ni 2.7502106477024637 1.5676357940786037 0.43678136296278164 0.436947412296312 0.13054981989682032 -0.14029070133366808
Ni 0.6636047416732919 -0.43744921884664395 4.463315213561714 0.39986721961456295 1.1348162869371876 0.5084155955396276
Ni 8.367890807696208 2.3719276762990975 1.3641394736553114 2.013763586352054 -0.3329720004539104 0.22811958532319426
Ni 6.777481037604979 0.6913284425518362 4.575626160743026 0.15303745947637515 0.632554883924414 1.1855945459313193
Ni 0.9881736639383086 7.193892344245357 2.466979203087983 -0.5470996423733868 0.03297671203633675 -0.09856761056326896
Ni 7.6486217692561835 3.8364208559998847 4.023253313578066 0.0910579324497851 -0.4455973746618261 -0.7389584455923338
Ni 7.54160215658098 3.80905593561646 12.79142566903079 0.5021181925666901 -0.11145269405605321 -0.9911816088319512
Ni 7.997289534551068 9.007595526765138 6.536474532722161 0.4509640382903782 -0.2513618436805864 0.965458235923918
Ni 6.990218892897522 0.5762855219782165 0.30187718561021454 -0.7444657485638082 -0.1087545783985998 0.5166986614840262
Ni 1.815438342596935 6.511043592841396 9.178459992987484 0.9466251623778149 1.003702367006781 0.22105856471135474
Ni 9.220116487048038 4.790288959246159 1.22544053736318 -0.2630781036762501 -0.2084059089443508 0.6779253416394131
Ni 6.511206264098629 2.061812998968443 6.996760084896703 -0.2920912030791486 0.39640934297294955 0.697399905424257
Ni 3.355456172114196 4.027559583248707 0.08571148543608892 -0.24954201686302832 0.284941993628877 0.9554149927553031
Ni 5.901912032840208 5.7396293791661135 5.004153764859644 -0.3520842958033291 -0.9636561497181726 -1.1273716577336843
Ni 5.310330894036051 3.003833212312911 9.15026002681693 0.14493565630484714 -0.6636660035069215 -0.33211248066709254
P 0.23187432124759616 5.586429204020863 12.210006965157662 -0.3060813467106535 -0.5181968432961075 1.4062242506353717
P 4.054129221930104 6.041393598625471 12.794666441966555 -0.5600268919580161 0.10135391505915448 -1.3125736177577458
P 2.4461419187656377 8.560846030650799 1.1820470757670598 0.007635919278702978 -0.8142699138411396 1.414798365457628
P 6.229495795739277 7.928569965662177 5.8998063437882475 0.14324104221124365 -1.0915543909247587 -0.032981340022027066
P 4.917967821589958 1.0948227476387036 12.61282166588098 -1.069842453168964 -1.2072344927985983 0.12028674740791544
P 3.834658584046527 6.2143764061086735 8.28569121395794 0.42277060657529764 0.5956901496875806 -0.3188419888104316
P 4.600532937683817 0.9332811519142261 3.8074689871292313 0.5871178346375372 0.5852147040775534 0.04177631260583773
P 9.070730049155696 5.480837483492484 3.60809819053521 1.3185416624157227 0.49149799384868265 -0.10579369599806294
Ni 1.446111327633454 1.0475486728283685 2.561988254604147 0.0559978555218584 0.9033712367851862 -0.10324701831680928
Ni 1.81009730298445 6.385226412663708 4.767787909454002 0.6378649832834176 -0.1349896008357288 -0.3896558262991999
Ni 5.875694848549483 5.618168173765444 9.302185040051313 -0.00889678826899758 -0.07237115467355923 0.15017942120228975
Ni 8.743290882929722 2.406251311575269 10.274051814181218 -0.13064880736852982 -0.19994389421992662 -0.8103893478398108
Ni 2.223219035311893 5.342594026720605 7.037142320775599 0.44956741505316766 -0.13916635792123774 -0.5133441431894965
Ni 0.46066602217062624 -0.061740971953593585 9.086016628689567 0.8482812377895778 0.759109466618912 0.3069426662696843
Ni 1.4006989349892303 1.0028863754258304 11.686919462940685 0.2689121938595239 -0.419903826550464 -1.3142746596092525
Ni 4.257197174709349 6.8284604021634 1.6034415452540094 -0.16128093043209 1.1665449854990362 -0.2657332819109101
Ni 5.49358910260114 7.7831780108641135 8.09904492459637 -0.6936831186943021 0.3278457349709386 -0.004518970916276089
Ni 5.468266610225197 2.8511300882314288 4.894197935991384 -0.2526710494103132 0.11346766760355297 0.0525705750078643
Ni 0.9202403394593773 7.579576857852826 6.914382456504685 -0.7216893740992409 -0.43449637965265814 0.008328060249721141
Ni 5.0092715833580375 4.779064642497079 7.091134718509659 -0.04720288293804773 -0.9698663922939427 0.02186748949705266
Ni 7.909718174407281 7.3659714225217074 8.935797856197716 0.3874639608542037 -0.4613739207697925 0.24654076814285927
Ni 4.6262169217425 0.19239400711713728 10.580917585013244 -0.3202599522038807 0.6841533248269959 -1.200677665516687
Ni 8.089469913649792 6.9820491808675955 4.93607493997841 0.14818038849438997 0.48438066607761093 -0.8784531333872677
Ni 7.106348095977776 6.249766441848927 6.994048897276153 0.65062665382446 -0.6324188725671819 0.5739095634773793
Ni 2.442382405265141 5.101271216615389 2.402100483328206 0.14047376387875163 0.011375845937109441 0.5547926401422704
Ni 2.305846996694209 5.453147220594593 11.40559398322345 -0.082525983719374 -0.8191082157700474 0.0436061667257249
Ni 1.3565246513583913 3.3675751807780574 3.8102723551288804 -1.5337591949652682 0.5033446087746234 -0.6937273416686762
Ni 3.7121490527659105 2.6947758981542713 2.8873325765286415 -0.10873812333836759 0.21745953450618677 -0.8817891397390363
Ni 1.2223841251856127 3.384050164218937 8.099110896828469 -1.097447359370426 -0.33788075060943745 0.42734305643732856
Ni 3.5023212055194257 2.6034269499258507 6.98054447173819 0.6302524610434823 0.7672871173336979 0.16146245031527676
Ni 4.034816528779714 6.976563544582015 6.049946491839102 -0.09168399606955824 0.3394861474233443 -0.2893552922052242
Ni 0.6540387680187822 7.390100992344609 11.126544093649066 -0.003905762812309402 0.279099418805171 0.37314008803236387
P 0.16238296761605506 5.797648794245898 8.005662585652535 -0.04135722279054813 -0.3156389084921015 -0.6518078186167549
P 8.49313863847358 1.6048784746929012 8.06146696044633 -0.18727375495142587 0.18654921808057548 0.3352911355053903
P 1.8505753341592717 3.4269863388363913 10.290400275533138 -0.6161864698687194 -0.44769950860649343 0.11647380141972845
P 4.009629595784799 6.145512240546686 3.717432253709157 -0.6260746755167088 0.30790014508694713 1.3893768400607298
P 6.932081993020847 3.8881141666317176 10.412141636987931 0.01283931785651337 1.049690146590805 -0.10639173459337807
P 6.335096553559726 7.649968325774391 10.286736557328567 -0.9260686783827019 0.2917883271267491 0.6814557233901747
P 2.4914639384891766 8.613180989019495 5.76153125649413 -0.04894686221234796 -0.6377842506441531 -0.6593264955913032
P 6.912615665905293 3.9543484802017703 1.7346937528816948 0.6440855102718327 0.6182883467030706 -0.15658712450084644
Ni 5.4690076681748145 2.781723685145331 0.5158305566859707 -0.785168368489493 0.7305447676073418 0.07030013107714345
Ni 1.4041240686831926 1.0467805030025457 6.976668377170009 -0.17227239644658718 0.5932105777988365 0.2583765844355227
Ni 6.687225601716848 0.6498743838336164 9.109865138729138 0.33253954090218213 0.3512353175394725 0.25013028526633047
Ni 2.58967219139759 1.595877331792673 9.321748066191999 0.43693044301544753 -0.4933782415905309 -0.6551317407836653
Ni 6.444492974048945 2.015966816304931 2.6130317839362545 -0.9034658533815215 -0.4423091908288576 0.7365660341007573
Ni 4.074806546182837 6.818944133615267 10.578272369624793 0.42621999857647885 0.20215555715926478 -0.4513959836214742
Ni 8.336829634856766 7.031772361828495 0.45041050313128983 -0.6114512691765792 0.32768555524399046 -0.43326636390029893
Ni 7.6661541158690785 4.160868678551184 8.283905445045203 -0.02226678181800036 -0.9220963239985152 -0.1745930741599638
Ni 3.111331801467745 8.310955867664644 12.40409998318368 0.2432795808930842 -0.29931163208698774 -0.3068809597938134
Ni 0.14967924615536146 4.886093292464351 10.017487611002473 -0.24754941191303173 -0.13602164164466896 0.9138993900100196
Ni 8.655240546306306 2.292535065477305 5.916459361882876 0.49357184565857587 0.8360121906142377 -1.2441514204296058
Ni 3.448630653340454 2.4515642940067393 11.465631425622133 0.47150355300462665 0.013909153881924435 -0.19310398847995777
Ni 1.035158545402452 3.3775071647613415 12.284487807740224 -0.2827820098630807 0.5496607182323436 1.012942140437494
Ni 3.0165306076691563 8.516346404505494 7.954672376343632 0.6775209071121427 -0.5008318696550988 0.8068437965803976
Ni 5.828122543100888 7.8174654969720105 3.670701320152139 -1.5037901594070038 -0.20751193637517165 -0.46948986500870754
Ni 3.088105960851694 8.207930738083718 3.334154370979529 0.22909634741416673 0.29387554867308097 0.8558562219233583
Ni 3.48497864203997 4.403519970590469 9.437352202603075 0.24127489175822964 0.34614993259676513 -0.6685145898484744
Ni 7.224881218748251 5.880285792920283 11.447867724332284 -0.10866844644269671 0.45850225564895225 -0.18993613227493739
Ni 0.47595169797529085 9.140497943924533 0.5467028501211812 -0.37027639333132356 -0.19709819724101538 -0.4331738041864927
Ni 4.645927255743904 0.44864190507348395 1.6212188024819603 0.3729153736160674 -0.7153305217607487 -0.28150648558476676
Ni 6.008841272594727 5.593442142666021 0.42466416175733385 0.2822865582839009 0.11932824014938803 -0.42646476759743324
Ni 7.966336809216448 8.952684940156919 11.280982377807703 -0.47972259848030924 -0.08277203829190906 -0.24787928444862473
Ni 0.07614822296919985 4.898203263836145 5.863260438392431 0.09791095081587653 -0.25155699041052804 0.249593438926254
Ni 8.061743501583626 8.770194901417653 2.598072354375263 -0.18288539607574308 -0.7267143381176581 -0.7035281298091819
P 8.644422907700308 1.454154517574421 3.686732572552455 -0.1069344944707255 1.273533987356781 0.5232092089090344
P 1.759280609683262 3.2004214266790396 1.4830892155901445 0.14380077136945557 -0.39425758673726935 0.05227489814431643
P 4.620134824180399 1.130402566512397 8.141027664900596 0.5660638421807155 0.033257990722181434 2.3551271533037696
P 8.550037429336871 1.6789842696546198 12.426797142213724 -0.6904504706896174 0.3986708853136166 0.48502241342666785
P 6.386925423572586 7.776752496203408 1.5088554390066513 -0.059634938053813424 0.013093857069480677 -1.3424125554960493
P 1.7416217409814088 3.335791024573135 5.924659800705835 0.35996446988235425 -0.2940267295389645 0.4961686598514746
P 7.0920510999254045 4.06875156049694 6.181316184263678 -1.966663033319826 -0.05798557537584852 -0.9082385921798165
P 2.3398272148717774 8.610731882868931 10.247624060985295 0.44061894761062825 -0.5317915512614068 0.06941978535471915
