# total energy = -340895.49630607717 ev
CRYSTAL
PRIMVEC
9.03411793943631 0.00000000000000 0.00000000000000

0.00000000000000 9.03411793943631 0.00000000000000

0.00000000000000 0.00000000000000 13.22234478700726

PRIMCOORD
 96 1
Ni 6.187476495882178 2.076754026343806 11.37929561267983 0.7419131573452835 0.05508177146549223 0.581702834269553
Ni 4.602955426352037 0.04533591467859666 6.024537142486971 -0.061558123218455274 0.6251825027197426 -0.9474065206285297
Ni 2.790178329826814 1.5814494693885142 4.67774798638883 0.26698309515761115 0.11426908045892577 1.344103570045227
Ni 3.4215728412922743 4.477751584108514 4.694197308559044 -0.5960971553180121 -0.155220583170623 0.4336060066279048
Ni 4.967581465517261 4.656862008837578 2.5428946433661634 0.5417630606518218 -0.01373123354316345 -0.1294542728397964
Ni 7.159493394817859 6.1383489618522855 2.53034715678762 0.38525975411403324 0.30074065122403043 0.6710101025768186
Ni 5.432874682265252 4.44034130120712 11.786887917355566 -1.1653527649631479 -0.10770453986753063 -0.4770543076195267
Ni 5.829291782896306 8.018845807382304 12.259375002317606 -0.7212646278569965 -0.7013226375174308 -0.36269189611584635
Ni 1.95630213020174 6.527087062129275 0.2558100870890826 -0.13041329431895604 -0.7819676021640081 -0.12874670524981055
Ni 2.7212389748834322 1.5946483158794436 0.43167816684511734 -0.2831759028673897 0.1455781749848525 -0.46566354928408193
Ni 0.6497554530179345 -0.05966673616289571 4.723894261457732 -0.2899312193133523 -0.19428849570636217 -0.4267113363906006
Ni 8.614031573648829 2.530375162553617 1.4584246564219334 0.4063865087903195 -0.2022823125451161 0.5160201473597629
Ni 6.9863635562469035 0.5671095341484492 4.802303178955386 -0.8043164021728536 -0.5193654096829119 0.2334127154013335
Ni 0.8871738825531269 7.331295218033465 2.3691793939446857 -0.7358201570736682 0.5159576695529438 0.3499055429844554
Ni 7.453553937788252 3.9044103153197893 3.7991899422329642 0.5312215376905496 -0.45607076338932423 0.17778124207995835
Ni 7.701567580988442 4.027816368068654 12.7438286800667 -0.26583484048578093 -1.190114802399176 -0.8571021785153173
Ni 8.013280790655122 8.754575348364355 7.084783948667252 -0.9367554686725867 -0.5895819799073136 -0.6383182687707523
Ni 6.710398351757915 0.8895146225434073 0.25933339313388915 0.33414493771608905 -0.30233653495624063 0.6357479369404148
Ni 1.8332484080573557 6.5252079655720445 9.403811339593634 0.0644758110858825 -0.19467878916624537 -0.8313281548750069
Ni 0.009067544300441877 5.110175985033226 1.3469734521066385 0.6345150929745782 -0.8648627962973426 0.8378631277800473
Ni 6.328923682404065 1.8262108300858062 6.876518618123319 0.20942200891369095 0.45457283868755904 -0.0666080269375369
Ni 3.4592360794994503 4.350768020606461 0.49508412447453976 -0.17636610689998658 0.19151607516754757 -0.6217045714734712
Ni 5.884707063098469 5.690238637661275 4.718275040022169 0.5675522538007838 0.27358311697263205 0.7122824789630442
Ni 5.306731291743113 2.748350363192316 9.259938492371667 -0.713911787036351 0.848487440263113 -0.49741590199501434
P 0.32851937950040705 5.519773863919083 12.312621190772697 0.32069189753497673 1.3129808804984937 0.26837843284324103
P 4.268042601498016 6.105148577968532 12.57878708739809 -1.3702087517727113 0.40602038370015237 -0.6633916667996124
P 2.342013800927421 8.526996880224043 1.2435879083985317 0.10374067012377618 0.28364667185622117 0.8636860023804221
P 6.314288411141022 7.70997834490566 5.946247475347756 0.05051266403757108 -0.6714096520080823 -0.44809905803775735
P 4.624718616767265 0.8604988421467159 12.526915891712282 -0.06061658524079238 1.6754784012153467 0.5403132155791727
P 3.870812430241237 5.95219192503361 8.363569684453402 0.3037385575100898 0.6524053429914377 0.7570595260684189
P 4.903023657834728 1.0415886421435152 3.8785104022432355 -0.8875764358447746 -0.4833833351613482 0.48643137795905256
P 0.035577260346288886 5.748906200366335 3.6500682724160427 0.029525006042310443 -0.5762898907840979 -0.349370753526908
Ni 1.5608426460854279 1.1151082949451452 2.7205903252064654 -1.1011474339298326 0.8252441534644562 -1.2236070206193508
Ni 1.731479068070828 6.362756454552272 4.94015930354699 0.8958800706144634 0.7331912040912534 -0.5521626587185909
Ni 5.896225563629566 5.387442102523374 9.34612217187486 -0.7101854872246994 0.8372373212705903 -0.5134760407816704
Ni 8.68988202891087 2.2040808863322767 9.969713915568784 0.06895647256505544 1.113176854290541 1.1830488966913302
Ni 2.2864630089543043 5.164561375776137 7.116146792936869 -0.42389289310519906 0.6809947245933562 -0.8293877433191846
Ni 0.5785069774974952 0.07625970081032184 9.164090113364027 -0.18667931590053657 -0.38310748365772085 0.12369345909661923
Ni 1.3827982472878704 0.9863450101845612 11.424290941107428 -0.1495376738532328 1.6298042962169994 -0.12830524683701772
Ni 4.159344092956702 7.010132320872253 1.4005105391633774 0.23747017330015877 -0.137241372984383 -0.014379665760439751
Ni 5.446362620534216 7.564185747595178 8.21348226741548 1.3787885230219221 0.6767413486336409 -0.010585745935646285
Ni 5.195494196025926 3.026727677204288 4.830439939664488 0.7636317799692977 -0.7131970203575136 0.03520354448432647
Ni 0.9313272311771975 7.469490122052454 7.177009646331386 0.21617064049143417 -1.259729734483837 -0.10709930218336394
Ni 4.933522840417464 4.343667203808466 7.149308330112949 0.30918955332233206 0.10200054750421787 -0.23930645517794916
Ni 8.365972759858321 7.135878210199592 9.090375323612225 -0.6678959824278692 -0.3432749250418153 0.38825560351756355
Ni 4.633301028927692 0.5190082759305826 10.294904222562753 -0.4581703262308303 -1.4340896095870723 0.4607062052788065
Ni 8.317866081169615 6.977374608773616 5.246415002491444 -0.561526359321678 0.816649984037542 -0.6720621979904168
Ni 7.175321169665298 6.048450453001337 7.155735201703399 -0.7584129547725197 -0.5478892281542177 -0.2487362331322813
Ni 2.4080803063265757 5.370602506452812 2.4659673212309414 -0.23315303398204362 -0.40739232434701456 0.5448812945658293
Ni 2.484834173394977 5.09828708566152 11.265371770250525 0.29918667647334923 -0.0853750231323949 0.8763438003537488
Ni 0.9894346785623146 3.7147299724563068 3.88250348242735 0.23480136821874398 -0.721857267135673 -1.0690479822921266
Ni 3.7845275686157307 2.599558438684716 2.685669845243401 -0.1615742933027927 0.32375382428975213 -0.36331924528720005
Ni 1.116418242064368 3.3360378114660483 8.023001501691562 -1.4373168582751181 -1.0520918140537623 0.32221476193740634
Ni 3.5599755300267266 2.358175838143213 6.991064007875398 -0.04820201362652344 0.6261662067892506 -0.9891118707871158
Ni 4.121653752395336 6.579710799849783 6.258466595625999 -0.03583346475884151 0.5540943285236651 -0.9753274154085138
Ni 0.5973214317767621 7.524327218698546 11.426115832956276 0.30389848012672177 -0.052674961796212505 -0.209112190982756
P 0.04304034527863424 5.365507263864938 8.025645788048779 1.5590760764635019 1.0986884308663787 0.9422596863202675
P 8.496452527050991 1.5563526894078155 7.953333093420448 0.10811720192491701 1.1646331131883039 -1.0470591367258613
P 1.8384068894716752 3.026113357175962 10.363594235847579 -0.49560044605283043 0.1500341538736771 0.487465989871154
P 4.043291812311613 6.307738675544908 3.668367781965684 -0.6185683398373346 0.26913073762823325 0.17418658275016455
P 6.920938473230265 3.884905654420463 10.386178627594788 1.5977446966782936 -0.3508108284075442 -0.14762348754965546
P 6.492892925258524 7.733150857738811 10.135853153582122 -0.4761163691862897 0.5648729071964078 -0.24406016781285061
P 2.459936144011677 8.343947580019249 5.827748755531043 0.18588895878875727 -0.2541718023255558 -0.6739856402653748
P 6.8883975799651544 3.975264903292655 1.6433918998916326 -0.13535469748463141 0.2948821355607244 -0.23882360200425964
Ni 5.304581171643975 2.894350745218261 0.5118460271297554 -0.07492631699524516 -0.41448599796900226 0.13665181902950016
Ni 1.3842437061780475 0.8729532773092039 6.905912024655068 0.05918113834584646 1.2154622800250292 0.1348294211087807
Ni 6.805717331447028 0.8742334118388169 9.147205346703146 -0.2553056588196829 -1.4879624483461278 -0.07194615132099867
Ni 2.743182847659933 1.4954808018952346 8.99579623819252 -0.44923317164220056 -0.4088696802234894 1.1305148313483562
Ni 6.420529639569036 1.730494349201895 2.547192173329021 0.030391210697347657 1.585170973778341 0.27240066662875667
Ni 4.110469514232591 6.958041596117497 10.488387025719208 0.35203441640200017 0.07215209668421768 -0.2474833345617867
Ni 8.1631206728581 7.038878884550648 0.2563801399388962 0.9539625765794926 1.7909134769579156 0.02318209454341814
Ni 7.492554225468842 3.781609548481186 8.086574590505162 0.8767703463682063 -0.9039859875510495 1.2860071801231272
Ni 2.89795535832564 8.408144022979236 12.337228321554347 1.58604103508812 -0.20315237385489526 -0.29768643777873893
Ni 0.1833167100994783 4.588753792756048 10.36367373608654 -0.4371456443500472 -0.016750479985461475 -1.038022994665522
Ni 8.548868480056035 2.3561792980511562 5.782104777426476 0.4649567530250444 0.015986091015611176 0.0503663682676939
Ni 3.6379670712698418 2.7489014443941957 11.601391274567339 -0.018924861928960954 -0.23775479442011313 -0.26495320921177595
Ni 1.0606777336119158 3.5712230070159166 12.768911005458497 1.0155703220889607 -1.411665219145285 -0.2624831504047286
Ni 3.253610518253702 8.270039460140882 7.947317274201893 -1.2527435329739907 0.1693883900305728 0.8264579712668992
Ni 5.610602886930582 7.884815631790636 3.365483615882567 -0.08142915111076944 0.5525295551397065 0.6856777318913224
Ni 3.0727113381480446 8.4469274918263 3.4731395871993405 0.23642861940952184 -1.0929993509014013 0.8913819256337938
Ni 3.213788125829325 4.009070573086671 9.012204906831448 0.7069019313774213 -0.04452302211303945 0.6679422622847722
Ni 7.432585749762621 6.15371599667848 11.208118950434224 -0.016533221768332815 -0.8139495543872434 0.7973628536731558
Ni 0.40069927259320415 0.24667478690316366 0.4046173695973903 0.18541973246182258 -0.6531504486875783 0.17237961144841282
Ni 4.41489219062194 0.439164740484428 1.6764612890634645 0.8007636518245886 -0.11253589981790298 -0.6353021076522478
Ni 6.249251795201119 5.795946853123534 0.3138100284692429 -1.3207983196603832 -0.2354104625576526 0.5849835619033538
Ni 7.834694344773747 9.254098838455352 11.262039987508668 0.40687964637665414 -1.5350167215214532 -0.4576627904667924
Ni 0.083033482534414 4.7453963658609215 5.9191550586868065 -0.6643653435667913 0.022616194737619114 0.05192728499691057
Ni 7.931124520984684 9.013628683838272 2.4018783842759097 0.8414876119065121 -1.5083345842445766 -0.3006645465704564
P 8.543610623343016 1.612544903763448 3.658094182903751 0.44255781650455395 0.8238709272660133 -0.0305390491291216
P 1.912062054044259 3.230492210128933 1.6879906305362389 -0.8628982163718042 0.44513714719595604 0.25358841901826
P 4.7800693109890435 0.9156711045729674 8.101965114038322 0.09697558348580072 -0.13375418576673093 0.09656832074505305
P 8.477480879117417 1.8018367795501957 12.469160774931645 0.17473525616478294 1.1997890922641465 0.343506324326331
P 6.347091293829978 7.925423992486548 1.2462683312280038 -0.0311226895467335 -0.3507174973627895 0.6807404424907051
P 1.8383255824091025 3.309188412581009 5.889562901557658 0.4170499020414366 -0.7559331257734594 -0.19125305131414805
P 6.8284471724950615 3.9527338128420206 6.096783888053438 -0.5298555105809585 0.29624559156715435 -1.9213188008570716
P 2.3772829978477414 8.529689047406999 10.154628761153715 0.5548944558274573 -0.43759275918979473 0.09292995266151738
