# total energy = -340895.82309847063 ev
CRYSTAL
PRIMVEC
9.03258105703749 0.00000000000000 0.00000000000000
0.00000000000000 9.03258105703749 0.00000000000000
0.00000000000000 0.00000000000000 13.22009540426626
PRIMCOORD
 96 1
Ni 6.385022979248071 2.004004507457892 11.263494580162984 0.14855911199004737 0.8051993189984391 0.5945164410944536
Ni 4.563106268214312 0.44040786505823226 5.976778327916068 -0.08991199177079999 -0.6362310472244204 -0.11216411830078103
Ni 2.678124078008307 1.646196884076318 4.729039293870819 0.31426671073492324 -0.9423021095224287 0.7602096416616262
Ni 3.3532823953511612 4.295516061901255 5.03377598873957 0.7665762073096023 0.4006814879857422 -1.0197460507332052
Ni 5.22828358376895 4.503129931676972 2.7385294621338283 -1.4145890776602994 -0.7924461330978289 -0.23244932304679966
Ni 7.1285579332758156 6.088266569519492 2.601555793792437 0.8113931065139769 -0.4789571810691945 -0.28720019353543436
Ni 5.2461138982756825 4.5591138674990255 11.681871077382628 -0.6366593930110906 -0.11036511741882929 -0.5922947508527865
Ni 5.627695274332901 7.871415443743272 12.343470587680875 -0.1522221626639314 0.7917365086253139 -0.4325330852787002
Ni 1.827507878551322 6.551294726684722 0.5152184090496797 0.1643415716352847 -0.42132178994391317 -1.7717988676156515
Ni 2.877437006025317 1.6210050162144745 0.43261545759878 -0.30978142127006003 -0.6309086065702425 -0.18114218813239125
Ni 0.5308538064210857 0.08875142920405747 4.862258118372063 0.1257930219381253 -0.41677479400317896 -0.6308114188707459
Ni 8.652525933914891 2.2540805395923487 1.3977873631001652 -0.29268847034351525 0.4535091733097351 0.2325961330373091
Ni 7.087324201906394 0.5266437205084269 4.811202358636572 -1.1288556984783784 0.616877582398473 -0.4211119879259522
Ni 0.6745675865582847 7.276069010382939 2.427381441410528 -0.19914222425423767 0.6523652337821217 0.635034455813158
Ni 7.531709112292546 3.893692672262685 3.6373109954690834 1.1643317798978012 -0.8430297595826514 0.5192736213000541
Ni 7.908105786968374 3.8684466089160185 12.669464558213328 -1.5028059411168635 0.2911519790943308 -0.409660551555901
Ni 7.939186897514306 -0.3513773291073369 6.923707129967985 0.17678751070812132 0.1566485738664012 0.3295259508868389
Ni 6.7760975977301 0.7340778419261478 0.3299457246341221 0.39683126100171656 -0.03176675088863562 -0.21788479496906346
Ni 1.8141486915424776 6.442434062837128 9.311441864456324 0.7527318452273424 0.8999141314745212 -0.5508058875803804
Ni 9.179992522534546 4.819441878845813 1.4164008023625894 -0.7543421271372557 -0.17908093472798836 -0.03001043031916122
Ni 6.360183382037577 1.7909078611342584 6.85832118078724 0.7924749294532353 -0.22235748602843639 1.6588721601172334
Ni 3.3735334415133176 4.412424755245049 0.5186498864970496 -0.10259472944479105 -0.19057068053514278 -0.1707634160012285
Ni 6.015635587276005 5.426494536927893 4.82513601778454 -0.013805024203892355 0.6694874952847051 0.969809056693446
Ni 5.260177626587224 3.1426155132637548 9.279435817636081 0.9952997447653827 -0.2610721289898149 0.7846932286252872
P 0.38710479921875174 5.5604748079909 12.265775940638768 -0.3416952392595212 0.22725003823404732 1.2905341214592032
P 3.9513115052102283 6.258702336706701 12.519311451221087 0.005578008308409748 -0.6612301403719192 0.2918829437230844
P 2.469489526601759 8.486606457129591 1.2999283826716197 -0.48316453428232276 0.7316979073751786 0.9249404783155297
P 6.3376832232552704 7.703562994665954 5.724156011253016 -1.2310778750750992 0.1341964155104721 0.9267489922791782
P 4.709867641114719 1.0678407352079626 12.437769828014636 0.46015701764355593 0.07976641869636585 0.8414482740281444
P 4.101026532033483 6.147375778299666 8.242094494770283 -1.0104348006346082 0.01303677857930013 -1.5129620557142587
P 4.548365096342484 0.982672530808779 3.7129037609581417 0.1474162566348558 -0.12971215448687337 1.0102195993000085
P 0.13281958442971625 5.511554350357431 3.6720801087572132 -0.40254528066735834 -0.13017572438685324 -0.9205947997523242
Ni 1.4939978975320138 1.0410501005438435 2.6209893913918476 -0.2331322080464372 -0.12307639433791062 -0.6336496596504894
Ni 1.6694286819037334 6.6107923364394585 4.671359942631889 0.522404710729868 -0.3502207602320291 1.246939267587388
Ni 6.0011111973434685 5.67138586768096 9.269877540629484 0.677461257518801 -0.060571848045786 -0.001745264825880865
Ni 8.616693685866153 2.1344982023306254 10.002945540021763 0.2562474539076619 1.5179265988083859 1.3141718154828013
Ni 2.185496153548972 5.4162154599731505 6.86218080256471 1.143916706576559 -0.9101808035078518 1.0517380302587693
Ni 0.64913635530514 9.043510226588882 9.194682208695792 0.06319411615998148 -0.5935818450953261 0.052434563650632274
Ni 1.5530258130849532 1.1451234965654147 11.367669141089559 -0.2730480704047685 0.07531301091070255 0.07404571416250473
Ni 4.048664661113761 6.682583288668191 1.495378075878837 0.04370669685933118 1.174456784146945 0.9772606278754845
Ni 5.587744169437621 7.827499035875118 8.066769391593969 0.10470946179494871 0.2723129920109568 -0.38664172206322445
Ni 5.3326731201186535 2.642355058025195 4.911992411535956 -0.9950763159006668 0.7392134990259335 -0.7065491760236928
Ni 0.938918709395093 7.3600720118584295 6.9752524555830435 -0.5641000335861254 1.4448249937267053 -0.12930643440802247
Ni 5.072480597483922 4.364678533116076 7.224927441129811 -0.06976431317833146 0.6537839685065192 -0.4599839824008014
Ni 8.223017684112625 7.214909405760298 9.175816760428942 -0.20871238444117607 -0.2594770165885531 -0.3641407127472309
Ni 4.666755132938103 0.33901714553539475 10.342119852463146 -0.3881568731561702 -0.38943316876543255 -0.4135151494153007
Ni 8.046611381014094 7.239649644581951 4.60409611990203 0.9717517822421136 -0.5440631695399082 -0.19512564689567685
Ni 7.305298441864088 6.209808976815644 6.980580774999215 -0.2977841396988678 -0.7565751302328324 0.5018420560871679
Ni 2.2323662153399746 5.284132030878945 2.617962573564489 0.6614741380619252 -0.3844696541125701 0.7372879998684464
Ni 2.375297773979563 5.148354276235979 11.370339171975168 -0.3599600990069801 0.9067164991083352 1.1825830127985053
Ni 1.2259921925019814 3.2609061914705326 3.84892449202473 -1.3506745383945253 0.8490309714714087 -0.2921305409575162
Ni 3.5701817581932014 2.6526341349799374 2.6061298927114893 0.6125321609455838 0.4872988681656705 0.307318047331232
Ni 1.1552038567424736 3.360445231928588 8.309715104441894 -0.6934416921074573 0.36194396220622826 -1.0288359288496152
Ni 3.4428946295058225 2.6192316511674254 6.928109609851766 0.18745450350366427 -0.06762232713466418 0.27029287625713444
Ni 4.259665748690908 6.89185915331181 6.081389162495467 -0.4248112911544103 -0.12129359140587496 -0.7169197206247395
Ni 0.6011652219141522 7.50199192144799 11.278618733460895 0.9573775157983125 -0.2278460199468334 0.4555033209216285
P 0.2376571367872901 5.599983316426792 8.03751376562849 -0.498005198839581 -0.5589742823237858 -0.3050410783715973
P 8.575225107395832 1.4691312025791077 8.022032825388829 -1.0605833964645413 1.1346445372460137 -1.2776256409276514
P 1.8247168110829426 3.289503342295415 10.387808452685007 -0.20408722696433887 -1.465442927087373 -0.11190058022674922
P 4.1236350817854355 6.071899533102977 3.7700935463175043 -1.8237624051671366 -0.447090671377901 0.44489546349879505
P 6.9557556299180066 4.094875344506084 10.528655291675076 0.7958495023524229 -0.6568741773960687 -0.9585471106263813
P 6.3999267375743685 7.764849055419848 10.201484375863886 -0.8615195908567228 -0.43982241985126186 0.13531664515784436
P 2.481764803914145 8.565217007865204 5.766724758065241 0.10322027884393191 -0.38025972979628064 0.34410719113512356
P 6.802075300121876 3.917881923655305 1.4799630734790443 1.7841913277427337 0.4136344486019844 -0.3122332252446623
Ni 5.219377459096386 2.892819491134216 0.5105874048715632 -0.1367019555411452 -0.5450383889689839 -0.3862092625114962
Ni 1.2915867942992953 1.013058132632817 6.955105284100131 0.95138196033651 0.5781729667394235 -0.1907815109943682
Ni 6.9058506209769215 0.5497364165914636 9.049485278790607 -0.7067425229814216 0.741173965186414 0.2468071344303685
Ni 2.6016452163423947 1.5657346542759227 9.005449640855842 1.059007567336989 -0.16432305969252345 1.1423005111293747
Ni 6.3440150623987455 1.9112128048602872 2.7199024740001985 0.9840185154246084 0.6304692050399787 -0.19815312086809098
Ni 4.122244064341648 6.779647401986001 10.343918239301184 -0.07104755076612926 1.2405508475625409 0.6744106436179353
Ni 8.202739540208057 6.925108083250657 0.4437363710844386 0.0601445307003803 0.4269928721867614 -0.24674002863785893
Ni 7.6227846245374264 3.9155966807119396 8.288695385653334 0.09027220332369613 -0.2469446884494973 -0.5449417154901196
Ni 3.100632077687617 8.38885586767069 12.353570819535703 0.1935390191348473 -0.08606433588993564 -0.09044883811087649
Ni 0.1190873518336744 4.870774035553901 10.144413820571135 -0.5281200159470903 -0.9434148829706334 0.5124553128266399
Ni 8.550385510185338 2.443060195169793 5.750569084039535 0.5210553957908252 -0.20089597372055082 0.38327074870846245
Ni 3.6528389051289243 2.832445721041508 11.562717787709088 -0.24991174149762121 -0.40037038450322654 -0.4091116210309664
Ni 1.1774782010046845 3.2562002168717443 12.572059013341134 0.23650858071783784 0.3272451252724622 0.42853990495890715
Ni 3.1749521525414166 8.31820302062324 7.98842710850823 -0.2059967852822259 -0.02034205399146174 0.08209558105017474
Ni 5.508438109980114 7.696635005189427 3.5257992691555695 0.11197359955652973 1.3580978274417903 0.6495120806040426
Ni 2.9475027353205197 8.195901876539567 3.5825798786045198 1.1059191442868632 0.43306838895688 -0.6182847471586449
Ni 3.4239442749794162 4.455510165679253 9.396552260338362 -0.05035094164872618 -0.19795077504929778 -0.906122060057446
Ni 7.360090077020037 6.181401510187642 11.407712378309038 0.051071878975150746 -0.34832714275374205 0.18361970313860634
Ni 0.5131201405289533 8.934017282085021 0.3029916002574539 0.04289911335637128 0.5281840364158065 -0.09146416674926829
Ni 4.81756310203862 0.49193964180208444 1.6940894340143127 -1.206732099240883 -1.5470080895553744 -1.261235886715718
Ni 5.941125828225325 5.824226167462335 0.2962054222995468 0.7113802788637491 -1.3155057038028763 0.9019779559820853
Ni 7.8963995622466285 9.066814285062728 11.204268851090443 0.30065837592286926 -0.3762968884937906 0.6771002746349565
Ni -0.019440823664053745 4.941137840015631 5.815321849305932 -0.5489469799947707 -0.49570174751738494 -0.20477628261156341
Ni 7.835420609240064 8.817993781660002 2.522751042569542 0.2772266272624903 0.11098938126638949 -0.24334025892769054
P 8.61640464328043 1.6705667870850143 3.631004447551859 -0.9149152328690436 -0.3011859662915652 -0.4529497012618393
P 1.696282544633479 3.220720239474354 1.6849276873050019 0.6607136057468169 -0.02618180060169039 -1.3123450466867075
P 4.7638282788367174 1.363278388139185 8.34236878730577 -0.29188140106118765 -1.4964951684074874 -1.1997302140017532
P 8.536872769302828 1.7109243581164655 12.430961068604718 0.06799436576210226 -0.7057817017300491 -0.04378922927080845
P 6.241594628664273 7.6882618027842895 1.4170484384062227 0.3974331562517736 0.9002388618037914 -0.810062046407379
P 1.5953615193124402 3.3850138517149677 6.016835114006752 0.7182703211153629 -0.48825943230672686 0.43691964438217007
P 6.790034869910389 3.7427311492885034 6.075942516270765 0.8785837454278611 1.5674211059940877 -0.3171463462755635
P 2.4896683121174843 8.493642837575763 10.174145463544974 -0.24379868662134785 -0.07595861491450144 0.13040789500231734
