# total energy = -381168.540753574 ev
CRYSTAL
PRIMVEC
9.23360517835902 0.00000000000000 0.00000000000000

0.00000000000000 9.23360517835902 0.00000000000000

0.00000000000000 0.00000000000000 13.51431452564119

PRIMCOORD
 96 1
Ni 4.5107176956429065 8.269709127112273 7.999122944381551 -1.133393952668364 -1.2641139795944616 -0.4839176103982633
Ni 7.454095548761256 9.122229425331389 11.982250907769412 -0.7919573663868684 -1.4570390192943938 2.761331113769638
Ni 7.4008915157665145 1.9525381494391099 6.052682667797305 0.8264248040361186 2.2873608443920737 -0.6268645184078558
Ni 2.3941076159220245 5.879959772830915 9.307835046232222 -0.37611588283123615 -0.44874466204155616 -1.8440563795294822
Ni 4.701807154654741 2.7317713234167695 7.413358729468267 -0.14977678644723236 -0.034635587795998415 0.02366134817268183
Ni 4.037901709261657 4.3449006139838335 9.994524412384509 0.006941978535471916 -0.702236664691268 -0.4363791984976678
Ni 0.8807197284110525 0.3563386739528961 0.44588894698186293 -0.08579899804369094 0.4730557279830949 -0.8009757678353948
Ni 6.170236618588586 5.742480625441343 9.853543881914131 -1.5387563910695434 2.0218612757585244 -1.9806763168797823
Ni 7.232996872943988 4.15023774977086 2.115611927001907 1.862483218776102 0.7136500487345322 -0.5555644853112883
Ni 5.740790875695066 3.356747889409327 5.0316093707069784 -1.3465420042833907 -0.9939303752216818 -1.8419457609443823
Ni 3.7833958499360625 9.376449042896686 3.2330969891236987 -0.05831004859480281 -3.7740580528725323 -1.5078499312986742
Ni 6.837660067551784 2.0529074376468235 3.1194146889805774 -0.2633159307186691 -0.36106413070443627 0.8056076101804511
Ni 3.062094314800647 6.241067603854582 11.370660299193112 1.3196222970744111 0.09144745457871993 2.1365479033708428
Ni 2.0051235308874014 8.058490408827872 10.237174322670663 -1.0800551320359078 -1.207971885185255 -0.22694459117848656
Ni 3.2667941078343916 1.2325293190276208 0.06629174496397969 0.8516324136499978 -0.7855676608104406 1.8435331600361604
Ni 8.993014354569775 3.6427588095780417 8.380604725214816 1.3717730109360375 0.07891538354998022 -1.167038637306003
Ni 3.6997578542980247 3.549185454776113 1.0051056236682845 -2.372403423885714 -2.7414356603972916 -2.674847688064413
Ni 0.5687383703386565 0.5830800058901028 6.715519785072116 0.1335757512073377 -0.8691861062630452 0.33693946974209066
Ni 7.672100966846271 1.5142004447660113 0.8980419717116662 0.10302898876873223 0.48455910063700425 -0.9692963787230855
Ni 7.311528684922516 5.667762292398397 13.178713764999488 -0.6353514728329445 0.31924333801390825 0.9701319872505034
Ni 1.9938677661840707 7.037253676926019 0.2517320843322552 -0.20377843747466842 -1.1048629351082069 -0.511597335701719
Ni 5.275638781605666 6.629008291504892 1.8901799202779348 -0.33054950705534686 1.0712226213459421 -2.2344295436106805
Ni 6.03312681540585 8.85776050602639 2.4811334212972667 -0.17551892840834288 0.6609079811458101 0.6615620697900413
Ni 0.1452113683596861 2.118779976936044 4.421478595108199 -0.13642530484099086 0.6351444990284609 0.5876631656180459
P 6.4629880705320595 8.749524186213067 4.654559720355747 -0.05146808597230491 -1.0696889583102351 0.14562188373859436
Ni 7.718241291885273 6.61384671181427 2.046378355430478 -0.5920337838819159 -0.8123176752107751 -1.059301444428324
P 2.5398508399395543 2.423295041867248 10.218929642213478 2.1672864701052803 0.1641849914527624 -0.3332229401224519
Ni 5.927420503409355 4.389545094985149 11.420892958043858 -0.6783901970909736 -0.048558625634993795 2.4734362081600243
P 2.597403900969792 8.723300747527702 1.3439226084488753 0.9399618914250263 0.5061301419395606 1.4408937769930992
P 4.4921119812235375 5.715786272892262 8.259746067132868 -0.11966839709762614 0.22824659781936177 -0.5020058353585419
P 2.0357698664496278 4.91791968367972 12.873316890774461 1.8008705881706275 -1.0687618185102756 -1.0282450893431516
Ni 7.2709746910119115 9.114897942825692 6.806106068601258 -0.6212564281924591 -2.3191473927750508 -1.3443660796779942
Ni 8.698767058588615 9.118406712790634 4.771567041720911 -1.058377647062474 -0.4017160998978437 -1.0411479134477488
Ni 5.808759443358083 0.8772829805664426 8.352643522036287 0.6683562098937392 1.6979135902904114 -1.0791809569610704
Ni 8.102405435020685 4.450015975249391 10.26871631793447 0.42576079955187324 0.97673560860995 1.4085130466695486
Ni 7.74132530481253 5.914908968402782 8.21490583370193 2.4984859520398 -3.0788345862743043 -0.3042702616438437
Ni 1.1731664713838867 2.779684500648584 13.843388369703307 -0.2777449616598055 1.284379671822033 -1.1747020673885318
Ni 8.925452065534278 1.7030369041161448 12.122894411651052 0.9471848915360267 0.18929078538145463 0.4077214255516592
Ni 2.8704877738992427 6.932738499996571 3.718625803104248 1.6285300574902664 0.7747667135401948 -0.22756808369509837
Ni 5.662046690797608 5.986441707661766 3.903231424565073 1.1958067105776309 0.1080045876064527 1.713351007891404
Ni 6.594234534431273 4.377218232081994 6.707465311281537 1.2678001701967971 0.6595938903200769 1.326122045866142
Ni 8.460613914020689 8.79833302314646 1.8716646951892404 0.040577407201730115 -0.6462904883429514 1.0635653619110006
Ni 6.554188388805067 6.811178087921634 6.093320687514966 -1.1159539028150458 0.32790564167459657 -0.564033442014248
Ni 3.911059675028965 2.924762905093809 12.206020865562623 -0.44589870795232883 1.0580441749824552 -0.9122232878591773
Ni 4.155722511242376 7.867724125997019 0.1032908008837873 0.4710888340647112 1.3565255978586637 -0.2029222601219602
Ni 5.710513884339677 1.0759550761446217 12.72499749091425 -1.7561205376484466 -0.22861555112300627 0.5216112682942953
Ni 4.477569053079366 5.391437424053959 13.3276545864877 -0.5521423470036169 -0.548723551130055 0.25225041693312683
Ni 2.0265731956994086 7.905905083378702 7.73356630638742 0.9723241098058159 0.9512377214491617 -0.37152286414391494
Ni 3.127736013960595 3.428493001587242 5.69962192368008 -0.02115683658327324 -0.29388069087940355 -0.8806791945043091
Ni 5.051400680030292 4.407070477599523 2.323678292480963 0.9010467024170675 -0.16029851191416264 1.607303801121638
Ni 2.4450955836757498 1.0780418709132458 4.9964579591818685 -1.35351072229174 -0.7048571330332506 0.6156935893927009
Ni 5.833976419079819 8.855858383361184 10.138154987538936 -0.5974133030262744 -0.8104394843514559 2.2123003158118095
Ni 9.019025420336208 7.50333836513768 13.211526304334807 -0.9556376502890703 0.24160964938982907 0.20913815912468497
Ni 8.874113220784059 4.855879090536425 6.246694562845731 1.660319691197037 0.9306606686287584 0.9642369619223071
Ni 7.832581024716563 4.253543324422921 4.453926407039269 -0.2604095557051515 -0.8352742840069486 -1.2959480933859229
Ni 2.6203032417936307 5.140754277269119 2.0491752144367448 -0.688818077292517 0.9488494237226432 0.11355534222135281
P 6.682655537547839 8.286929800756006 0.5311954550742828 0.19166314226837314 -0.9329193827559481 -1.2058311846931684
Ni 1.0438405973602218 2.7893336180521775 6.467829249723165 -0.4140016021334161 0.6547265349254466 0.014130525864111147
P 6.7588974154439825 2.542593220675313 11.508533721523483 1.4849475727792039 -1.710831326793344 -0.2584601452882646
Ni 1.3313011935407684 5.29540793027657 4.211060430392115 -0.49336281497156315 -0.7209198429230681 1.495800713443624
P 4.044254429619238 8.348905758663106 11.19021718694333 -0.8235716508580396 -0.1866500053244979 0.7746355872789691
P 8.039949329644699 1.3149577123882703 8.036300208881157 0.6195173340141653 1.8759563135618724 0.8355380791912965
P 2.9941719151634856 1.0575617346441832 7.006739381917736 0.4197446752647804 0.13554958710425688 1.1494291517543558
Ni 0.6286173765114442 3.8174032177804973 2.6341157917687843 -0.9896579730985732 -0.24799267009803744 -0.9596603982952182
Ni 2.471854571461026 3.640616613178392 8.0955337860525 0.003282013185381445 0.034330912071386034 0.9447706256675793
Ni 8.737908310908072 7.3419257131451285 6.47897882796703 1.0826817710254772 -0.46391288514156237 -0.4340166118027622
Ni 6.791316603199023 3.3896933926591077 8.795453985054172 -1.904340264021204 -1.5528072127356547 0.27788174434798596
Ni 1.461781268210796 7.850263378618842 5.367831712434547 0.43962007403246867 0.21132333970146186 -0.8278628220342259
Ni 2.1875611018540995 1.8982445510342014 2.1835213995918292 0.7319943555696748 0.27297505107498793 0.7970134407535371
Ni 8.298813450610957 6.590448756311202 4.262563633314376 0.44188624435882606 0.20133563236113067 0.3152887242415344
Ni 7.799949464042592 7.094714401904548 10.98796245255884 -0.165883719311424 -0.6452664179538112 -1.148141286180868
Ni 1.359279017208604 9.159828665587304 3.119644605749333 -0.718000355283428 -1.094255849016322 0.36643876475278825
Ni 9.005415086314297 8.058619679300264 8.63313366967332 -0.15863860771323646 1.8768687980738126 2.060876223569141
Ni 1.126582933296682 3.703543632418095 10.906173024676018 -0.23600387316727744 0.5286411785578831 0.3264401128726636
Ni 6.655250197400599 7.649654072675807 8.417593624168935 -1.233081021548057 1.3965304203863755 0.670249056041078
Ni 4.650366740247641 5.242600942304176 5.897444527582536 0.7072837401968721 0.9825792118749206 1.4766071712343083
Ni 4.888436782369029 1.96194719310826 10.216186338117202 0.5120485643065246 0.6152773277908887 0.1735070401846367
Ni 0.3714596257807665 5.2161281962791985 0.47786215160714807 -0.8838048846174843 0.5167616535114778 2.250900801792827
Ni 2.1899249047778504 0.7188610932887458 11.64787990387861 -0.2843295568558587 0.406515578169016 -0.2393553061380136
Ni 5.208039558149487 0.9827510655495287 5.601994092847607 -0.5316894784659036 0.21639895445215634 0.5515880171620436
Ni 8.007899486096495 0.9034020795133753 10.144411678402742 -0.4730428724672885 0.733090416847331 -1.6706568114569873
Ni 8.55031838825601 3.9262766563506126 12.509646734315869 -0.7857795197109306 -1.1246984817768952 -0.27168641417055145
Ni 0.5744013403899713 5.992000337974649 11.287425812101043 0.7320182668290748 0.33625992717656283 0.5615960362173489
Ni 2.5750493428510364 5.85772525157938 6.2001239518057645 -1.8118983067396985 0.46900238384932774 1.236843831024599
Ni 5.6668296982761355 6.973421764379568 12.197750325411045 0.6692856636865441 1.190956324463865 -1.629406803668265
Ni 4.144466746539046 7.981796084278352 5.62856379172688 -0.0015035811287199912 -0.29294455221837934 -0.3354191764428223
Ni 4.048658859285759 2.0681151853633004 3.845241614010252 1.640560249181923 4.650213391364559 -0.8839748345364453
Ni 0.8775498317558816 6.779903867207787 2.415940475348624 -1.000150902210097 0.5398884693369282 -0.22197747698119838
P 0.7112673763961953 6.267014034384819 8.100561484068056 -0.5148374399055714 -1.7938270510602847 -1.14530201695986
Ni 6.198279077492619 3.2395919070009116 0.15277830779724091 -0.5963563225166697 0.9769744640936336 -0.2433034921524842
P 5.005648166408469 1.9906914060052803 1.6040951312678529 0.8691634805552257 -0.9367331000750835 0.6185701396095477
Ni 3.0519927507436795 0.5844650466657382 9.260846152878015 1.08900539925066 0.2598248868462751 -1.4182927517641315
P 9.203235843495719 1.6561117226376165 2.4265083364667226 -0.21172417468430635 -0.08276123965863165 -1.1762979511207419
P 3.690265708182337 4.7352143381630665 3.96761365997971 -0.6030175365869292 0.16019695333929185 0.4162459180829025
P 0.25770161007524384 8.685978515426914 11.343226334869843 0.06956248158017052 0.12762904670559955 0.010926159994200537
Ni 0.7809829421575458 1.5836371556512003 8.963896180663331 0.8935802188366933 -0.052482643279748324 0.325799136854555
