# total energy = -340894.3131371472 ev
CRYSTAL
PRIMVEC
9.05221652960270 0.00000000000000 0.00000000000000

0.00000000000000 9.05221652960270 0.00000000000000

0.00000000000000 0.00000000000000 13.24883390314894

PRIMCOORD
 96 1
Ni 6.373357829415759 1.9313356413958338 11.44178524900989 0.640356896467336 0.5639789346272287 -0.13616099543601065
Ni 4.34039295389862 0.49061655344469124 5.954105329602378 0.7001216752307942 -0.8839020723169808 0.11666200617113458
Ni 2.6433196220979807 1.5396371832446816 4.497462487688218 -0.4063091185851648 0.532355908405309 1.4592421975932997
Ni 3.236638097313694 4.077923937834912 4.628095928547572 0.050961578649531596 0.04273456275404898 0.8158408578726853
Ni 4.7542874467932865 4.515363245724638 2.6778936576197507 1.2561463880079526 0.30276205252943345 -0.9175971505765811
Ni 7.112136370819702 6.14348584480042 2.644401361964151 0.11689829055165675 -0.669073290565422 -0.7345058091376189
Ni 5.114366512873029 4.914448312501691 11.511275493835363 0.33354047136287074 -0.8852722131916302 -0.8631931219044037
Ni 5.565230257763012 8.081836953947567 12.493530595962325 -0.023174124123618155 0.06262924479544697 -0.707293253278569
Ni 1.8010742466327112 6.357525502838921 0.38525509047968676 0.9547123102613236 0.9060611249125234 0.11269942197896073
Ni 2.65127652036044 1.7688211994095697 0.04921509041335272 0.6030118801599744 -0.7869519427524769 1.725775349697686
Ni 0.5146112635974786 -0.2927857941874856 4.614025163292547 0.6344202192679268 0.6551813630746781 0.3756705677637014
Ni 8.58086754258561 2.263905021673969 1.5123411297513722 0.9252793497121871 0.9477258516411614 0.3634817390069934
Ni 6.955116624220596 0.6942199111341724 4.896504103826295 -0.7343487147344643 0.13273705735612623 -0.2400011672521286
Ni 0.8456897438257538 7.342343287443813 2.5327395563476434 -0.7549717903014546 0.1935521317609699 -0.007775015959728545
Ni 7.657975970737807 3.896255005833446 3.8062307132052835 0.12031451532205731 -0.43960721851666223 -0.27429068456261796
Ni 7.696628934993438 3.8701212569327414 12.748637444384554 -1.3697138144141634 0.4074743425378596 -0.7615440442023336
Ni 8.103082505963485 8.894010866354943 7.08125020828101 -0.30162793892499024 -0.04414558416896268 0.06226286259496373
Ni 6.982037915952738 0.8019512443666532 0.4863457177220199 -0.8829733898551245 -1.326556048079767 -0.4399188362198101
Ni 1.8676170897809887 6.814906843575286 9.203699864325694 -0.049162834877895974 -1.386423670969677 -0.7601577053777683
Ni 9.067967309938192 4.836056118016032 1.4298274611145207 -0.5159327298522792 0.0214064907002341 0.27654914157949145
Ni 6.199519064646404 2.102594524475995 6.899979573803488 0.6558233675340511 -0.7885043748412615 0.2186550974761847
Ni 3.405597717414715 4.237469252824491 0.2784099692379849 -0.16287887104682916 0.6339059986356695 0.36322719979402607
Ni 6.042942876653511 5.715931557277708 4.901882930842852 -0.7505885736320944 -1.5261772688529522 0.009169582314410014
Ni 5.262813810490851 2.9133924999824674 9.096900909387903 0.6349974319276355 -0.74453336857695 0.684799443051427
P 0.22605647538026982 5.651461671697239 12.492656151852936 -1.0021008268476161 -0.9538952136766669 0.588609074471083
P 4.057085735559395 6.302524235668613 12.733759221421895 -1.3334643451638262 -0.7094416670801394 -1.3132706438247705
P 2.4477917467064967 8.393921168391865 1.504219481149463 -0.7716551644944065 0.3370312581249486 -0.9791357334110107
P 6.446318694029433 7.780850756875029 5.86826587664058 -0.8273038642069622 0.16824193513095542 1.0906678745547476
P 4.622215608739502 1.0141560181300688 12.489463435109853 0.23056161910578357 0.37181571279398545 0.7274532731662118
P 4.102636488752448 6.123263193243726 8.182598985732646 -1.128489059167579 0.13398584216156278 -1.1238129938481483
P 4.779823749408074 1.1262496144713996 3.804575062815973 0.21444285916705005 -0.5148844910934228 0.06057056249420535
P 0.2007691087179499 5.506046866591275 3.6881173929225017 0.19031845531502062 -0.3680228214104565 -0.5768233946900647
Ni 1.544977990952134 0.9751681218656653 2.4443437574594316 -1.0021537915727385 1.284571219007549 0.20540337467260109
Ni 1.9807607432309036 6.50536630195437 4.627327395370686 -0.7115000922710649 0.08784688171165515 0.7147052294719239
Ni 5.935393492971742 5.396677987402391 8.962663781158488 0.3331995430836842 0.7494488036006963 0.3128559464303257
Ni 8.737959706916342 2.5753012676678138 10.255644360040103 -0.4874767885044315 -0.274102994031844 0.5699024992005153
Ni 2.4291170241633195 5.079750837155575 7.014329887706629 0.16951977340211452 0.3251941562807044 0.38510600214498836
Ni 0.4855129138083154 -0.018439364915391315 9.486536367409347 0.061076298486030293 0.9201782810401959 -0.9050933616826154
Ni 1.3075474055982808 1.1240499258732455 11.527995842846272 0.26617833986812867 -0.008318032947392126 -1.0863309377422903
Ni 3.9921270302904457 6.966585782466939 1.502682414795691 1.09807470854178 -0.3754916189836759 1.31437776084602
Ni 6.06501218036668 7.739889477423803 8.169761132358563 -1.4220848718167123 0.02316898191729558 -0.9522317099313149
Ni 5.46623521862962 3.059848309980561 4.590707558930468 -0.11457427040417043 -0.11009797980037168 0.6132315010054535
Ni 0.6399971345788489 7.086391867226489 6.531807826214488 0.6003153071644177 0.6381927989364815 1.214941888745185
Ni 4.9175713271780825 4.255899565523429 6.951159900408854 0.2960265335778127 0.8991353443269677 -0.501604486155065
Ni 8.30178770933008 7.113792926430657 9.156374876707792 -0.6723069670113712 -0.016011802047224036 0.38240145872963177
Ni 4.543850570903202 0.4574148339372429 10.218216160670604 0.10725408259367335 -0.7914318329007015 1.4922263658288042
Ni 8.051222357902475 6.982825458784176 4.734695734723389 0.8963192150344113 0.4546270889642621 -0.6896724548730122
Ni 7.509727821881959 6.047994013434458 6.941103793150874 -0.5893192131642302 -0.6256956949107354 0.5805756626436454
Ni 2.2282211844150233 5.297746313784172 2.472311485413576 0.6486538463688055 -0.9291249487105225 0.4102470201869902
Ni 2.3363227533004447 5.269367615203047 11.420785917281501 0.8578208018488968 0.6018186311828215 0.7154181963785486
Ni 1.0769512436666764 3.399849559966863 3.7410728591743623 -0.6245114447946469 -0.8278818481976195 -0.4632035177793636
Ni 3.5791649156904697 2.502141254292167 2.4458808238132037 -0.14340713547546272 0.2864484029710744 -0.40830506596927096
Ni 1.1364243057649195 3.3636135375042655 8.177789543131002 0.03540434764122289 0.25485802975930305 0.6489572365418371
Ni 3.460055851597824 2.4045674131419443 7.331931428079217 0.10600246957475938 0.3621751043804279 -0.46548177229057897
Ni 4.040764589294078 6.649957355363082 5.95896727505945 0.43581098469902363 1.3587634860502469 1.0230614882596833
Ni 0.8124735407719802 7.343809746509249 11.3684007406662 0.465501826895237 0.7892967888355696 0.07591901992581764
P 0.3581943946141636 5.572100890051074 8.170476257458374 0.23463347518231203 -0.9967169368278835 -1.180281104138206
P 8.57835102641159 1.7309376735524697 8.195927469238498 -0.591350384661646 -0.6760787753489776 0.24460215635924967
P 1.9801451925120783 3.2857735282222578 10.604671575052 -0.8029043523166752 -0.44655665325130195 -0.9292876995406318
P 3.9106118211283944 6.051270915790556 3.8669502655091472 0.9362713299473167 0.7599784994874267 -0.5755216451595057
P 6.8525188029387865 4.120052953208615 10.381203128355732 0.8290663554240237 -1.250014306968286 0.9735389560495233
P 6.477539788576896 7.795633026343284 10.31136889930503 -0.7599630728684589 0.027516203142397774 -0.03860177153259803
P 2.2888348257863833 8.520290110080063 5.91319293212 0.6043511677966882 -0.5653025385346586 -0.5279413242773812
P 6.737791011609543 4.153229326509994 1.5518223718124813 0.7965215887187831 -0.6687246489767515 1.082349070276407
Ni 5.384013936584211 2.844514184989236 0.4295321968177592 -0.46369588403474976 0.11399474375161657 -0.5989320536636459
Ni 1.336251983971725 1.0050675928109463 7.227715975717201 0.3968747126451423 -0.14662898484687006 -0.6297027591875993
Ni 6.8525640640210534 0.6678435628325193 9.32774872293691 0.9217232569298125 0.9764787554041376 -0.40463147377242575
Ni 2.533389505488991 1.571654872840037 9.358856664778708 0.043550116676808866 0.07889352917310928 0.5781230873380947
Ni 6.362730527299573 1.9924743113214858 2.470562597194797 0.20779141528880343 0.47175295001127143 1.331568413692694
Ni 4.100961828708585 6.917196889497683 10.238724862267222 0.8632388875406745 0.4041650756589685 0.7100723586856029
Ni 8.205146246474548 7.295805842657351 0.5748456170994448 -0.08204673009011032 -0.27320773591108427 0.2092664571724331
Ni 7.739110986808819 3.886044105674113 8.246233351734475 0.21309328711769107 -0.44931184739893587 0.017356746110892687
Ni 3.0252688431289187 8.30985323418998 12.525089338183498 0.30607183362895674 0.2844205739077682 -0.22497615459820608
Ni 0.19951537673916656 4.9910119592637825 10.377731603345888 -0.8027035491597788 -0.51356705783358 -0.634518692519004
Ni 8.717691794277382 2.220128502905765 5.883290745509783 -0.594053642525422 0.3067313215898266 -0.35907615374013
Ni 3.9039041287364924 2.788336129679998 11.523080489312123 0.08179321931840752 0.35429518741171884 -1.0179059122006728
Ni 0.952637155113378 3.412106261044644 12.568175172836314 0.27802161235995987 0.4073977236636533 -0.03005722439669662
Ni 3.109943275833175 8.522942409500883 8.033986937775374 1.211195020108243 -0.26692293134363704 -0.3081834806553208
Ni 5.71990548030071 7.853540054995103 3.772035965552907 -1.4073277681121956 0.5968944544083269 -0.5008866341524342
Ni 3.145771948555374 8.492065299178645 3.5825640229686875 0.8614172609509035 -1.0336570043873425 0.40720849047098256
Ni 3.535125882645119 4.40970577528161 9.477221636678893 -0.31110399673622546 0.12858061198559148 -0.6076686622056954
Ni 7.395090552717248 6.460720770406648 11.688584878392916 -0.11091044839933802 -1.3972798969578903 -0.8381305225088211
Ni 0.6819125176442528 0.027288811720146616 0.27105413814802565 -0.052269498827677716 -0.345691762013424 0.4828966253329168
Ni 4.662796695099688 0.4944646506589931 1.5298689364699154 -0.5506742470985226 -0.9839393254472409 -0.19342229105132494
Ni 6.034542419784841 5.8022897022422795 0.2946867596426806 -0.030430291465399203 0.040976956632993944 1.231371495056118
Ni 8.036313357403875 8.83177687823844 11.459459701634975 -0.37031547409937515 1.0080840410142444 0.6322584357299175
Ni 0.30214669122185284 4.71646728645136 5.857044749125057 -0.5770367962524514 -0.4852371005406353 -0.20056712962622233
Ni 7.838803046609116 8.702637958315528 2.6592135037467015 -0.030146955897025502 0.08718945063331436 -0.3523617178344319
P 8.645889613369732 1.4153321469078364 3.651179823684773 -0.17349315622756573 1.537691697250455 -0.28909741055814725
P 1.7050302300630982 3.2968262845117486 1.4260517816318452 0.3936554343768962 -0.3672944278848642 0.857672963417123
P 4.958505449979948 0.8396944608687269 8.199610816113351 -0.4208991005841977 0.5983072755954535 -1.4348041191555934
P 8.484488594007225 1.7163726572790947 12.559192658449694 0.032054457332383504 0.003364288486542593 -0.8974075630025835
P 6.138796796677605 7.797398208551679 1.4047609685336615 1.2303944758548293 0.16994863340941696 0.6459079081925521
P 1.758438307137624 2.9595588038943457 6.014162259661859 0.6994819847642663 0.7388825980490759 -0.416604844084218
P 7.027226580487659 3.9022204164761765 6.0826323196930465 -0.1794131212564265 1.3657473735672478 -1.0926409391207184
P 2.5045672483016537 8.535470677072263 10.299510495751194 -0.687498587150145 0.9410839208446115 0.4757523009786516
