# total energy = -381162.61021355225 ev
CRYSTAL
PRIMVEC
9.23305561147964 0.00000000000000 0.00000000000000
0.00000000000000 9.23305561147964 0.00000000000000
0.00000000000000 0.00000000000000 13.51351017897279
PRIMCOORD
 96 1
Ni 0.20631908506372776 4.29050849327896 6.8891057578874015 -1.4195441076727295 -0.14804154892368052 0.3450770112475605
Ni 9.176050472016733 5.077321771532749 3.028066371343955 0.2984631680437634 -0.39952603422506033 -1.1665092471650942
Ni 4.0043207094710995 0.5837811608967199 0.6361279682363336 0.6024601214215625 0.8930608559981136 1.1282972548717471
Ni 5.594973020054741 8.649406227578208 2.1671079653610836 -0.4710793209830145 0.19875964410383834 -0.4017125003534179
Ni 4.935225049607244 1.3361431397014745 10.628172789958809 -0.06448223884378572 0.21915183460694518 -0.6444367229636644
Ni 1.9316936762602115 1.840221796850466 4.998444702933828 0.6626149365345878 -0.5720691678345309 -0.4610144805478447
Ni 5.443412416389558 7.4430059817362 10.20986183062076 -2.088112947797907 1.8609922360528723 4.024939871592906
Ni 3.2295288692905406 6.641392115747091 5.3584710770329576 0.23181811722070397 -0.8114347583851895 -0.54562640026197
Ni 6.081942825629467 4.999330152942448 1.4915807033105513 -0.9599902708308112 -0.5187696850804421 -0.7301508746030329
Ni 4.405099943299587 7.414438908465406 0.270666094449253 1.2562592594367334 -1.507080400122501 1.1288958076876945
Ni 1.1057507094086128 1.50175645361816 11.663239844091223 1.485649741052551 0.11158741986170459 -2.3494907809535985
Ni 3.493455756635607 3.7788494976828706 10.829673143432352 0.400585071617194 -1.830340058384654 -0.905618638058466
Ni 1.8691120270587118 2.6918603567572097 7.044930186515886 0.8585965036726568 -1.8339856255570415 -0.890766403536982
Ni 1.5293725221873082 6.0600881836023275 6.849241118083271 0.44784760414858354 0.5009172302800534 0.22087910171069702
Ni 6.247251448719412 1.9152126724501382 1.4632970848391802 -1.3938222774265931 0.5580882801744065 0.6188133659686053
Ni 5.770585732921741 4.410058094025643 4.16763406929866 -2.0323071536821966 1.1415528343300727 1.9875218790467062
Ni 3.526916349244966 0.6832941082158172 6.066971426370063 -0.5741872426187982 -1.3164914647549133 1.0887146074831184
Ni 7.98891037964689 8.388101527954182 4.521607252306539 -0.3086874168749329 -1.7749731515785754 1.8351673045699683
Ni 2.3620925516700515 8.111516121716337 12.952685883025286 -0.7222588734494657 0.4043617650508068 0.5126103503472655
Ni 4.9066302771703825 1.3628543688457555 4.4357823095523905 1.6558511139027228 -0.5555030359457336 -1.039214958091094
Ni 8.273168454885392 6.80999693959905 0.6843900718865487 -1.5651634203081624 0.4818388734923638 1.5822702551917784
Ni 6.788733213114681 4.186553523028195 7.0327684060012485 -0.2672024102572689 0.8067404382333139 -0.2526512519159713
Ni 9.068189919350472 1.221680952455828 5.240539107584609 -2.419656186225091 -1.6698392006516982 1.4488652252343501
Ni 1.4731339820152318 6.166028260754585 0.8202147793088707 0.6908849871238747 -0.6914693988724349 0.22279483067617115
P 4.888090302015969 8.946322821709487 8.651524290476823 -0.4881262491629722 0.4796493220402127 0.17168644203613012
Ni 4.962637990958564 5.438001845951069 11.610699142589135 0.906178110106362 1.2113140621846106 0.6245155585597051
P 4.294414075694456 4.36011649760621 6.483606586161038 0.19347371311455067 0.6487878008435084 1.3852039396299627
Ni 6.381186149710404 2.478899934976067 8.958849307910679 0.02104113694101538 -0.20101501579691833 -0.36389671505722493
P 6.431709428617251 0.5344415596864849 5.727065726502255 0.9911767237359446 -0.2918873145984586 0.31909215714802464
P 8.155816321313385 8.150184157546358 2.418337554980877 0.07591284927823055 -0.034302372826295766 -0.6689138821694222
P 1.5888980300660431 6.917368140331455 11.397537440201237 -1.7532434732109676 1.449593618759942 -2.1573116182807555
Ni 0.6460959747984372 8.950256103291052 1.0157145701066914 -1.7666828865453248 -1.9258938218222639 1.023346880710586
Ni 8.705626301639573 7.103035650480901 10.220416136197954 0.2810783969084127 0.5671712163122813 -1.3366530273044528
Ni 3.246942411691548 1.196511643555963 2.8919582091222105 -0.622544036655631 0.30110703342451367 -0.8336092375996997
Ni 8.923073988323626 0.757648826301476 9.75669978053677 -0.42253535063604 0.15207175312899615 0.6937980470056117
Ni 3.7728295455908993 5.2012386074627175 1.0097675591520314 0.17390221874052633 0.7395405433480489 -2.300858621768192
Ni 1.0222377237155522 7.524940114963421 5.197958102894807 0.9064120804940389 2.2641890342613005 0.13976773895066252
Ni 7.038672021595736 9.082916642642946 11.215970329935294 -0.7180679752965697 -3.8006969956162995 0.0631159546238784
Ni 1.7995317218975284 0.3714448936576281 9.404443022519532 -0.20688587275539852 2.0814586757061835 -0.42804805292415316
Ni 5.168756718721071 2.3375510905343795 6.6487277782272605 0.4252411796029773 0.2783679399557851 0.6201094590722095
Ni 4.372636520668652 8.929481728740539 12.139294331624338 2.504215912545042 0.005418342802093894 -0.4291919367206092
Ni 8.565828610497656 6.116871474040395 5.114403568452645 -1.1939588587356145 -1.3903520594898056 0.7363240932932803
Ni 1.7735960694031332 1.4005713999741305 0.3479827766930471 0.5339931868984159 -0.38958177852815484 1.217057135315975
Ni 1.990517471931907 3.3739246219996364 12.888955641737526 -0.9243110722616468 1.9947914161249256 -2.6364960848694077
Ni 4.719642440105058 3.274170691935753 13.225482966650654 -0.6981511817679847 0.6599857264418569 0.15374708394889006
Ni 6.047734355536289 3.5007683364773876 11.05636219522201 0.8879397327214643 -0.27334580415084536 0.8009433719355625
Ni 9.123892942311912 8.026544313277062 7.6410790250616785 1.1693726847558183 -0.6415570874230241 1.053685126682811
Ni 1.150013976784238 2.44298334964207 2.996377602057371 0.03540331919995838 0.2813362785554897 -1.9715923523006431
Ni 3.904225156359052 6.425495582362808 8.075335470999164 -0.9475636150316842 -0.6926639334011683 0.9434768465568202
Ni 3.58059733308349 3.346631710367941 4.685282547904046 -0.1777604161443519 0.9870837846134937 -0.3380296174824759
Ni 6.196912830919681 1.4775381494199404 12.757956129044137 -0.7665654086763249 0.5952180951471685 -0.8172667916859344
Ni 5.2918425796690185 4.612243540206586 9.019821635563666 -0.7624297892413966 -0.16342394491702178 0.26949583427713586
Ni 2.6000191551332326 4.443269394140396 8.271686549500789 1.3573231540592947 0.5085505784555951 0.6135438900395498
Ni 7.370868120241465 0.8602336111374423 3.291580541114618 -0.1617010486886441 1.5648674863342984 -1.0527564442209547
Ni 6.777395021137779 6.218296587123675 3.2082559097508154 1.9701990714975424 1.8792038739648926 0.6125892394357644
Ni 2.820319855922223 5.523536870767045 12.135213321157082 0.271499494970726 -0.12559041900901596 2.3502315157743654
P 6.3016064455989085 6.438745016798358 5.533093083060281 0.016135986329914146 -1.9897772507397862 -1.9983575362096295
Ni 6.323811943729567 6.693614276839401 8.631970525844347 2.775800768140723 -2.7986599321270837 -2.7887226184087135
P 4.91491232782452 2.9693783015859894 2.788674481995811 -0.8270346697059756 0.0127999799781457 -0.3305520781585081
Ni 2.2274838376380863 8.388184625452386 7.595970933120998 2.473108135396644 -1.1119555802889303 -1.2539596647692792
P 0.18316996867570776 4.227917611022105 0.7930372808691223 0.37511032438485725 0.5565947263480155 -0.2258387597088175
P 6.294903247410609 7.282258487992012 12.540280385892796 -0.1307789051884909 -0.0698887545713377 -0.02815615071924183
P 7.46321713991001 1.7447427714163102 10.978145290081027 0.570141868904831 3.8923565662058253 -0.3440753094559235
Ni 7.288296906194694 5.735998707558976 11.189388363565993 -1.3539328974308231 -0.6350560530797127 0.8790935951847441
Ni 2.8080029600776077 8.099827073635916 2.093635004061902 1.9051697019010352 0.7708707209198982 -1.2221607750911274
Ni 8.435143944991898 2.343137089024628 7.569998348405179 0.53551707974211 -0.744739056829853 -0.26178123924169755
Ni 7.0017951985047375 2.6434422144714818 4.976579904545797 -0.19052388645760734 -1.3188707636203674 2.2176165858184
Ni 7.31889525164376 3.7706967098037136 0.009292146910060353 -0.9371244219762312 -0.16440147833894267 0.34685158664948007
Ni 7.150982906943485 7.696933470130953 6.902714358176291 0.8007659658174339 1.6265827039559082 -1.2825834991535587
Ni 4.3588238698564 6.052064658498152 2.932107227031299 1.877609532894579 1.1658950106198631 0.26501311591543386
Ni 7.3299656850153445 0.4234002194501566 8.277551386262783 -2.083882454656327 -1.2123196206309896 -0.8160581160898139
Ni 0.9455294998197044 0.13561973359342358 3.588890463404055 0.31078235173074864 -0.4351900632855731 -1.51987086701895
Ni 1.1269405714501355 2.890334114685128 9.090349252204351 -0.9646802201073127 -0.8993754853622318 1.7623922295897712
Ni 8.116049551896026 4.229561094875434 9.467957210311965 -0.43902743475379225 -1.3632588028174393 0.3505758295786027
Ni 2.6694517314087234 3.323299779483876 1.3902026788095858 0.9820536783887538 -1.7107801618404344 1.949171818513598
Ni 7.381753892505933 3.534164297699256 2.9983507059869017 0.6706570901127741 0.0878391684021713 -1.7308429940285806
Ni 9.15821220906936 3.2965054528413926 4.6249177552934695 -0.8554561582714623 1.3576149742681005 0.5697572318719026
Ni 8.558820721482617 2.3367293486077148 1.5000668044880519 1.5819812631964496 -0.27331572224385836 0.8418125993460986
Ni 9.246073963834993 5.84985151315114 12.543483332795716 0.7913228181266629 -0.19653306876616478 -1.84354781532418
Ni 8.866752350653346 3.7069886278488084 11.951578006491443 0.40929931156174026 -1.6291584351028847 -1.6251685972172012
Ni 7.154196010207297 9.113164131988492 0.5720699534834442 1.0588497016028862 -1.5223648370853975 -0.38910432467110406
Ni 2.570168687167985 4.949951772899718 2.950972205734235 -2.9058075710498796 -0.23505976408645327 1.8000167248107644
Ni 0.03704671130954507 8.534648582561175 11.918888374004293 0.8995405501851862 0.11916548931927862 1.2345768893672933
Ni 1.3114816488461771 4.765789250773263 10.487146179149038 -0.5538086789624462 -0.11155245285871111 0.08629599228476752
Ni 4.910738986803706 7.724115585098379 6.659349485108554 -0.5619302796283161 2.072789430066959 -0.28343558428667964
Ni 8.62215948122329 1.4258976708150441 13.061280463592333 -0.7465542556617207 -0.42863657843777153 -1.1788171179981697
Ni 1.5580411590670153 6.696735049549655 9.094970396409922 0.6184127880960769 0.02809521557431936 0.6280716513420797
Ni 5.071791171374635 7.7660428894689915 4.143026130164426 0.32895825130882705 1.1448052798290993 1.6735241057024532
P 0.852020808398473 0.5778258401922396 7.026268335030776 -0.17541608428189145 2.2185210999105403 0.23085009688047983
Ni 3.834986474246033 1.84174525098417 8.606484523145777 -0.6059977022611757 -0.26715304507657217 -0.2853292017649666
P 3.394514335443033 1.6639720031639176 12.27919912620838 -0.10689181415824817 0.5475228459537346 -0.39686185712933586
Ni 1.1360997623630726 7.068227031789598 2.910945064155843 -2.1712336276784865 -0.525853588510417 0.9357936189799496
P 1.3466226575302884 4.749825298063114 4.928160838954533 1.2333766984116048 1.5842826576361166 -0.07386522272058246
P 3.0185443213555354 8.589317503322768 4.21514737215952 -0.40982844459233286 0.14627700082409 0.8550956896082499
P 8.728828969748655 5.7865773847979565 8.345132734939439 0.4654655743406629 1.920727704240292 -1.0300572028512258
Ni 3.1396173762359223 8.364769597070117 10.471794378008978 -0.058522421715925026 -1.8757634808247758 -0.9321223407759496
