# total energy = -340890.3699609539 ev
CRYSTAL
PRIMVEC
9.04729763262296 0.00000000000000 0.00000000000000

0.00000000000000 9.04729763262296 0.00000000000000

0.00000000000000 0.00000000000000 13.24163460020247

PRIMCOORD
 96 1
Ni 6.229480677368688 2.0123452023012707 11.471996166712449 2.037295093815091 0.6833555115160489 -0.5643604863363635
Ni 4.4760510421100514 0.26395853080912884 6.014906821334254 1.2815694560667477 1.9678300570447336 -0.1433927372977595
Ni 2.664582991777737 1.4540183634818211 4.874603507373829 1.1348777363027422 1.301023193915985 -0.07261412392230075
Ni 3.4380002873332116 4.135375045290205 4.532015816539163 -1.5995287851619098 1.8977361284411252 1.1922084517034113
Ni 5.036395428328009 4.5069023274415 2.7127209489223225 0.17911024530402703 0.6760165546524746 0.026084098681561526
Ni 7.325162718820404 5.943296554904065 2.5001528787993204 -0.222580657782836 0.9529840147163071 0.4005125665080457
Ni 5.086544599762676 4.625168603644634 11.56621020184413 -0.07399094966516934 -0.7966424305673634 -0.5616217472489617
Ni 5.830214380312344 7.930309323502094 12.520667544319373 -2.0187299292183942 0.17213278554492936 -0.26982185015798693
Ni 2.0252737907876748 6.5402824970142115 0.19925587621194882 -0.9285945301283492 -1.7086692861450186 1.2144803757277343
Ni 2.7762085514315222 1.5265776914461064 0.3754293816713688 0.09116180501750107 -0.3791531269956631 0.7997002435570809
Ni 0.6456070249546435 0.23274625829740958 4.7518669613518485 -1.8828769519411055 -0.6008459828569073 -0.07793116525983998
Ni 8.734795039535044 2.2174474423200174 1.1770461995874268 0.8377199173339637 -0.5940112193232608 1.6617551380919833
Ni 7.148830885650338 0.7590339015906838 4.860103403268049 -0.8676071918116993 -0.3520719545081549 -0.7687531603562632
Ni 0.7757551172943736 6.869287479735065 2.148958493613978 -1.1440257213505973 0.9625899132371875 1.2895100510700628
Ni 7.736914286773345 3.7999464811660304 3.981587268656475 -0.8521890574844163 0.30471197716695264 -1.1551107755201655
Ni 7.79931349936308 3.6983996112070354 12.892373058236364 -0.7560938197210397 1.6090459806237254 -1.6726023652191322
Ni 8.046196160396674 8.844421146385823 6.707245853362953 -0.026066872290380915 -0.20807166553338358 1.4843549335005275
Ni 6.996628195582611 0.6394087212653253 0.5669416757381017 -0.3902397238271279 0.20609757252614827 -1.1102409115906684
Ni 1.668638360734786 6.690060511284629 9.264232047175495 0.9302153535612239 -1.0881371377130937 -0.18651939328390457
Ni 0.29853549335450363 4.669437031541049 1.6076007664566 -1.7752654860080135 -0.7329379504298669 -1.0034557982136139
Ni 6.343811379050069 1.870754992495651 6.993820819090426 0.04577849178669535 0.025206324062298523 0.25240134068869435
Ni 3.6459886153345784 4.333610386315823 0.6874299682689207 0.28285194386906765 -0.3842266848638286 -2.0185484093352075
Ni 5.912761924993908 5.756677944190934 4.6159937389951855 -0.23069300247732524 -0.4942619297470649 1.0550478113582926
Ni 5.070892774653173 3.0516716260610233 9.352818663105957 -0.07133345743766425 -0.7723349641702505 -0.4878506269040824
P 0.3283617198507455 5.452290658650981 12.357305012475592 -0.6624861242662075 -0.4210564520976684 1.6345649508304365
P 4.170351898396182 6.334302669113602 12.54237020216485 -0.3442979669896909 -0.9427908762333891 0.6239871968600609
P 2.340888772836814 8.222708939521763 1.5384531744742762 0.19780499350005287 1.6303545122935146 -0.12465196635514661
P 6.234384312749817 7.81111117563059 5.86323701710407 0.6204537297855056 0.06095057154144341 -0.22948946908752735
P 4.75555825883432 1.1238372320533176 12.672244161382721 -1.2089350204294729 -1.3508303472460992 1.1415307228428857
P 3.997005673483998 6.23980364410276 8.090254690985262 -0.5514826019324309 1.0487506654956713 1.093676065253452
P 4.929004004021766 0.9725030825697015 3.8560695833057874 -1.1661348945448111 1.0615521881357137 0.5765215471789298
P 0.008168805139520363 5.519702074194858 3.8465753490457226 0.9383726925610355 -0.039502428969996485 -1.671642315298708
Ni 1.6178468311597864 1.0057247599119528 2.686145416508072 0.25517016168308315 0.27397238199125074 -1.845191778685506
Ni 1.8294721728571182 6.452044202047169 4.862235851347997 -0.9890488787596645 0.3589260013155109 -0.6684086603982295
Ni 5.868095415996442 5.690768380073749 9.264854501260775 0.19840997407390346 -0.6556696155650064 -0.2693644509055942
Ni 8.804459232218958 2.362493719866579 10.067654705722687 -0.4946473381109417 -0.16843733897121313 0.46967549865695246
Ni 2.5318138972794966 5.204385652971507 6.839463062698373 -0.25569492383830156 0.8430935229410512 0.35184878275375536
Ni 0.5074964058641195 9.036667176300174 9.19603713564637 -0.8354660883027806 -0.05892171403687271 -0.023132215142089196
Ni 1.484688702858246 1.0380959912655954 11.632961164652174 -0.6359957912851627 0.1471339495077466 -1.839273356318542
Ni 4.108414097991755 6.996293445565818 1.474905859799919 0.941802801288507 -1.4983910998786194 0.4933756704873697
Ni 5.601752017500108 7.887741787582897 8.104105199112508 -0.5781207733452495 0.19419233644813005 -0.5380020509474929
Ni 5.251006378283223 3.0369697672153917 4.80775935739895 2.2023380623927746 -1.4587135787833394 0.8283423327738056
Ni 0.810055232528563 7.376895167361524 7.124423085777264 0.6148330411646185 1.1904279627642207 -1.4840731405940506
Ni 4.932405787976202 4.704531499517791 7.032420210215966 1.0744375287388142 -0.9005147411729975 -0.8823727801566482
Ni 8.10947296086827 7.143936297566961 9.157742638455042 -0.9816227614989224 0.6981339553768041 0.6895546983482254
Ni 4.573273303743993 0.5404339980569844 10.620929533477888 -0.8538692734003165 -1.1441169955128232 -1.1926074869140428
Ni 8.24262204187206 7.310587522143288 4.594608641300773 -0.8319526758328833 0.4213066204352615 0.5507367249053418
Ni 7.111212221601024 6.123808239635165 6.910954809528022 -0.4390094370316633 -0.07650523144659081 0.7236832646008181
Ni 2.3989543298037446 5.061239307952689 2.4139230839330352 0.38377108538364874 1.3792698335337148 1.2864841197595458
Ni 2.4633620424942375 5.358732552606258 11.542587707415858 -0.31415178242361375 -1.2644371672618353 -0.8929569834303976
Ni 1.3543533314550669 3.3248457343594815 3.733929254205607 -1.7668590071118733 -0.11863301385457634 0.516338192820814
Ni 3.6831006307098275 2.5869481297750525 2.6665073520094085 0.6434455626949886 -0.9610765619164544 -0.10920580700340547
Ni 1.0882180208070096 3.8317386854635984 8.211084971371074 -0.12074388954999206 -1.1475188221055204 0.16171364709413438
Ni 3.4901941480596412 2.811456823470033 6.95446688333244 0.7913392731868952 -1.010210600438944 0.7920897781996745
Ni 4.044856831289872 7.092321463896606 5.807754463645095 0.0974214127739677 -1.730215901967543 -0.03658731220573054
Ni 0.6707720836494889 7.3681826196271585 11.521599786092724 0.2979880281795578 0.4611823735842767 -0.801307954363833
P 0.017494759661413808 5.715449408338908 8.001535984507633 -0.08147851629146613 -1.6275185855066165 1.122422798368841
P 8.556273760309198 1.5822547618067315 7.926535695610086 -1.6227623017685535 0.3886600380448339 0.7658462711221132
P 1.7884517248533687 3.14088702918519 10.491797452675613 -0.039585989822738275 0.39092826525372026 -0.7361639135663323
P 3.605673856555419 6.2651632196992555 3.698031386188563 2.587133732386196 -0.5032201673816172 0.23698140658919833
P 6.850613857176675 3.7825575748883047 10.313075323439692 0.30073885145181756 1.6913613909941905 1.1989491128613543
P 6.245729624129768 7.776351457670642 10.31524667489997 -0.8657272011801671 -0.727147826110651 -1.164615629686807
P 2.256531768605019 8.486917175748824 5.745347108487383 1.1518218203562485 -0.14781246363200995 0.6436000859949819
P 6.831135025118432 4.059251082011964 1.6148304620895502 2.3555439291262146 -1.6058243883626344 2.021285862871028
Ni 5.668340128948629 2.702726399096619 0.5383440722764671 -1.3540154298423004 0.2580845071164007 0.28209501109838514
Ni 1.3332097966106111 1.2189514733112394 7.001633160698551 0.6200001871878548 0.03690844299057515 -0.5853144628802114
Ni 6.723996925149222 0.6815465105413426 9.243945291428075 0.3540465617360225 0.7364243663165704 -0.25863523741354816
Ni 2.4029532354097562 1.4325400786205726 9.11883835339529 1.5059354878847808 0.7949413887158567 0.7498054156091667
Ni 6.556820957303328 1.842364572152518 2.8780431254590044 0.5491009890741319 1.0700854224177054 -2.187354187389433
Ni 4.090473306551209 6.970671498334538 10.407832196436443 -0.006197901280595777 0.42328097055281294 -0.6897614150423927
Ni 7.893333017593112 7.119083370644531 0.05808998467085879 1.5745762289816303 -0.13270003347060375 1.0056162962000423
Ni 7.528392168204661 3.7275319099657636 8.292838163310087 0.8010467302826463 0.11337510788974667 -0.1905953631254911
Ni 3.0182961446570022 8.245399562281666 12.383801833399408 1.405439035729915 1.615938593978501 -0.5521657440423845
Ni 0.065390249226268 4.9875943042582636 10.24929006483448 0.058221088425422306 -0.9937925640922368 -0.29539507064140097
Ni 8.664958948193858 2.5334424108747053 5.655926331704265 0.6657190293812084 -0.5917337361429937 1.3296984503634905
Ni 3.550648191632878 2.755055969289315 11.643514837478898 0.30262038474524655 0.17446040523684148 -0.2576163092307305
Ni 1.1726835926118186 3.2344089460389083 12.6625119831918 -0.0660315856087766 1.0390156975960945 -0.13176466614052793
Ni 3.0794830193480824 8.456979667490243 7.783061838412675 -0.18559842413153196 -0.5252583781285793 1.362468188595344
Ni 5.709532475609651 7.984900718132581 3.717654975010824 0.16312955360505454 -0.13168856148695385 -0.8266209792073248
Ni 3.271882853324204 8.51158010941848 3.480894430701226 -0.1984194871556002 -0.8289501415611336 1.2451909174377138
Ni 3.2298400606745736 4.481217049125962 9.458883753561881 -0.004898722853198015 0.44205876538094835 -0.7498097864845409
Ni 7.136743695854792 5.9638429680969445 11.366513722231701 0.5080355864923896 -0.4668945934777056 0.08962505665800048
Ni 0.7958980210075514 -0.13745197581423976 0.2878823002525154 -1.3670041287924843 -0.19464253661167122 0.4756527992863098
Ni 4.630786975548103 0.22272728076777748 1.5569250422928151 0.5093375931332648 1.223373564452306 -0.08801220364492583
Ni 5.918145067155846 5.44977550987616 0.4702604425096794 -0.3771227268291957 2.115376411499551 -1.1360714995005272
Ni 7.832453751025572 8.74735268881365 11.21142765837068 1.230317342759991 1.3541918075191648 1.066063702852822
Ni 8.991711153774672 5.061049314699914 5.954273641265544 0.596874656913985 -1.2957606599654652 -0.11706901180156612
Ni 8.143590320687888 8.631474899216823 2.3604273170602146 0.6843351018204988 0.44641369991553437 1.176554290105922
P 8.779787251251552 1.649421900311327 3.373346488143888 -2.0365535876633762 0.3381699997150821 0.952396260533637
P 1.8721120871583248 3.1287546029008877 1.600886766795466 0.1197010501077745 -0.758765453015932 -1.222143805810263
P 4.625512400959178 1.129808448569082 8.30614673830204 -0.1530675413833622 -0.07793425058363353 -0.7393901338131138
P 8.334922573529372 1.6375247037685543 12.313343287972941 0.89926801325009 -0.9933901864474955 -0.28187003957177265
P 6.361842643468127 7.780513214636175 1.5140752306837817 -0.19493975613711587 -0.9410268423544309 0.08073675302943514
P 1.7150419509004744 3.4370774629625935 5.982531066331736 -0.3693281704854413 -1.3949026549749655 -0.5674946610899709
P 6.885626899473656 3.9125943854656957 6.263531991914721 -0.6865040844473596 0.5715130382207447 -2.3482862191225364
P 2.3274625829740963 8.44569768719455 10.222144552661906 0.4584588040055265 1.2453323281115842 0.7120749909379285
