# total energy = -381164.9681516662 ev
CRYSTAL
PRIMVEC
9.32669495224938 0.00000000000000 0.00000000000000

0.00000000000000 9.32669495224938 0.00000000000000

0.00000000000000 0.00000000000000 13.65056081938766

PRIMCOORD
 96 1
Ni 5.876591871382444 7.375046646121514 12.534231014955303 -0.13046934436787208 -1.202015153381188 0.06988644057849254
Ni 6.894945702005766 7.755295995169596 9.971829794486544 -0.6882359795368018 0.9782890691399991 -0.5320414624886837
Ni 8.129874713748674 9.151352987146858 8.195210076514227 -0.3383929143591656 -0.012364177992307738 -0.3775243331429885
Ni 7.655397766627678 0.12040389983986047 1.416860184840931 0.20684447799450184 -0.8374100994030288 -0.03537992216119068
Ni 2.4344632165288016 1.8758967886372013 2.8609524533058646 -0.4457207876135678 0.9239068948446928 -1.4567240591571364
Ni 2.594434686601715 4.850039875985678 12.999852265315909 0.8060660378741086 1.0164141581464947 -1.3129130033750358
Ni 1.3537137973567506 8.331779003868686 4.694632890372517 -0.5667097032948304 -0.043388908508596245 0.09916462071731955
Ni 0.23546080552202495 1.5477277036333803 11.604915409390172 -0.3805152974505124 0.7520980682980853 -0.12196619199286737
Ni 0.142593972227773 1.2275702495059952 5.450409482865957 -0.8609125534003432 -0.46173927452901126 0.16075436850465863
Ni 2.2855718599380834 6.0322264283499525 9.721533015466093 0.6000975347266568 1.3137540112190922 2.937733216113882
Ni 8.889851116933217 6.1302779713115045 9.389620195149348 0.9356082424420209 1.2507398722804008 -0.5045537985913762
Ni 6.169655276969611 9.042128063754607 6.513160246315835 -0.794275987217716 -0.24793662004912137 -0.3759808999152686
Ni 5.2770999064875825 3.5431274333878995 3.6157469448315633 -0.40084912391185806 -0.017878422942317597 0.33236959098322116
Ni 8.41506638888216 7.075510514308216 13.260414004688636 0.3884918878980858 -0.45676367569129084 -0.26521289063106585
Ni 3.785425638904704 4.422429570487606 10.46697656273485 0.01219808472808867 -0.9758488351296225 0.04942045941465682
Ni 4.767004311733163 1.2683931928659031 2.8661809984389612 0.7736865931021385 0.11434364245060306 1.3021596215132736
Ni 7.227479680199543 2.5237756464155914 11.80712095175385 0.21738008741850304 -0.3423079331428556 1.2670990303647145
Ni 4.106776909972932 3.165088511019347 7.814754607509954 0.19830661572681976 0.29627721613603814 -0.01161804385490257
Ni 3.6593287245282 0.3199961023064743 6.973074492097522 -0.13755273357721473 0.05071243875320299 0.8481231149451587
Ni 3.637289744596863 5.312783840984957 2.7657399562567537 -0.7803300665605851 -0.4908788722074449 -0.7209913195909519
Ni 0.28712230096750513 5.580142875564605 5.653680133781543 -2.351226275587467 1.6651039999595583 0.6510729973332593
Ni 1.8216154246082628 8.86413741923085 2.4213909210265747 0.6531550766732687 0.07646486512695863 -0.6098258177580143
Ni 5.512505684509989 8.928081239124735 0.6682483593315178 1.1080634443233754 -0.737543053302046 -0.47446572095674416
Ni 6.705408609257297 5.697771151017006 9.040070594870624 -1.6085011638638493 -1.1189620935137503 0.7611259828283086
P 7.307045713967735 5.587716151783076 5.7190658606992875 0.4536868365381799 -1.857738505002265 -1.5663440708798249
Ni 7.13608739736113 0.9146773579975345 10.26026622675846 0.30806932367495976 -0.442124071401245 -1.0243868919393262
P 6.540167556593945 4.291436141314676 1.5619928834069645 -0.6443212804317227 0.42539338891012546 1.73860001226618
Ni 3.3649129481877345 8.210224189884293 8.73818786663298 -1.0292678741807113 -0.12408940898345726 1.5195294245191315
P 2.627992134673214 0.9962309104383322 8.911549672502519 -1.0571144640793342 0.4572938371631479 -1.4240913607237797
P 1.0827546585648726 5.292796733920693 2.287096774546113 -0.16055382245807834 0.5558172247520428 0.4472932743070103
P 4.033245247772905 3.1748069270533943 12.641484275056195 0.02857241232105402 -0.5312246230143431 -0.26829975708650566
Ni 8.879573099208152 1.9233976455099477 0.781030484139686 0.08498524389314396 0.34524773249746993 -1.0474969955942282
Ni 4.533370605732318 5.469798748790314 4.9500621495691055 -0.2728943184357236 -1.0265491896979675 0.83634874801805
Ni 5.1597141251012895 1.1105761893034163 12.453310745094843 -0.14035369336111958 2.1313815286785553 0.4339307369571752
Ni 7.191142877062646 2.588764056132713 2.688901048062799 1.6296849970303158 -0.7507968329881586 1.1935001739316413
Ni 7.541565455979361 4.225020747285455 13.358615707437279 -0.35804745536529947 0.4482988327533893 0.4873706019438703
Ni 1.875551700927739 7.437320987637189 0.48539384344331177 -2.656519064958554 0.03785435184361222 -0.3176713655410981
Ni 6.809345296669409 6.864288856032722 1.2116318606762608 -0.4331414082866605 0.30521462783498404 -1.2358788960081684
Ni 9.076478280888384 7.399939594677053 1.9357583141950943 0.7583430207665326 -0.34234135748395234 0.3838446189340615
Ni 2.6426816790624885 1.2467925675925315 4.9460078353176655 -1.4124578902499094 -1.0817800851468145 -0.2352698232147303
Ni 8.066807603170721 4.530880378207279 7.640901284821805 0.8059104861328507 0.31738648731082764 -1.0868682983029994
Ni 1.973379403212883 2.3394615027833083 6.935071941260354 -0.08835261770348009 -0.8762167878575812 1.747543851723029
Ni 4.7912816984285795 6.521458206724176 10.313244651516808 0.63046380572334 0.2586606913348448 -0.682439941680315
Ni 2.177792574247634 6.061931951448263 4.494433520071148 -0.31265848570753896 0.6238064483078225 -1.7535160101460638
Ni 1.1127586358983943 8.970881441792912 7.052848511160876 0.07689526779615789 0.7072626571509497 0.4266192908974265
Ni 7.013907694821766 3.4232047910023162 5.339662442874132 0.5363336621061344 0.07011218343605344 0.3911185268876554
Ni 1.4016343554977622 3.6703528778412937 0.8031692597059218 -0.7177180481563188 -0.5722640574541563 0.2839611177728464
Ni 4.595990034957454 1.88901944829162 5.669665156085528 1.9102741130071361 2.3171306194553387 -0.5487243224610034
Ni 8.305030043037931 7.130006392318712 4.283600784970912 0.3066865843948202 1.1879694739213993 -0.0474525370550086
Ni 3.8151684687824163 6.862162369606846 0.9652625528572862 2.740367881254409 -0.30379897843438003 0.20911759029939472
Ni 7.6809902172969915 6.994247022077262 7.230278621324128 0.31240394649457165 0.0786616156679613 0.6003057940827209
Ni 6.314787975535644 5.887588044610987 3.0849992496700516 -1.1020203234530892 -0.8470651059942894 0.9733924031693301
Ni 5.988978544328957 8.49514539086712 2.8255977511367067 0.7667070764605117 -0.2693176568280587 1.2912491452483568
Ni 3.763274738635163 0.8226294085111419 0.9567258290607763 -1.4039264557401305 1.053747090268998 0.16573742354154683
Ni 3.574903482742985 7.267752348563282 6.206090943071922 -0.2731156904179103 0.4527519834287364 -0.4144793131007829
Ni 6.175409847692267 2.1085698450684616 0.7615861907157115 -0.5056529451928259 -0.07437327270525255 -1.2481044915400827
P 3.172568520289315 3.865728481566072 4.462968982324064 -0.6560714789891153 -1.2680428823352226 0.15684732014076858
Ni 0.7517362682842748 8.721224474039195 12.470223773536437 0.10879777293170939 -0.19720104136746683 -0.38136350438342065
P 8.861414024334552 2.685220734274858 7.128349971313292 0.4891066107983706 -2.0714601697325743 -0.2111392487151138
Ni 5.627429218455795 4.963368545112076 7.080122564911705 0.671228903455844 -0.798892660054121 -0.9148946640437534
P 3.491821285016217 6.683061848395898 11.885215233074657 -1.2221972847560179 -0.6130255556422345 1.1682339431656847
P 8.17373815962979 8.640156842400101 5.898421000679649 1.84252040250093 1.3952235286494938 -0.6743877607997998
P 0.08488598051082187 4.337276846504064 12.506902866374343 1.5056837768852906 0.05886643531890507 0.4729032615656308
Ni 2.6820776381102958 0.43461092265273293 10.948828127474004 -0.3895149298459614 -1.4648335756381483 1.0645824903216052
Ni 0.2781770679365506 1.3390708864417276 9.135624448951257 0.8849482541933081 0.8819554901135713 -0.3509275564910666
Ni 3.9868076341130965 7.419936028436168 3.3602626581353583 -0.4833283135536966 1.617268368533518 0.8408232388496358
Ni 9.161593698092524 0.5019683128618389 3.2155533915155297 -0.15754306065621254 0.16143031152576068 -0.17889401552816286
Ni 1.8796927534412868 1.0789586937607871 13.374942086772787 0.06303625042587854 1.153442386678807 0.35911780561134277
Ni 5.75411371460787 4.3993273473433305 11.682285939190596 -0.2325843059627672 -1.1414541039686792 -1.3876721986647973
Ni 0.8958887312215384 3.4845744431175083 5.296540469233617 -0.1248028901107141 -0.842425293229433 -1.7743753700935765
Ni 1.628245060276306 6.803516112387951 7.7866346225362 -1.179937347645542 1.8978209748454475 -1.9128349317557767
Ni 0.9862233668639249 8.204954607293855 9.748930181588948 -0.18371251996272878 0.7123128179803474 0.12594163170084763
Ni 3.6624251872185103 8.604687421884284 12.817713106922724 -1.276284039298092 -0.5209939464252705 0.40913578940068246
Ni 0.9596982467095775 6.414285156198998 11.671925846550845 0.11606448179645174 0.2004419169022677 1.035461404585933
Ni 0.2789595776344936 2.961673296333582 2.724706229593228 0.08941602597098794 -0.23351787352063008 0.9746548148215214
Ni 5.255387360876007 7.305003167795513 7.979912652589138 1.9773009726496462 0.2859663211283333 -0.6823751498806505
Ni 4.943913059654282 8.883313103843134 10.947694934049688 0.3341084280511988 -0.3970328354895614 -2.4828333331042076
Ni 6.472092010881363 1.8721474573073673 7.35504461634549 0.4709152846013244 1.2873086725433702 0.713795573173461
Ni 5.066848224476523 4.827851668936736 0.09230723160323194 0.13681585541119018 1.9070954581688384 0.6862333472844763
Ni 8.415653970657731 4.848277130658965 3.5639837884122145 0.5497710185579628 -0.44128923420477545 0.004098338439089716
Ni 2.257358608015826 5.020727718441624 6.517965359502727 1.8442106457191592 -2.3771897895307643 0.5829886429605121
Ni 6.593730765119408 1.0642131892024105 4.594615280136515 0.7979480367526645 -0.30458393622952057 -0.39214619682122137
Ni 7.575020310407506 9.207826124465626 12.464286399594716 -0.6938553826061082 1.3968962883662266 0.5148474672079005
Ni 3.9655427698543373 3.5148022611274383 1.5515227357679806 -0.764997807078889 -2.72922446304308 -0.7997529511718872
Ni 7.456394078606119 5.751026578612408 11.336134986515331 1.560819798627486 0.7349151287608955 0.6259371214975802
Ni 6.017965911923793 7.137271887607122 5.06074017201904 -0.22490159260652878 1.645509108546766 0.3726148116565131
Ni 3.7809394986816938 5.664969165228385 8.14040268689573 -0.12776222984935418 -0.8139814360664434 0.14915586503378184
Ni 8.030228305967716 3.3050915274176975 9.70870228136049 0.35422088253035766 -0.6435957151196078 0.006668670269427224
P 4.50793670887546 9.055250723409026 4.935523697636407 -0.15314287470598786 0.26669770270670845 -0.9528333480710558
Ni 4.893343720175776 1.7715217465671234 9.5766595990169 -0.4684305705062578 -0.26853912679082137 0.7044838088542319
P 5.688836177350388 9.318795139794888 8.582216615981375 0.7234834898851862 0.48369675263670886 1.5334542621303398
Ni 0.772155201320109 4.405800073569462 10.50523932835834 0.22150542244078625 -2.214698897950973 0.13577224463802423
P 8.597683074051682 7.9369147239901325 11.103106583010275 1.1438979375234815 -0.614250172077955 0.12962807941349935
P 5.967900213967205 3.717060965651762 9.478676140927753 -1.5143468518769274 -0.08985568461156783 -0.37551450180181134
P 1.096007891947196 4.852511450121017 8.409114092228679 -0.7126372911993017 -1.2473784120073355 -1.1425820469255354
Ni 2.430620618250464 2.5497504915737697 10.428659702281225 -0.5172254805217738 1.039240669122707 -0.06100405048719816
