# total energy = -340860.8265027145 ev
CRYSTAL
PRIMVEC
9.35046233558887 0.00000000000000 0.00000000000000
0.00000000000000 9.35046233558887 0.00000000000000
0.00000000000000 0.00000000000000 13.68534678735312
PRIMCOORD
 96 1
Ni 8.814232002601592 5.172825360314562 8.287339996448528 -1.2785651220227852 -1.60795917531745 0.44081332300962145
Ni 0.504204979437041 5.609332992587606 4.76870024913245 2.125289042627572 0.12484839863666887 -1.4438821701974618
Ni 7.119367203299659 4.7730743954036265 2.526260221035636 -2.331814960940391 2.1850581922664047 1.2655455698346654
Ni 9.076989344128588 1.5401239984432333 11.871778012032332 -1.1045508031844269 -0.031112405134088358 0.10988689223083009
Ni 3.909708807967101 1.2005806603816034 5.957176736046678 1.1137242421535787 -2.5332984317332956 2.1127387167663874
Ni 3.8074802034720765 2.835911066120943 13.589741258392166 0.839993800969805 -0.980076500057725 -0.5818496442600624
Ni 3.8728305845948907 9.220472188359462 1.9901234127912684 0.7033008442897243 -0.20804004096449977 0.5735064145016897
Ni 1.7321637934783378 1.0707307902066838 10.756231390993836 0.7997388101045001 0.6086791057480807 -0.9728606990355761
Ni 3.8122021869413887 6.45024812000469 1.7611539668412184 0.2132023018917296 -0.6032317094802644 1.004412248589612
Ni 4.97945779963066 1.2824907102651129 8.377307339709276 -1.7860371227022207 -0.8638068442290027 -0.46471069845250934
Ni 7.759032330300903 1.813129446667985 14.093991120048322 0.6522338504105799 -0.06170364765738405 -1.1709713967015059
Ni 7.72102270098852 8.589138323281304 6.638145660234041 0.7879904113193202 1.4512684353592038 -0.0867546770887409
Ni 1.5770022218154434 6.331600103683703 6.920707280945202 -0.44729018898321676 0.512899085232278 -0.5777446209527534
Ni 6.845323853757891 7.425585493668958 10.879946422843576 -0.8721027656892077 -2.1935693150612092 -1.5289165221609862
Ni 1.0415199459331583 8.700399474373071 12.237437191341066 -0.043215873265841705 -0.9649028776410801 0.32235051618432226
Ni 4.093931616506473 1.5065184368814373 11.319492020322915 0.5839286382762782 0.7037543868873751 -0.5443231080695141
Ni 0.8170003849990402 3.985335347174615 12.751376937094742 -1.6925839505473814 0.2961525176327158 -0.30567202708737684
Ni 7.090044153478349 0.27522244283974945 8.878560378193324 -1.620907250837686 2.3854165483159306 1.4455107069398203
Ni 3.1036802554490324 9.006701918903207 8.231790769924789 -0.1620445480709919 0.9431469740212273 0.3406045772985037
Ni 1.0256989636953846 3.132152413199636 1.3199131305440834 -1.6848241040963046 -2.310011234801738 1.3008357604955274
Ni 2.0619358984203027 2.1045646561165263 7.299312175329705 0.1442766825646096 -1.0582539770004162 -0.10169535755897324
Ni 4.61927799123879 7.7142062139605425 9.67563586304433 0.35932272253329733 -0.7889000676177833 -0.6218963757693031
Ni 8.240908405728604 2.848777302267029 2.9861150226641757 1.013729155115164 -2.6038842123716575 1.1519763436562418
Ni 0.023080681179503963 2.4151496123871485 9.268154870937197 -0.1622155264312174 0.5502885816243297 0.8577220714875035
P 7.042094982724623 4.236610320978216 7.1842322954283 0.03452040237437281 1.1885585136556498 -0.16895798736137352
P 1.8942821091039412 2.1938054684553636 13.142106575963712 -1.239875161651755 -1.9576150641849446 -0.6582831419284534
P 6.631965004643516 5.8241224624362475 12.224216572673225 -0.2744359518912306 -1.5756550638681057 -1.0631917806216657
P 8.622734534380784 0.6212867933201875 1.8771782434364852 0.1728814907854958 -1.1867384297277754 1.316366509141275
P 5.642910502762455 8.497849759695377 7.869047064766018 -2.030303750098923 0.22612878014541057 -1.4474652595630297
P 8.283088341233684 8.447310510880268 11.724578359031057 2.7719356287583614 1.969264732608731 0.9289999930968839
P 9.35336095878691 1.4646096647835047 7.401418288768397 1.0345941714896312 -1.637986832027792 -1.1591641196539326
P 0.7528319023129016 7.476395905891217 0.502479819139837 0.19990969854788154 -0.41586719458724514 0.259196766343973
Ni -0.1999615067087701 9.199723512481436 9.051091368653434 3.0444409392857823 -0.5420476817717762 -0.06690524646298154
Ni 9.158572127831057 6.012309866997379 12.070202302736437 -0.3894146568226713 0.3129616187702546 0.31279603972666775
Ni 7.7448757303552815 3.7755390242024345 12.431865094451542 -0.2770649048736454 -0.8996637060266118 2.5943904139486094
Ni 2.9465270353129425 5.163577753084563 5.227597563419885 -0.9572754430028094 0.6238352446632288 0.9798373874637254
Ni 4.303494177920767 6.669628666850226 4.106370536524742 -1.0286250983903897 2.5672763313406364 -1.3324176490668667
Ni 7.402835818855421 8.498840908700819 13.755141586290499 -0.08002147212996541 1.3456125504905858 -0.507312592283436
Ni 5.43013138231164 2.9558868480907274 6.1998586349823634 1.1322107309935403 -0.3260279650359095 0.5596461115798298
Ni 3.800701118293362 5.103173766526632 9.961522508154873 1.231819124116498 -0.23074930963655746 -0.7349482959916762
Ni 8.134715205211819 6.198122254130381 6.028847094648517 -0.9828250093371396 2.0476990627572347 4.533435685551167
Ni 5.225403009914444 4.859856036153495 4.782713787004643 1.5456101807665832 -0.9351680695808089 0.1505036373109279
Ni 2.991848726156021 7.839932530254341 0.14964947412792545 -1.0089026802607979 0.0805187234813581 -0.16079524904492307
Ni 3.644978518891539 8.354834438580278 11.649007922597436 -1.6945690992982105 1.597350032343036 -1.1286194140978563
Ni 6.204097199549965 1.2767308254787837 2.105764320431601 -0.14932221540831703 1.8604214511510668 -1.0774814577714604
Ni 5.653953398757024 6.119896286399166 6.938620896649178 -0.5159977787622597 -0.902563139061594 0.9251281688463036
Ni 2.300886962892116 6.3786796814420885 11.139639617869793 -0.049906397912139855 0.6136400492977818 0.5470317652499289
Ni 7.152458489434105 7.281953042041037 8.618169638678372 0.7372751443526399 -1.7047205859099157 0.040160631379285675
Ni 3.3731979812301143 2.9676029773720103 4.809208321975525 -0.6244242843974794 0.9497832483908223 -1.772531632016618
Ni 2.438581870949714 4.585597625978471 0.6154960520082176 1.2792894017833194 1.9622345652348272 0.7947981782697731
Ni 7.4044627992983125 2.098215692204323 7.226602045318386 -0.7172166830398681 -0.6693666534361246 -0.5260024553834554
Ni 9.70437731410962 6.765106237553481 10.072073024110663 -1.0548945736098803 1.0750497084015163 -2.256735663307049
Ni 5.977984319837292 3.3073800769915267 0.48981742307222875 0.5328585590733403 -1.1308981828297038 1.3005020313051925
Ni 1.9483745335989302 7.899167709022838 2.629448182964227 -0.438383116301574 -0.5884964601526187 -0.1970128366160607
Ni 3.588417572345267 7.6868374107631645 6.386486382429275 2.0209698742925064 -0.5812958286391214 0.10914872851322494
Ni 1.810801181551433 4.907982865691214 8.792288337639649 0.15201518885944787 -0.9066792181124965 -0.4934486898171502
P 8.303668708790031 3.8012901974192363 1.194124166152772 0.78840950113461 0.41275076044545045 -3.531894844972078
P 6.830624926997974 2.051837399119596 10.988334176865797 0.44791959503709955 1.1912149774418905 -0.5313256673685817
P -0.14542587030002804 7.1684851818428195 7.945520755859312 0.36306470607423275 2.21892424888623 -1.2073069979077466
P 3.0300734161016596 2.3736522606310966 9.177954701164794 0.8316845097731612 0.052262813959458386 1.1278838214834124
P 0.989194758815793 3.3504202550296314 4.3476975534709155 -0.15364115449864507 0.25733785875836324 0.29889357071296263
P 4.974436601367254 0.5200755191250868 -0.6057612856915826 -1.9583637694255112 0.4191376378084008 2.5034654075322624
P 2.2344238767537616 7.388230396718659 4.691678620947467 -1.1477731042081716 -0.8021985844989022 0.5369101034348946
P 3.5766546907524064 5.873979127502329 7.838172773246569 0.403122493327067 1.4010828156437483 0.2476450569506316
Ni 0.19827468330705947 5.568293813485012 1.885635736600827 0.5623028324763865 -0.018626613962251792 -0.4051937740337989
Ni 5.507263345951945 5.472432873826822 0.41718677199059084 -1.650385719912777 0.12680989323841388 -0.5768426779637743
Ni 7.896325168478936 4.297809096832962 4.987364550564621 -0.8175544981296824 -2.9173747070621885 -0.3587293119236725
Ni 5.2213168578825835 4.015565391840527 11.977798228996278 -0.1337765543642341 0.4532088684604969 -0.9670060400270121
Ni 3.7323772901542287 3.8506606384449134 7.36479626806363 -0.6737365003690461 -0.6218308126386903 0.7323604806598418
Ni 6.155577650594996 0.04824838554782063 11.51037609821583 0.7704932829758214 1.8462775555505169 -1.3587246623925116
Ni 5.984950414262316 5.5338467103148234 9.814295738812884 -0.36065403975021115 0.8098396459839278 -0.3178145759871817
Ni 6.205555871671179 7.556875335040459 5.162468788253949 0.006421330145311522 0.1483534237371445 -0.31381393946822084
Ni 5.923209311593274 3.216792798079262 8.834918030382104 0.3035827486585159 1.288058149114885 0.8149864802921899
Ni 8.863275177446226 1.759055723097627 5.074526755130729 -1.2290873270076317 0.13517189204986396 2.8204230348357875
Ni 0.7686295083948869 3.93969574061281 6.658331438280676 -0.2884942297565096 -0.35285305564855357 -1.2111996480939333
Ni 1.5419847404440117 8.798813090243383 6.347989594030257 -1.1852430761291717 1.1859519292707381 -0.06779947614247679
Ni 3.1090848226673735 2.0429170580706386 2.1637353166950466 0.2699609468390125 1.0961070432924478 0.6478555188372261
Ni 2.025282086143664 4.780545414793686 2.9378610268389656 1.454662034421785 -0.7478552338613313 1.2977126414855136
Ni 1.4335941812830937 0.290998542858409 1.067578749360139 -0.3069997447598648 0.9258329082228121 -0.8099949406148694
Ni 6.024044697203292 2.779901796851283 4.010573180010297 0.08424656595490652 -1.0324516712253315 -1.2774556910086903
Ni 7.86424373227456 5.803242880085804 0.26728951061130546 -0.10981798666610763 0.11173705806569144 0.860558255384718
Ni 8.307586552500213 7.516088618420383 1.9253368645460776 0.006340854616363274 1.038546985489792 2.233132422065812
Ni 0.842371929445834 1.105495809095598 3.4955936628471416 1.675329534342308 -0.17311340429064379 -2.0466994178481266
Ni 7.586731361213753 4.191597195391548 10.347367465510244 1.4762253624148578 -1.0264147210026322 -1.6655562570056284
Ni 6.185620686014598 8.78330067326202 3.1366677514517756 0.12404210068528959 -1.877058802597432 0.6663579485167879
Ni 9.28786097026705 8.358097749928378 4.414236378354025 -0.24159550832244198 -0.8859224451811194 -0.04602326080764977
Ni 2.511777289955206 3.632822917881429 11.25638949034074 0.44464143850646004 -1.0294820470740464 -0.8526654829002024
Ni 5.317411559098661 7.628808441633364 12.871794060885817 0.3606530113089466 -1.1624682443265013 1.3384080623223467
P 6.248362288151396 0.760172015230545 5.151712016406232 0.12698112870895553 0.031084894330262593 -0.42859775478003603
P 3.0860265825974262 0.8246200767399158 4.111338437152951 -0.8202027343858068 -0.14004233276828784 -2.176519044447142
P 6.054246690482257 7.191590174224343 1.4994485523247112 -0.056205857767606435 0.9689569931057957 0.38546184282251034
P 7.855482349084966 6.29924750407218 4.026119258655997 -0.3363229192040143 1.4988526128960704 -2.2689530313088473
P 0.4649732447000273 4.4020948030373885 10.285098996766608 -0.6655585925439441 0.37393455890920113 2.0306634474311864
P 3.324145455923163 5.35488821205906 12.631273988837467 2.0142922051620147 -0.07952113545477918 -0.4623972198279843
P 4.251243794501925 4.4017020836201395 2.79204337216792 0.22793755121937517 -0.2955123129455556 0.20020717518364228
P 1.8988357842515748 8.37796748234875 9.91946786884482 0.8656500680853285 -0.010265386481750063 1.0142945407003305
