# total energy = -340898.7149047519 ev
CRYSTAL
PRIMVEC
8.99171541530990 0.00000000000000 0.00000000000000

0.00000000000000 8.99171541530990 0.00000000000000

0.00000000000000 0.00000000000000 13.16028440683363

PRIMCOORD
 96 1
Ni 6.30428064936833 1.9802185565236803 11.378197874883977 0.6140894781303747 0.27316608403987147 -0.44947974043536787
Ni 4.373147868431034 0.49837213261005486 6.015697830646566 0.338617628775462 -1.08710998200016 -0.676413532980577
Ni 2.63713531651454 1.6568225124240437 4.6927736861699145 0.5136945845503799 -0.35364598386349416 0.2557926257584304
Ni 3.5452985944454554 4.170348714268125 4.798173677532077 -0.2858323666536303 0.6548080388956594 0.04745716504069891
Ni 5.194765883489821 4.651153732065372 2.6301622410488426 -0.6433329483765242 -0.4573977097308639 0.5593015837562174
Ni 7.221948170712839 6.280659412426503 2.565123363603992 0.2488593889737069 -1.0939722563376322 0.04197762998336641
Ni 5.165300031392993 4.5334072159811605 11.657893281883892 -0.9436773926034006 -0.5709031725508877 -0.341572854749044
Ni 5.595751441701 7.681307946749045 12.358481006312918 -0.49223692889723614 0.5959228345236769 -1.0780990367508014
Ni 1.8462150185929433 6.448624660265607 0.4329708890255943 0.314933912005277 0.2782890070887336 0.18961628704167344
Ni 2.5412386693944087 1.5621757137755208 0.2989538635214227 0.5971723906600619 -0.24595018574671193 0.7275468613212824
Ni 0.6057745790414767 -0.017224530447568925 4.6035596821008555 0.3462797733064101 0.17885442053947906 0.6619677898688923
Ni 8.429041034532995 2.2573162568800864 1.3206348536790156 0.9289179749060389 0.4132701232840301 -0.0035023567263036456
Ni 6.829414825187353 0.6530647090179328 4.678941730026933 -0.21264874338110476 0.08994078812620639 0.8019515014851026
Ni 0.6760844001845757 7.410117803557 2.408752933060848 0.6133358877938018 -0.5317244454688972 0.43625090044991965
Ni 7.52894332551598 3.8915335962277107 3.8287084791692627 0.7289146882030866 0.17088631473233795 -0.19886865887787686
Ni 7.473437464974718 3.927707268179355 12.6783810713783 0.5741944417076499 -0.5059527358214319 -0.6165497667454091
Ni 7.96065357601122 8.832373430521798 6.837492083331564 -0.45313687757198085 0.6927678059688843 0.011642212224618658
Ni 6.824766108210222 0.5342940365242529 0.21805899474683588 -0.16158483482575398 0.3719964613462239 0.6380395611880689
Ni 1.8266220702502556 6.486039188973236 9.161308371445251 -0.2749864250780619 -0.4799869078852896 -0.6221018069118899
Ni 0.03824266571651462 4.943537348981011 1.4100979282708337 -0.13519786019179297 -0.726971962654419 0.18651682218074328
Ni 6.327982811750765 1.9256028758291024 6.926758239351237 0.6540336226234801 0.5297493240203973 -0.06870270468303652
Ni 3.497660485074386 4.121128062947394 0.5819132632925137 -0.3160770244707847 0.7841705233525978 -0.5066207084227339
Ni 6.1057795352732525 5.727318224697884 4.71059256902017 -1.0372115545078202 -0.5470111964246386 0.7866554945579807
Ni 5.338498457724729 2.908846979212722 9.12120891645257 -0.0014004798919524267 0.0279157525736616 0.16608118003421074
P 0.0955513652402046 5.635773567939323 12.392065963336677 0.6908222522067392 -0.9853241216099095 0.6007071432861977
P 3.9572630374324143 6.102596467942683 12.678105025708673 -0.18492453799295894 -0.21056049339350835 0.0632275405010782
P 2.349966894660286 8.501766030492453 1.4294040408851454 0.16145088035105098 -0.31957758142487547 -0.5397869107620574
P 6.230233871212279 7.810680751133896 5.791235835204536 0.2642173594870159 -0.06528930812611337 -0.1677158874241563
P 4.662771028650389 0.8981554984424293 12.500059165484537 0.21934569578530608 0.16071657328818775 -0.29318289348143056
P 3.841890334272695 6.183099297916103 8.159928876821445 1.0755040223301155 -0.10354809449699585 1.289659946384366
P 4.734758703928754 1.0524353551032077 3.7319144588299484 -0.6687542166631063 -0.4677024340909816 0.29100542621413755
P 0.08722143988698482 5.627725982456667 3.592033935567968 0.868666229203833 -0.6771938627900274 0.5928655357545919
Ni 1.3943183665238938 1.1221930849070498 2.6211867105138853 0.27210678953742173 0.7215117108707961 -0.8986761453023621
Ni 1.926591964547641 6.335715687186613 4.709236618304209 -0.3482029584710519 0.22720555814935708 0.18573520681971237
Ni 5.849758416337342 5.565008765985696 9.127959896542379 -0.11983037659678716 0.7034168010422982 0.23287046974461828
Ni 8.563835843438563 2.378578533772921 10.189850939794816 0.39281905451852994 0.16936293610927605 0.4123751222735866
Ni 2.422017511948013 5.255756690561161 6.94819628773978 -0.8009559703410528 -0.6381200367170171 -0.22385463939925318
Ni 0.5941959468336387 8.862882321630904 8.869492131785428 0.5915460456122199 0.6603598219518241 0.5846588315740835
Ni 1.3167738109904656 0.8793906871086269 11.410835105081066 1.0938287887812324 0.7317701553740107 -1.2539416670471502
Ni 4.098136246099183 6.7424199765340695 1.7313008929300018 -0.5728027035664457 0.8268485218370986 -0.28956509422318516
Ni 5.523260230347742 7.884835429877423 7.86775746439451 0.21899345465220998 0.3786715593735543 1.157800663647503
Ni 5.507911371779149 2.8700207511522695 4.683231677550704 -0.3778652614221751 0.15649173657356277 0.5838934141629686
Ni 0.6550024237347062 7.279935744766072 6.752278493543213 0.37028667774396873 -0.2002953640220744 -0.10065868876434278
Ni 4.991598068986365 4.672679899267021 6.987098046211467 0.0033881997459425514 -0.48782954385815985 -0.2527895772660485
Ni 8.035932219207632 7.200466962089305 9.021151802513643 -0.3362373014687435 -0.431618800994547 0.49523252119045036
Ni 4.651405500102817 0.308348408004415 10.31479442506374 -0.37033012938739446 -0.3222129621651934 -0.09553653704642902
Ni 8.025654688250453 7.284449586008857 4.613600730937147 0.21659590095431083 -0.12234131594409897 0.6009264583858553
Ni 7.148971406715936 6.138473413278764 6.9592767789021 0.47555175493207125 -0.6396156474259371 -0.12792035269377325
Ni 2.4102023976192877 5.137947232467588 2.573625030725613 -0.6502111635535963 0.09798422725597318 0.36075097033939163
Ni 2.366466692828635 5.130466125069187 11.577010102339614 -0.38581151285244525 -0.7412053326449816 -0.8272822669404075
Ni 1.0406831827838443 3.3157580780195106 3.8403950119645773 -0.057470326302326825 0.9640816672913654 -0.5039565313270095
Ni 3.671461356352868 2.713349098135752 2.687238055137895 0.00033270074907039475 -0.20910833432801404 -0.5658411846469481
Ni 1.0753822133733038 3.393428517571661 8.146873804908298 0.2873588306004858 0.0025821589048794238 0.09883449107141043
Ni 3.708273440113751 2.6140355990788513 7.0598212438278 0.1007641039939555 0.9031364950665607 -0.22510393842532198
Ni 4.180347502040989 6.879273888317322 6.057060621684289 -0.11456270043994464 0.2048834976133891 -1.0088754265672881
Ni 0.9396162991804435 7.207894119193967 11.228447145382544 -0.3304505195836373 0.6954337828368217 0.22856541461136118
P 0.12194115142237733 5.59058120521773 7.933901423689438 0.5067343511824628 -0.8298993928482804 0.9359923652543172
P 8.54747092100456 1.6626491441477982 8.035972681927936 0.4425950975003926 0.0038882793108126583 -1.0079153766468643
P 1.7865729688650644 3.21644457896261 10.429104307436809 0.016046769050217524 -0.2902492647744033 -0.2003483287471969
P 3.9446476604132346 6.193313886863919 3.896996962640294 0.5501047477482978 -0.7506006578169525 -0.46421447554238116
P 6.829019189699938 4.023199288096447 10.381371785051698 0.48671445641711014 -0.6566319794782756 -0.04086845607958768
P 6.241122838831827 7.802947875698049 10.10998112660126 0.5468469029326324 -1.1075816195909507 0.5612193696042205
P 2.3420811600588465 8.259637112194198 5.794144655208602 0.13973071506513998 1.0749967436763939 -0.11839467259152511
P 6.895108299529563 3.8471594796278192 1.6189386161608899 -0.2393288237754523 0.5367411819571982 -0.197141391774125
Ni 5.313744264614394 2.715507109885291 0.3814807286815983 0.26634289047045095 0.03987883847280874 0.5174167705969734
Ni 1.6554557716493357 1.0948402859816455 6.967541963902834 -0.8040299812806863 0.31177993975732754 -0.5614204298714331
Ni 6.9402826788199095 0.7809331993790435 9.145437094198956 -0.9708603807760958 -0.6218063871586582 0.06004374345645789
Ni 2.7776578482720087 1.5598468594291433 9.119037417129597 -0.4918566627396819 0.0708889137010779 0.8745638256351906
Ni 6.407370668986924 1.86831665559447 2.5695320017739873 -0.39056393993576605 0.3221689963011355 -0.411426128096756
Ni 3.9700222819015623 6.707235393300964 10.437514259059075 0.6276481906514159 0.4311251491875801 -0.27065488758224354
Ni 7.9920346635357635 7.233358657838526 0.3534967113194538 0.34339525266976345 -0.36899289863320966 -0.4687858969631475
Ni 7.661436255222041 3.827989141919416 8.314825565173967 -0.6018206880653506 -0.022544975180051496 -0.9359895370408395
Ni 3.0964771091194985 8.189196012003004 12.291324579838832 -0.08219765384567779 0.6090262046748544 0.3952194364299064
Ni 0.15522668431588882 4.804498450301351 10.189508355429576 0.13985978444383657 0.3301826106342313 0.13549790793071503
Ni 8.70750547566411 2.266146121621949 5.683242633056678 -0.3523252081695416 0.16194067550327595 1.1244783953462893
Ni 3.652767579572488 2.5049481051396647 11.390463474165418 -0.008495181955204724 0.6394408124109697 -0.2768067661162523
Ni 0.956179039358154 3.313923768032403 12.65150843006717 0.11772567154895854 0.46425998406833596 -0.5201495961471042
Ni 3.0284188135684182 8.27147020995417 7.957747453521841 0.47837611175474387 0.2729118019372203 -0.15534348190173244
Ni 5.56005433067738 7.834463838956938 3.558066830630226 -0.7928888770622022 0.6829086537866174 0.054402743120596626
Ni 3.0018662773334674 8.385386255182949 3.6146831680509397 0.6098319884056014 -0.06914879108151961 -0.1299468962054988
Ni 3.3603929543724718 4.25845853565867 9.254312383649438 -0.0517791894548205 0.27516743074061645 0.0015802000029263108
Ni 7.236047180809826 5.993158297094196 11.333703269294737 -0.4611507490153929 0.9678892139629138 -0.49966098927544916
Ni 0.4577376705378014 9.04557599966061 0.3662074005242374 0.43093128800921915 -0.43178129471434024 0.5691131705300005
Ni 4.480463994392475 0.38046196730150356 1.4521054253187313 -0.07170035385877974 -0.5299799519739647 0.750125517952747
Ni 5.962649405985091 5.6836094950541 0.5211922076898654 -0.01371297871071832 -1.1121206451118846 -0.3932972797065291
Ni 8.045688230658671 8.7048529195553 11.22759203322679 -0.7492073770138516 -0.15150970997793908 -0.16508282067668342
Ni 0.2968102385168808 4.7767140490260385 5.841113780937314 -1.2315543004908855 -0.0024127232065506835 -0.271741435778203
Ni 7.875609929648145 8.841724814769801 2.5262216051323056 -0.5758556314601566 0.14708921231274025 -0.4978468188848459
P 8.482469808765327 1.6902267359637797 3.580952545234086 -0.454312900157953 -0.07365593492325379 0.040935561872097244
P 1.7311840006269017 3.2735419731691575 1.640705761341238 0.07898403200438656 -0.8050216557699942 -0.384927310475279
P 4.708538861171858 1.0217556213972645 8.167338050494863 0.5792805979813056 -0.11162367241627873 0.058674631023073145
P 8.519362817966817 1.601784221095181 12.303747534143678 -1.7760648419808571 0.34725319296327295 0.39499626467550686
P 6.09855918762792 7.671911603922927 1.3594179215044773 0.6931295601836772 1.2898188405597333 0.6191378391875595
P 1.92556690896661 3.2528520355204544 6.0147896673686345 -0.6120616490670684 -0.30301402063923943 -0.3131215413868865
P 6.861919877164781 3.9961791826490973 6.115531950038043 0.4888487291512935 0.08994927276663864 -0.7169099504327265
P 2.454001044419303 8.508177123731707 10.086792391180904 -0.3122489089739461 -0.2747534831316494 0.5552898914936629
