# total energy = -340894.5491217512 ev
CRYSTAL
PRIMVEC
9.01266160833316 0.00000000000000 0.00000000000000

0.00000000000000 9.01266160833316 0.00000000000000

0.00000000000000 0.00000000000000 13.19094127759517

PRIMCOORD
 96 1
Ni 6.3140453411089155 2.1703209941858557 11.452177189996194 0.3649264418733199 -0.8746592135624742 -0.18161861354817754
Ni 4.5940419795369944 0.4751781581378465 6.015029566216045 0.9172030004619558 -1.2917042305079045 0.9871339211251386
Ni 2.8896845983557022 1.667099038476879 4.976085096107626 -0.9240249084797958 -0.3065670280978204 -0.6428382681282928
Ni 3.3518719061853384 4.223152932857746 4.869290464747763 0.1945882863349681 0.638033904761114 -0.030416150398012133
Ni 4.878202184454131 4.522436383797623 2.7978248483929082 1.4282341792475595 0.2630739899111921 -0.6542462528549184
Ni 7.320966923587182 6.240105466037071 2.479079456176808 -0.4656491511063787 -0.2792539421051642 0.5284874265888382
Ni 5.1560355009875 4.552331382044003 11.201444045373298 0.20023751420094546 0.27399835013317975 0.23720483545391402
Ni 5.7157938823822 7.886871940135344 12.344676725674164 -0.9993464040309307 -0.16170850488781183 -0.38023067633055807
Ni 1.9469872418357448 6.215987583822022 0.5055661489691164 -1.2318564051123366 2.0239464404223275 -0.29302374219574695
Ni 2.6020455060936447 1.6322741143816073 0.3036618019040281 1.0709752812218265 -0.7814808923355767 0.2175595504191608
Ni 0.72806713139521 0.18449639134821025 4.888919140262021 0.1620113808402113 -0.606914043427858 -0.38743387894721665
Ni 8.466359037587123 2.560055516093678 1.294705778590721 -0.27660442029745913 -0.6705419046911485 0.4145297067227442
Ni 7.005298454012419 0.8045647998051079 4.8168566025838215 -1.581915957176153 -1.6297757569719094 -0.0888958918014598
Ni 0.7049622723344858 7.471081813786675 2.8085490143300107 0.6536813814903839 -0.08577765788745227 -0.5843898941834129
Ni 7.74627442049605 3.874714426013209 3.490230680704223 -1.0716756497229607 -0.45178473441946065 0.14931887297420735
Ni 7.614824752294823 3.985543124667338 12.399814386292709 0.3847090238168858 -0.2974961761448038 1.349068113139354
Ni 7.78812020791177 -0.26150778146448256 7.074921264218416 0.07693434856420943 -0.17030113165282929 -0.0774025464498796
Ni 6.9368292644803855 0.6461573597453507 0.3145896539913771 -1.420739156422095 0.35465591318524725 -0.21574023782223486
Ni 1.7552518807584139 6.72518493411567 9.138261966217192 0.028222999401435266 -1.8038782646487 0.07371969828165369
Ni 0.0028849529510601487 5.050695513196212 1.3163830320674152 -0.303840887415909 -1.811183025840229 1.2374953485656688
Ni 6.4509837201729825 2.022855826471872 7.006618808924417 -0.4101277210003066 -0.5519070910643591 -0.3722108913498751
Ni 3.150970668346907 4.3362077589061645 0.6339352894643989 1.4016165766600313 -1.0421694127337275 -0.08771601256074571
Ni 6.2421152895549925 5.6969393944921105 4.710999288021554 -1.1015184441160062 0.16299611335098382 -0.4927596341699255
Ni 5.647522971403504 3.0684146888663983 9.247232254066857 -1.515031793759094 -0.5378858370846026 -0.5769372945601096
P 0.1933369110286067 5.622954456112689 12.528425967382754 0.75748581497256 -1.0640261035975032 -2.267443022422224
P 4.003397207129225 5.9544761972929345 12.474237340021775 0.5745978477936555 0.6701588103201168 0.8261005879274804
P 2.118786595641145 8.350600413084104 1.2362748914544726 0.6931097626893354 0.030733938748747067 1.2793562504655127
P 6.3264467633540225 7.7122155726295825 5.8408562773675055 -0.7241884863720108 0.49236728382751327 -1.0644570204873345
P 4.782127212700613 0.8509773028106513 12.635352183600741 -0.654025395093364 0.9630758517346705 -0.9152309643372496
P 3.966580484839064 6.068243023601063 8.199132722391157 -0.36639736999189154 -0.3066855559535557 0.6201588242529061
P 4.647757442168418 0.9797303826864873 3.769047278608915 0.1331350641254933 -0.18935634851206745 -1.0687438207881466
P 0.24452612463728 5.444620922708667 3.5558032008252267 -0.625285089735878 0.9373776756376179 1.1287523401312947
Ni 1.4170427447337868 1.002316112443928 2.5264608202952505 0.030223574771231825 0.3580952778840994 0.1627829688989132
Ni 1.9011758833532744 6.509728247929965 4.815484875501187 -0.29843128636456345 0.37899834658535375 0.6080103618158303
Ni 6.049406561034004 5.565561827583008 8.998213317664183 0.052647450992386755 -0.032792106829356425 1.2965507599669284
Ni 8.717055230297804 2.3986838116615257 9.916224093027473 -0.10819819167449754 -0.5476197765429149 0.8348698494796783
Ni 2.390509327667113 5.1624164653403595 7.007014464764939 -0.5759934425896015 0.5472135422434317 0.12183583706259016
Ni 0.6693244061705306 0.02922355496348808 9.030557957310432 -1.476779949366747 -0.3066914694908267 1.282001915618476
Ni 1.2785181372430199 1.0108240649144082 11.360750949052287 0.7096332142656553 0.8561922651065385 -0.39046623801563723
Ni 3.9771883874426184 6.803315696792147 1.517393323110182 0.640141180912104 -0.2669581554569467 0.4036176877959307
Ni 5.582388466632146 7.556521844952093 7.904525941511591 0.29828524770500237 1.4972078782037956 0.10302616055525482
Ni 5.217366662599384 2.7184530422257684 4.6842479061117235 0.6107886958919159 1.4601307708458402 0.8986409211890524
Ni 0.7407803917287477 7.4311917739197835 7.025864446324272 0.4606020756007745 -0.46178118351054015 -0.685015158606659
Ni 5.01956578032223 4.522382307828531 6.993401740812171 0.28506103570524455 -0.24707941425514865 -0.34457101814541946
Ni 8.19368096344053 7.160190054815042 9.305865926087202 0.5775864981083344 -0.32354582204400406 -1.333008231463014
Ni 4.6536607354609645 0.12672793483333916 10.332609055036155 -0.02460468592255763 0.5195507862208407 0.4195510711967355
Ni 8.218087250824068 7.238690336613649 4.886464992531395 0.5563083054558484 0.14395426622818436 -0.9073271361091406
Ni 7.360541520301037 6.040051418381083 6.855754065286846 -0.9978708479266686 0.07785171817215625 1.1534814674468588
Ni 2.201450727059838 5.2587978675853995 2.784950261418246 0.765289884398011 -0.934886533784648 -0.8047843429482076
Ni 2.2982016484270065 5.157513577476015 11.503463740349233 -0.2647819737412343 -0.6115325160364758 -0.8279371269155871
Ni 1.0479201797115454 3.1581177089285717 4.0665164807857535 1.1809400778784436 0.6661671726622205 -2.1928823162965134
Ni 3.446549915403979 2.813040924829256 2.6544793682575865 0.014272707868930257 -1.7961418152363904 0.3393802179730994
Ni 1.165805792332185 3.4690184805617204 8.216875047850255 -0.2809647541486839 -0.4989104842626698 0.0818631533243945
Ni 3.5327830607827466 2.657924007488749 7.266955845658057 0.593103877017643 -0.060337620547792854 -0.05055277324688713
Ni 4.061375658657403 6.703491457848247 5.9355676334337515 0.9022461220418073 0.7518777247571632 0.27944780328352514
Ni 0.8058454990064375 7.352538276875416 11.313632754650092 0.007368781660245374 -0.46085301526931594 0.548189790113772
P 0.08515432979538146 5.50496970421538 8.032385866631257 1.341301838930374 0.4432931520086817 0.2464158125292208
P 8.548662662545203 1.5941415435102064 7.819537444688092 -0.7113923630486071 0.9030447066837028 0.5478966843533855
P 1.8748138484209067 3.0775535276429524 10.553121844331963 -0.4784131356402664 0.5130646642758648 -0.5181323086067593
P 4.0375822322569075 6.161352829716035 3.8013522625444978 -0.5730973519887291 0.7938957210601617 0.013466152807234873
P 7.200161208635572 4.050380211608689 10.310237826622778 -0.7592264518127505 0.5819357762159655 -0.2620859149663099
P 6.330268131836527 7.644467396018775 10.135655362941442 -1.0111053443390714 0.7322537798786486 -0.2657736482305423
P 2.5715286342027057 8.415608740594246 6.016282326166677 -0.7000594545342911 -0.25963719631550125 -1.3141687301590077
P 6.534558130404725 3.9036180314929028 1.4694576803085462 1.4529735909757688 0.07360451286002807 0.46078719502838705
Ni 5.029822189126686 2.8237209287249327 0.35739258606002716 -0.030605126480366642 -0.05409472496187458 0.21621614901738895
Ni 1.5024106746070816 0.9004874575790169 7.141377926434075 0.5548327493515864 1.5630877687260563 -1.24236064707777
Ni 6.856165943918097 0.7811994748265905 9.260186152462856 -0.23447689499978971 -0.35540230443296855 -0.5214752569370632
Ni 2.743075633485676 1.4083635516945148 9.269393487466926 -0.054067214158048826 0.810887627632468 0.39518626919912586
Ni 6.287412926331088 1.8329590483436704 2.504853865578376 0.18660629657075606 0.3463833887638099 -0.05115672537947319
Ni 4.012391843321534 6.8150682074081494 10.40733573545829 0.1729005169488893 -0.5071763238158878 -0.4244459373951916
Ni 8.243520981620357 7.201179639386806 13.462015128175308 -1.1810565488516496 0.8602273544078605 0.8085296689232526
Ni 7.61206687787113 3.833878056687206 8.06905658380487 1.1197820183118843 -0.07954144716975334 -0.4590105627439386
Ni 2.9591722186389693 8.149410770077182 12.429493981928871 1.0945324997164763 0.3387433557200489 -0.33427349287415337
Ni 0.2421810301109887 4.8407816138424415 10.219088274387394 -0.09959990848252524 0.1340498626302788 0.19362463687011813
Ni 8.653957587028914 2.2950652422196685 5.5569871814173135 -0.7569286569175092 0.6991868221213506 2.4925654727903073
Ni 3.845891934487154 2.5735564830436566 11.33745592283359 -0.4297010151465438 -0.639397360767544 0.22738527826033098
Ni 1.0347616938991497 3.293298618997148 12.696966342784208 -0.4576787313063924 0.26614877218177385 -0.7220315879300081
Ni 3.2357347498986746 8.218727149791658 8.091257472915606 0.6334979645639734 0.8242784471170772 -0.07420409411723995
Ni 5.508962313266676 7.98446103902344 3.4598787405190143 0.95643263538654 -0.6974189315876506 0.9415737159968364
Ni 3.13947952491485 8.415816031809099 3.7263092377031755 -0.9381181533480681 -0.47386382570668717 -0.0972396357804648
Ni 3.3739078635903437 4.15142115985716 9.287517048508123 0.30710618843074206 0.46174261696312097 0.08557402651707843
Ni 7.282167415763645 6.190589903671796 11.38117003498144 0.25123868783916087 -0.9375707654850304 -0.26359875206641054
Ni 0.3966652586131187 9.21418462682241 0.2053147381824928 0.5161942110437819 -0.4332609645836602 1.2246956256978392
Ni 4.429840299389025 0.17871657151842307 1.5667538676973929 -0.5270738340707632 0.9302053262588947 -0.3429751344132093
Ni 6.009101938737406 5.666476598570262 0.24079578403608104 -0.41631790897141846 -0.20858820015848595 0.6419532944201782
Ni 7.97488959249415 -0.25117296250484283 11.234566477708322 -0.5957616263554644 0.14138753394227263 0.07291802831596475
Ni 0.0762705493397114 4.955945402685449 5.767514843020279 0.33714078711961937 -1.180282903910419 -0.4252787177091321
Ni 7.846648431792384 8.78596604024409 2.273656566056131 0.18212409242968636 0.040230051164640394 1.0276550211676365
P 8.48218527120806 1.4968228244675712 3.4608016370581853 -0.08321426803565023 0.682573896155018 -0.3256916647424133
P 1.6123020564636152 3.142174310707936 1.6923453059136477 -0.5463100565925559 0.21000976309636088 -0.3724008958734941
P 4.758306748315571 1.2073451492563843 8.357041762269118 0.7254786659383441 -0.6472646793307627 -0.5555745126136173
P 8.353322236861736 1.611716233465118 12.214626723806271 -0.13722208971067335 2.180134786822858 -0.09018350026463179
P 6.13545044052095 7.6969481240225965 1.3405423725254342 0.7421162744950252 -0.45804434217592727 -0.14094710397074436
P 1.8361495305201005 3.2101928671642024 6.115795628288298 -0.9973928798489854 0.027303058690327175 -0.38452236172737647
P 6.772005710687857 3.8849888601406963 5.823998094003063 1.1933885880544415 0.13229919848775926 -0.14387944712619094
P 2.3751157017989133 8.495235605082271 10.259267620688927 0.9248551176905748 -0.3618992250112219 0.07111079990389689
