# total energy = -340896.94545689656 ev
CRYSTAL
PRIMVEC
9.01209056357658 0.00000000000000 0.00000000000000
0.00000000000000 9.01209056357658 0.00000000000000
0.00000000000000 0.00000000000000 13.19010549587559
PRIMCOORD
 96 1
Ni 6.186475715735656 1.9815964906060444 11.411485738435527 0.8413161193256542 -0.43670315749598987 0.4609183212896127
Ni 4.5411383471018185 0.24520366285260475 5.92171131038089 0.32309767876299195 -0.2556334744727468 0.5154393351556285
Ni 2.81855835050851 1.630215080719243 4.890112627607221 0.19797005832300743 -0.342816497348158 -0.4225204382377045
Ni 3.4920499002305014 4.395674193806541 4.917798670934054 0.11956246764738118 -0.6559136132550123 0.2572324435287505
Ni 4.981775501628755 4.6102340452193395 2.4780247939964393 0.40086789296493547 -0.4573732842508317 0.34498547997501877
Ni 7.376053641927963 5.999646066893305 2.514192115724003 -1.3664911937118078 -0.5312490484943755 0.3810367171716212
Ni 4.869656083306066 4.704230149479901 11.253033360263903 0.6701225577655426 -1.158798765894714 0.312546642720023
Ni 5.573599486939508 7.722901970276599 12.245575445085084 -0.003482559231961744 0.14458547205428002 0.8319148806164124
Ni 1.9690877089460577 6.497987637103884 0.3822478199627772 -1.358593536131286 -0.2807217848999423 0.06345354046895522
Ni 2.660639488096445 1.50079244857294 0.4875513942152601 0.22392071675049824 0.21916160479895805 -0.5537796254967238
Ni 0.5164982290076788 -0.13830404736670424 4.7750823040423285 0.430663121949497 0.8208018014223865 -0.7833071469110381
Ni 8.519949281207825 2.34619863730495 1.3024507552835662 0.6233194813690749 -0.4453227808442008 0.9806228594794981
Ni 6.781697259177401 0.8253443739962056 4.761904825264784 -0.014042079915362915 -0.3742903995867231 -0.3128194367654355
Ni 0.89499611809962 7.2173507276395155 2.6216919364394102 -0.4851720516306547 1.263801333450049 -0.6211857228555238
Ni 7.622606414733378 3.722561151886942 3.8411305234041944 0.062116052604454325 -0.2163699009864338 -1.2058892916246136
Ni 7.609241484472744 3.8209010837844737 12.632031911326834 0.7360070762734937 -0.20156368921153675 -0.2374724872930039
Ni 7.995941277158887 8.997869454270328 6.765600764276174 -0.4952142663580052 -0.28682172715009313 0.23008647924157796
Ni 6.894988249269398 0.5346729119858453 0.3433354154588215 -0.37634908188796473 -0.07344099069897028 -0.24740774412884486
Ni 1.781275742235595 6.564442792695197 9.055574771163021 0.6824612818365537 0.07384671077782119 -0.4516150416108157
Ni 0.04847333135055498 4.742026857175856 1.3567341814008314 0.7176375726273706 0.1667725496742805 -0.08524415398148545
Ni 6.35446108327323 2.0057488932348373 6.9807184640929725 0.7066625616731055 0.15160921167028082 -0.2602540039638937
Ni 3.3743159495056703 4.38830230375044 0.4793603051296968 0.5454690487484993 -0.97611931518219 0.021936652172091255
Ni 6.039858014852139 5.553881032853017 4.718971225964945 -0.06278093988196284 -0.3471441781892344 0.4669007641252927
Ni 5.289331115252938 2.842034846347318 9.377571358657494 -0.2455267250560481 0.3883759311455118 -0.6433933693008146
P 0.11029717361689113 5.7165222307044425 12.364813513719897 0.8760285831061752 -0.7286210682220677 0.3959997662393567
P 3.8875004328243166 6.091181870438323 12.599847933614916 0.7012858707422245 1.6305013222840243 -0.8361199198366955
P 2.2958931479490094 8.433406175818162 1.3528959320427705 0.25509328569856066 0.2881293902179231 0.8444394954459844
P 6.356029187025994 7.741511937227516 5.848953999879758 0.17173632143745907 0.07127046541021273 -0.4592738437076542
P 4.781535862073104 0.9052915303246695 12.799704559322906 -0.24417920988921818 0.41980535329938673 -0.8493266483349566
P 3.9665725151620133 6.2894028017145525 8.077053696793286 -1.20120345611317 -0.20592736549687118 1.1064570190682042
P 4.755202533535294 0.9962235238039675 3.794067584222075 0.27656431108814306 0.4814087279334805 0.34327389660055074
P 0.20831627509144376 5.396133400161081 3.5336686355215563 0.2449168593861911 -0.6808260602259758 0.38925679108856837
Ni 1.6178414804172534 1.1202298895398584 2.7146552551248755 -0.864251645075905 0.07099972824732934 -0.20611068515227082
Ni 1.7069079711561927 6.3917260776277285 4.82147113885257 1.2086236598366409 0.6045092906411073 -0.19627750111193293
Ni 5.818494035086827 5.748434043282262 9.287707297906373 1.1550490690442945 -0.8017794946836128 -0.1919271945630372
Ni 8.56456814143736 2.413374760138913 10.275184587847937 0.27405491440272806 -0.7828263506198776 -0.06340134707478112
Ni 2.2500125950448364 5.249822110355689 6.998867913217646 -0.04859384974830341 0.08917665626667222 0.001628279632042357
Ni 0.4611522774165577 9.145739835737949 9.16208506433789 0.49961265253601694 0.2098773512835547 -0.18366006945823854
Ni 1.5529364043976395 1.1233390607737888 11.39109408118621 -0.27839159410486897 1.4085598407470838 0.19482765603928384
Ni 4.096184401209512 6.764060598004062 1.700916733369767 0.47488455366171767 0.49483014354570903 -0.7796317549419798
Ni 5.639450832465101 7.773847318060392 8.00285895785212 -0.4820090805216409 1.1237859972649549 -0.571659591100938
Ni 5.419745077357885 2.9615531909977095 4.784156578000139 -0.4639856473610267 -0.4311236065256834 -0.41779037975188693
Ni 0.579875755681927 7.327307244234254 6.709028267163494 0.5014144816314461 0.20290734772362476 0.7748577305921043
Ni 5.106376665339833 4.679798372044582 7.23010373695295 0.07425834439394308 -0.09164928617688087 -0.3753592071708697
Ni 8.110791358913117 7.172939145492243 9.13707651310845 0.14094736108106048 0.17174120653346553 -0.651344248716775
Ni 4.583612329784469 0.16023136484286674 10.416081413661022 -0.23589331573134215 1.2369901267944763 -0.5301807551308612
Ni 8.100941143960403 7.0164261692033465 4.591013959739328 -0.43644424740764837 0.45252289813706575 0.6704704280232647
Ni 7.187421574978985 6.071769827429957 7.035101023206101 0.30176317895127386 0.12413363195783136 -0.4960439613481522
Ni 2.350767767205248 5.200868434579719 2.712597794856162 -0.19201229807767578 -0.4841132713488372 -0.6297688365388444
Ni 2.2429381039763276 5.385796532319579 11.293869846096682 -0.29804922043479637 -0.4696839832973847 0.33707239577552917
Ni 1.2540684460473959 3.3337435179255115 4.007958738517313 -0.3283391296675894 0.15996401139287933 -0.7872391349755926
Ni 3.7474795822110503 2.55049371760051 2.6027115725675816 -0.09551262578702906 0.30117105389322973 0.21038283016506348
Ni 1.1964721754501517 3.2732723904481986 8.201554826299445 -1.243114494524659 0.21246259551222763 -0.35338784510610105
Ni 3.9612373575663993 2.748525394975544 6.979860513074217 -0.8322509237995925 -0.8699350686139276 -0.13239278664283005
Ni 4.111685196926499 6.742503677448811 5.937077825948933 0.07010884100194378 0.9332441130852185 -0.09744789513652895
Ni 0.7567488469032745 7.297333031121058 10.971859740466408 -0.5139817767734953 0.6491521261614627 1.3784805048632
P 0.16575938117588968 5.6232651178675965 7.935681933809104 -0.04459578433250384 -1.2895704719943535 0.4740078074837191
P 8.4749248769043 1.7117294395914184 7.955374252833049 0.4110458619392018 0.734773975197341 0.2087452945616405
P 1.9021188641943567 3.345017643182459 10.394462309681092 -0.5301596720849386 -0.7947737527897408 0.5255391425937916
P 4.054079914238721 6.08538709622552 3.7948065756457914 -0.22191371362279844 0.6997141553797305 -0.14367118777012675
P 6.961650682942972 3.9274600422482218 10.585468161276498 -1.43149433805607 0.9783322636731087 -1.115736130377285
P 6.3262712640855945 7.857236191763459 10.154428883167345 0.023913316282487846 -0.28063282473056184 0.5005341359090218
P 2.415717903677527 8.414823245138844 5.793252971921632 0.02558684733016884 -0.46624950369453894 -0.3888819242476529
P 6.829254060920736 3.8579768242377774 1.59579159850984 1.1261820083009573 0.8762458413233039 0.7418416806773998
Ni 5.348810912771607 2.9790276345414513 0.421200778874132 -1.1167126353579413 -0.7908499922553025 -1.0994175957229195
Ni 1.5011078717415995 0.9766582752565387 6.898886879634031 -0.8263368723080026 1.3246210358405832 0.6435139540390789
Ni 6.821683904872905 0.7921312155454024 9.07851234398795 -0.19201795450463058 -0.4612157979253734 0.8790622277261763
Ni 2.8887084632184066 1.7721464945255327 9.05263322481301 0.03017343825958674 -0.759027448428067 0.8928142872049462
Ni 6.274875311775145 1.7542214464551338 2.292427097929967 0.46611452077857146 0.6690172405165058 1.6968087872620068
Ni 4.042571474627913 6.791159954237188 10.317577461715786 -0.9840491115522279 1.1186728444081055 0.29046600877089973
Ni 7.9312615034026015 7.059377792684251 0.5007360826652316 1.0332158030848657 0.27804783761220503 -1.2512633488840386
Ni 7.358326859849293 3.993122133872619 8.368317253151671 0.9532298121785261 -0.5910151128094143 -0.0987460451226622
Ni 3.117291127500757 8.365644267099546 12.365789523124633 0.15717796400730996 -0.24842050166407542 0.036671387279104586
Ni 0.09348962477260069 4.729914607499326 10.08933545445559 0.0805493196089774 0.9548256959107362 0.26499383264172427
Ni 8.63933244450022 2.4013436192771818 5.647647328804984 0.15063450646183735 -0.9951884159984988 1.1865286277098146
Ni 3.722299801261481 2.5177618047841763 11.508946991506079 -0.2479726154933794 0.12446607559658565 0.09582475771080916
Ni 1.1831432935516502 3.492617661934089 12.61938254105453 -0.3376316107131089 -0.37726285195148573 -0.3086167115379975
Ni 3.0429774289645533 8.45835164241387 8.053997164373321 0.9314535968436991 -0.4112669768110724 -0.19749286157627277
Ni 5.591605643824706 7.760194000902698 3.7212453866691044 0.3361270011431243 0.24748821965779313 -0.07309620576504186
Ni 3.211278219670786 8.317708957553819 3.5871148384282936 -1.1053159634852254 -0.5119665461156795 1.085838571486904
Ni 3.3578418480111054 4.409678982495028 9.252951269556299 0.6787115849861343 0.19038504688689792 -0.7642966672468063
Ni 7.2785518344500115 6.168532643484192 11.238840218883272 0.06936142131295797 -0.661767500932628 0.8659717130908053
Ni 0.4813763097819583 -0.1335024055306517 0.1948639275526382 0.4927020414591128 -0.21952464456533158 0.4975796812663882
Ni 4.432957212342107 0.17213453401902698 1.7412782820314503 0.38179364994230375 0.28298795522629977 -1.2014777928204794
Ni 5.9108409267798265 5.481297655699175 0.23412870479643932 -0.11869034945507301 0.5914000069526589 0.5641540267525122
Ni 7.988001625399198 8.944328624412991 11.357195102645838 -0.517795751202947 -0.6607945954963974 -0.9522098555544442
Ni -0.02047727210938164 4.800983953443602 5.690461968509786 0.03554652964604201 0.16146142187401225 0.9521594619324827
Ni 7.837184290327241 8.75349760737393 2.657014825284019 0.6222442460270251 -0.6957225177218341 -0.23928305813918146
P 8.555321736550367 1.536002686285885 3.533497405801427 0.2911260109524018 0.9702685128283677 0.44600412318194155
P 1.9202151419848852 3.30001126306 1.6104191226541662 -1.2223368956576757 -0.8884207861229408 0.3607527701116045
P 4.778390642477042 0.9893382866366549 8.11721697946324 -0.15169714339839682 0.19547120316055366 0.3426056668889325
P 8.65346340245617 1.6348202589816734 12.445682606909898 -0.4163927280734119 0.7463650224690501 -0.11414361062465503
P 6.241125032728567 7.7403223412771425 1.5487295605367737 -1.0502771294425266 -0.3960851268643114 -0.25865092114283195
P 2.0169419096769867 3.270352473115464 6.124323833373914 -1.0303400241989675 -0.7089878673721726 -0.3155404352410243
P 6.863481980765569 3.985317663470927 6.132040886497435 0.5532348087368472 0.060151215568599634 -1.1909691799796716
P 2.3774525672738505 8.627670799350346 10.197797766439935 0.35393420452787433 -0.975281649772243 -0.7199142844766893
