# total energy = -340895.4539076118 ev
CRYSTAL
PRIMVEC
9.01396699621215 0.00000000000000 0.00000000000000

0.00000000000000 9.01396699621215 0.00000000000000

0.00000000000000 0.00000000000000 13.19285184470943

PRIMCOORD
 96 1
Ni 6.3931831334681775 1.6561812259204765 11.289162574122333 0.45655001701858794 1.2825055947277717 1.2545435622972072
Ni 4.777456591423561 0.5291478059342657 5.994990240044716 -1.7118836793172583 -1.4101032739748036 -0.06415853695577982
Ni 2.797439587222305 1.601223069148837 4.840562472962444 -0.5560604511111004 -0.20744894434772013 0.6996825308108466
Ni 3.254492783729763 4.227388269489411 4.684847995908366 0.21568418777331885 0.4108651133869633 0.005054788815088069
Ni 5.159558652363333 4.507515321808951 2.7394166816721914 -0.3212675675327887 0.1241500870180636 -0.63199926853126
Ni 7.079073910090709 6.182021942631303 2.630984067096374 0.5356376644803743 -0.1936647460794342 -0.2694518684130779
Ni 5.0000565063777405 4.572370814341662 11.342000645856627 -0.12595885809202823 0.0969627279699943 1.0289621700148346
Ni 5.632251081608004 7.774231044784628 12.028978506898818 0.2399705711245093 0.18416760522227638 0.8179867005710946
Ni 1.7202434893575833 6.35057411148039 0.4760943003887782 0.6699826897535688 0.6173347245405497 -0.8857270413408618
Ni 2.8501352382780705 1.5557115497884946 0.47646387303559423 -0.35096278060437625 0.19713367846464114 -0.3076623180445282
Ni 0.4184040102207991 0.16884962975993884 4.744003957109815 1.500315570594842 -0.6422854809486164 0.8297744372346418
Ni 8.725493009755045 2.3288304850266 1.2907306662115146 0.026327325040619173 0.5230446583067121 1.0912175764106304
Ni 6.717992420184473 0.8732965588394325 4.839414994963915 0.7938129315383684 -0.022375796592038883 -1.4504860486672246
Ni 0.5644383881183964 7.555831638450357 2.6253377181703854 0.9574757319390736 -1.185983296729306 -0.2818494707464823
Ni 7.539687623561394 4.0405738035074155 3.7025076755308204 0.5773389008739026 -1.5287067201430253 0.07340268126186714
Ni 7.684857562024122 3.7697852209952263 12.514356291896274 0.13042486428318184 -0.30005210979743807 0.05811130232043541
Ni 8.058134949275287 8.72327557387415 6.84285479240301 -0.9318919699326983 0.38346178167334605 0.15615029407374398
Ni 6.854932606780297 0.5984399730221689 0.41937571586291533 -0.08140241163789207 -0.15664111766723346 -0.782587238025878
Ni 2.0182091823612422 6.6320983286842345 8.991707004017012 -0.011699804935431463 -0.6796541514050618 0.6857096135705223
Ni -0.17341790823326453 4.941177273963053 1.4377304399743314 0.3904515827276179 -0.49913545578928237 -0.013400846786938212
Ni 6.438505359521614 1.9813240294156051 6.9318938569879816 1.261565245030679 0.14760857515131998 1.3735306170570925
Ni 3.4052784236306946 4.134084697118861 0.38174330505335047 0.3978710151201406 1.2368443452452311 -0.37269888672988716
Ni 5.833514936683806 5.460291633234615 4.847963841262459 -0.5838980421486589 1.0473823243932348 0.31313773933680267
Ni 5.291505101243644 2.826347379376913 9.23419173016329 -0.5073696707736165 -0.6481277986620064 0.18984691499524078
P 0.1134173383243356 5.531456902664185 12.4144734250157 0.37765108852883994 -0.49207366384649437 -0.31900293986832806
P 3.9212829642888036 6.244110147296393 12.561204582562052 0.41190923838076154 -0.5433859409672255 0.2364533019998702
P 2.292242792991815 8.383701409219205 1.4226383550337447 0.5008483247153309 0.19876504342047704 0.44946071427197426
P 6.228281621252273 7.758555756179431 5.659443515843368 -0.3482307263851938 0.18871794359712016 0.5037428726543066
P 4.716504146599906 0.9088422362895362 12.611389843809565 0.19585044087684336 0.5804309095356648 -0.5898483461948227
P 4.125160869793304 6.083084640888559 8.059381580910767 0.01044459237209169 0.8046102792641885 -0.029802428073413188
P 4.663502020666293 1.2959109930438355 3.7046448871054563 0.879227549659447 -0.941880705714294 0.9574263667583769
P 0.012467217751493242 5.58493676884856 3.7242764058249826 0.8227375849925185 0.9387920394866414 -1.2578489725213562
Ni 1.604810628013051 1.095611632436554 2.6483855303812107 -0.9551437413717873 0.5253900186104371 -0.400721082974426
Ni 1.7335661325769505 6.46490726885147 4.745693174524774 0.8124675705250783 0.40924711816756615 -0.20500356813102114
Ni 5.938311316973634 5.442993830570226 9.27101288394326 0.4274253317384897 1.030643157261683 -0.5569870766904279
Ni 8.649784700959737 2.384302437916984 10.202388234928177 -0.09957548300249303 0.14083654653480904 0.4536860652072316
Ni 2.456711634791935 5.1344637682478265 6.934888296823891 -0.24712235167794214 0.24550769889265459 0.1838935256252833
Ni 0.4612158464659854 0.13000484038947757 9.248980945812828 -0.279611325444583 -0.3902692915134827 -0.33871250248211343
Ni 1.3709702962154675 0.8422028796884125 11.456752051296297 0.2902754900266485 1.04359380388508 -0.040957930469600425
Ni 4.0019309269976535 6.922546373213636 1.5760308341897789 0.20358971850263 -0.3708127254507679 -0.06070528829985674
Ni 5.711546949267527 7.795909635408836 7.887610524447583 -0.8844078083088059 0.002956254414846522 -0.3816812927341556
Ni 5.076783393443542 2.9991270987468956 5.332339273130015 0.3014315066434679 -0.5726466376045557 -1.5239697196786721
Ni 0.9325940393227115 7.333249751430169 6.926365591029635 -0.6097281158378853 -0.30449471894982394 0.1836896371445933
Ni 5.2539619287073345 4.338530482544079 7.297335402729948 0.009032799626229606 0.3222525571538773 -0.9486900153266437
Ni 8.270053313339785 7.096011154075278 8.991614160156958 0.2807539236894584 -0.2953847862287558 -0.09375116301123208
Ni 4.612428883669719 0.31904124923586646 10.443817425539283 -1.0346515070901277 -0.1890123349090874 -1.0397052674639513
Ni 8.035762283192426 7.38754087464414 4.638224153020777 0.17608148578003222 -1.1737235055253463 0.12016770533154789
Ni 7.2784448320974535 6.1799757721233215 6.812564257711291 0.4455307830899488 -1.0192703966483672 0.35845240411320206
Ni 2.1997594916178578 5.277254019423738 2.461271800694965 -0.18075189467250805 0.29571131633023917 1.309342769525274
Ni 2.517411688539716 5.111442096541287 11.318780666876187 -0.8952648056279678 0.2601930688189712 0.7563851257092135
Ni 1.2141362844605468 3.3085405298348554 3.784620407876441 -1.3766010284523003 0.06988309814438286 0.03206422752439639
Ni 3.542344805764457 2.754596202092634 2.652027173047398 0.3300008336407284 0.30772402452039904 -0.2800319579217693
Ni 1.137111936483893 3.1591520548182275 8.274754998524644 -0.5914249466533233 0.9269533949805004 -1.0993360917527066
Ni 3.5476630462918086 2.533285284418813 7.315713078640399 -0.26246361002070284 0.23320599870716613 -0.4311536884326704
Ni 3.9864359177323676 6.979487602724288 6.035123125298836 0.6586505525702011 -0.06207645761577051 -0.9809902701212461
Ni 0.8564188070370351 7.435008424842509 11.539972600185667 0.6210399413062788 -1.0338727199425741 -0.9902007329759206
P 0.43668884227119603 5.434160142914623 7.988654390277178 -0.7825391583967619 0.11931178508915581 -0.49964633398742975
P 8.455578782041421 1.6226763105981568 7.94199088593481 -0.6175483832132527 0.07963169289071448 0.7576935601079919
P 1.7299785737127367 3.247867517988061 10.33843333460135 0.4189707732132333 -0.12051377581705694 0.7647270699160055
P 3.8081486645281273 6.0836164649412945 3.791493557710519 0.6768251665966989 1.0946410002698825 -0.33659391347721385
P 6.813188925624079 3.7643047290619545 10.437419311765868 0.8260123990890484 0.18463785999047555 0.03543545798947446
P 6.420856012144401 7.606481118998142 9.912990317553755 -0.3370232877051486 -0.308911617070597 1.9627981510477808
P 2.35741377436937 8.453027829381691 5.781226716936238 0.15364166871927734 1.0604658970500704 -0.8201009187006199
P 6.908655850073551 3.8628904860918745 1.5417822665903294 -0.09555402054792575 1.145674055587298 -0.6689884441610995
Ni 5.371864617008637 2.8255451363143127 0.4121483171259135 -0.7649798093567599 0.17279741571212176 -1.6183418041033548
Ni 1.3197619497139612 0.9401297157309599 7.074917569909078 0.6642082491636366 0.5920607804651093 -0.7827970400438389
Ni 6.846856092352318 0.6333150113278064 9.202488706843376 0.24456641802530785 0.11146400690996287 -0.9524088589391274
Ni 2.554450078924276 1.4717464472252966 9.304179775503249 0.881192900915934 0.03978293632489278 0.2605157422657126
Ni 6.263129617656924 1.9484320638489803 2.2919813879489457 1.0918883772254098 0.08435300962578375 2.674773897403684
Ni 4.106916600594387 6.793754812781755 10.28012108071068 0.15412272212075392 0.6935867023257538 -0.20424534980875791
Ni 8.199987747883666 7.242397978082399 0.17219741710207215 -1.4284666069733398 -0.633358867882948 0.5943058677455443
Ni 7.621633597517597 3.878628872466039 8.26467558063026 0.6666495116152776 -0.04262374820779757 -0.3315782054301773
Ni 2.986768949996048 8.403883681322156 12.468234526970335 1.0916142976284169 -0.9563796706614174 0.02054825646499687
Ni 9.37966363652037 5.065065236349376 10.139352662331861 -0.6743977881021288 -0.7652667444695594 0.35203647328452925
Ni 8.649874840629693 2.353384531122376 5.816966194676745 0.581488918486534 0.27154680326889363 -0.46020792548614936
Ni 3.550204984984543 2.6830343181152614 11.333965595676826 0.4948995633310638 -0.8294432791474682 0.5754895063699895
Ni 1.258016275794701 3.0284495333832977 12.597749007555256 -0.6726340113334867 0.8554805837514944 -0.5454453945994154
Ni 3.1266206479314236 8.541382733871703 7.926753676125595 0.8807717542181154 -0.34698142735912496 -0.1534292955981551
Ni 5.542480984299696 7.814280100145689 3.4802349675785775 -0.6419671783772493 0.22481546065062571 0.9160783999392094
Ni 3.088834098286235 8.509329067235662 3.570170020482904 0.5723255068197112 -1.167440757840428 0.7218320703246923
Ni 3.417212915932753 4.4108585537160705 9.16676275005336 -0.12351296765469696 -0.8925952292156046 0.4373076238492081
Ni 7.254368526252439 5.944044199982779 11.268384478800977 0.14796004495346776 0.16762949835793714 0.11068264865924808
Ni 0.4403413016977777 9.049211606464883 0.5357667618990705 0.779334021195903 0.3395632805181829 0.3573360311205717
Ni 4.570189434328748 0.38523080888391426 1.6301479878407368 -0.08985414194967105 -0.8041711348442409 -0.055414472214562624
Ni 6.039096481950458 5.79144675271575 0.31061409149176195 -0.5373317643533456 -0.8573646881480849 0.12101539804382384
Ni 8.022547807577004 8.765055310898349 11.249070251719692 -0.8781278888373651 -0.24999118858530495 -0.09957291189933175
Ni 9.208127844595767 4.79581804219342 5.7926906801611295 -0.4220193302315699 0.0213560970782729 0.4594535638186281
Ni 7.752444286556474 8.904609547922872 2.738031234944981 -0.6512501463410719 0.2919837309670068 -0.8474674836390309
P 8.583297680400838 1.664194642579487 3.604893624143017 -0.764719870827154 1.366473453099995 -0.8273820257430653
P 1.7992869659412316 3.392226199421193 1.5844877380249687 -1.3327210392398983 -1.0809827860564996 -0.8199535944894782
P 4.888562748610247 0.9481611603239615 8.126176879140912 -0.5192345405320026 0.2583894399513292 1.0548755474464866
P 8.57479750952407 1.4951737474466331 12.445093870899456 -1.2486156268485464 0.9798055057845254 -0.753278975980064
P 6.254512265209214 7.738346442175493 1.3297079608968096 0.032936859937336825 -0.15319892475490393 0.14484798168704732
P 1.8405799487476742 3.2630560523754997 6.066680122353426 -0.04886638668339971 -1.4727029510838958 -0.5621547369342963
P 7.0997519503784146 3.947793041222606 5.890146987126513 -1.3877097367709519 0.43038132904302007 0.8502198495731873
P 2.3739724317401265 8.417810260330224 10.119775227414307 0.6986808290192097 0.18230124143749896 0.6742808029082904
