# total energy = -340867.46970289317 ev
CRYSTAL
PRIMVEC
9.31753284938461 0.00000000000000 0.00000000000000
0.00000000000000 9.31753284938461 0.00000000000000
0.00000000000000 0.00000000000000 13.63715115572519
PRIMCOORD
 96 1
Ni 3.5051812525053516 4.144969633713033 13.92093982557947 -0.1054532819395087 -0.9264579434013206 0.3181125668435747
Ni 1.4184732220186957 5.7737954734284385 11.650176981621263 1.6093550272237123 -0.35782479783153215 -0.32354659337495245
Ni 3.878385706315771 7.345290534587507 7.17563689962021 -0.2542376225664847 -1.121134932795353 0.4468250764213401
Ni 6.322141588952406 2.8447731714853552 4.81998294720289 0.9730483895663501 0.3497718456200686 -1.5334632609914043
Ni 7.840759652174337 8.210311633175706 3.0266290472453354 -1.1529785596685111 -0.3891670595882395 -2.264855721311022
Ni 7.1303723258794856 8.461978190758456 10.26885648939544 -1.9493746785530233 -0.875898228175898 -0.5730083918193487
Ni 6.262677095413232 5.013419584326053 12.202550134767861 -0.8114072475813638 0.6899480771319021 0.9978870458765846
Ni 5.836157719629895 4.262938914925738 1.2655110150874496 0.8842985364244512 1.7462891533803215 -0.8820434218416874
Ni 8.277863745077777 5.401541407950986 6.999718155681471 -2.4409816871757446 0.11772361466642951 0.6315925200111445
Ni 1.0853900639117682 5.158363122636207 2.7052831850505514 -1.1071296196551965 -1.3450844459012576 -0.7545339314330876
Ni 3.4017566398001122 8.26167919081931 2.4611917815335103 0.29862514754292446 0.0883346199813511 0.19307544923486747
Ni 4.003408359764321 0.7319536874270636 8.238175714643726 -1.0518190200083497 -2.1956771054328312 -1.2136288263607165
Ni 8.99352479486733 1.904410503677826 13.060149818579509 -0.5942325913054476 1.2839047890681436 -0.897564657405738
Ni 3.984708071683292 1.2272122287754121 1.3229172656584631 -0.28855953577680626 0.39653378436595577 -0.07392564364487268
Ni 4.600829919893558 2.130956993165681 10.03286574878704 0.509064027756904 0.32868520015309843 1.1734789936147079
Ni 2.1308079126428625 9.237606880851695 9.611109495707751 0.1751036952477952 -0.89648865073274 -0.1399304897807719
Ni 2.279357336098685 6.119643651301689 0.6683633904188908 -0.1109317885555767 1.4936080766676794 -0.12848059607261744
Ni 2.166326347204338 8.816100337648125 0.22739438496138434 0.3396424704955505 -0.24769159391785087 0.8708087294681326
Ni 6.21894991456407 -0.11830564414231481 7.944977186910317 1.4097667165709913 -0.004046402155231741 0.48391529640541825
Ni -0.017217868632253313 8.136442234119208 9.979585301685026 3.040378853401267 -0.15886692167395863 2.1923616679063533
Ni 7.773216857804942 9.074689822009253 13.03646185525694 0.1315504932471928 0.5460192648250144 0.7229379017943613
Ni 1.5337217836899666 0.9107534124692672 1.9341977238902026 0.705473940681643 0.007911798647908955 1.3864905196518702
Ni 2.0848538414841022 7.0311778730092165 8.909436857724899 0.3958406149536731 -1.0825799553402904 0.4592633021846929
Ni 9.228960210528228 9.160839729132913 4.491586508032065 1.006141572575893 0.8025752511120307 1.001664767751462
P 8.462462702457616 0.6112208260226123 11.113719106038793 -0.7003828993119809 1.1532086734014462 -0.4706509751963443
P 2.3125557050237995 7.989625871741149 11.91113777804847 -0.5063695116438762 -1.4698695954001588 -0.6765711416043638
P 1.9794073241881387 3.315224713836728 1.7182946519783113 -0.6866102710079207 -0.15731346114390973 0.7214772580884349
P 0.6921920484848709 5.455424699417148 9.609677390935428 -1.0233954745603342 -0.32056822747291885 -0.42210314819462785
P 8.965702642296351 0.8727863303205007 1.2147863671985015 -1.9608191729445392 -1.534046387188384 -0.26623233303451566
P 6.429265262130076 3.743644866285999 10.49095106177063 -0.4294945555626926 -1.5579530186026525 0.19746355100023413
P 1.9718601227204593 9.20165052225444 3.973825193517552 1.7256622211585892 0.019966158709281742 -0.41498427776165947
P 3.938949668710731 3.29173521396016 5.766878137169667 -0.6067875451523227 0.5839836598839298 -0.8275267788510458
Ni 3.9805524521097304 7.498554629577461 10.585920013572265 -0.8314124870586972 -0.17026847864268096 -1.708631748038864
Ni 8.620739630027336 6.658821314672327 4.407240475234505 1.3063939713095951 -1.3123761570349592 0.05825939786252548
Ni 4.3011407988979435 4.5509345324127874 10.328137427540893 0.04909032976874771 -2.006822893368163 -0.6133945089458791
Ni 1.0318049334912427 0.41911566431886965 11.760379167595131 1.7131036677672884 0.17918095064096237 0.3903132573775407
Ni 4.65478775162113 0.4805349762135 4.343732172513882 -1.7312356014813088 0.7512516611373902 0.0008253241147727721
Ni 8.517939292011398 0.6647099858565734 7.252087255228002 0.6542465099652346 0.5903502255319059 -0.7565008253514713
Ni 5.034309492585978 2.9801010160737245 12.415520979146569 -0.5766110215689425 -0.3027129444590529 -0.42045224285476623
Ni 3.724012824937356 0.3253235168942318 12.163738884158635 0.5618135515447937 0.8802747599770389 -0.3539658290967581
Ni 3.432867881405769 5.6506363265151185 2.97023933948929 -0.32097600443429886 1.9235122089639645 -0.8612491108041554
Ni 3.972623231802329 5.607757041139487 12.132973323015264 -1.2877213346007563 1.6638721844349862 1.8869513791207955
Ni 5.308086555209225 7.4489294505442984 4.5015143390985 -2.2243351354891567 0.06475888954394009 -1.636415373775614
Ni 3.1008469220239223 5.034160412063159 6.843599168679546 0.3466623534568094 0.08825928665872543 -0.14940423359916205
Ni 6.229338963497975 0.9618395806260498 11.54789842543519 -0.453716918445167 0.8513308232491791 0.7725223975907083
Ni 5.848289147174239 6.878547370241241 2.262076108244234 -1.157955186947496 -0.9861414753048824 1.0791210502574127
Ni 0.10548565093320321 4.010927608633971 5.754973125669352 -0.5101220367077731 -0.3157373817431788 -1.402031809820579
Ni 7.762790538740334 4.549145566138967 2.8145303239251156 -1.6095997962446666 3.144664597395236 1.61039452423182
Ni 7.9881257489802895 1.3084797487767723 3.1001331990209295 -1.735116938813586 0.556215745742042 -0.9524050022843854
Ni 0.5547099903417765 2.7494641297410407 3.6853581088770895 0.9081822850205843 0.27617710295205344 0.7500810378680566
Ni 1.6744072095671205 2.4095978078458775 6.022874552187021 1.3988076464563264 -0.6356309517465762 -1.021667436125634
Ni 6.806476254991239 7.216130896630749 5.953270719589662 1.955077128254439 0.1363304311343394 2.084162190680275
Ni 1.0216860930049463 7.453988870787447 2.438322829333173 0.09524908771299725 1.4683595865135357 0.19345005896546685
Ni 6.827440703512571 7.148634689924735 0.305385860473811 1.122184971326422 -0.9191734939247654 0.2143060764788696
Ni 2.182054342361675 2.116570722713709 13.520007326278101 -0.25650045045873243 -0.9098280481541233 -0.6911588096105516
Ni 2.8892737075466366 2.0783129335454467 3.478945875749122 -0.6657951340347824 -1.799567553088488 2.164230713998092
P 4.4848266380755195 6.119531840909575 0.6261717389547589 0.8393317419057739 0.24729435847943215 0.6020939963313954
P 5.637265667124846 2.3081391945353054 2.678363901395893 1.2366263156971542 -1.1197043709964136 1.7423743917069476
P 7.5642432349443025 6.888983006838528 11.815104764015217 0.20687507412212114 1.3281871559252867 0.021073789951163706
P 5.324485412719244 0.13017245375865652 0.06836366899816321 1.1501740003401804 -0.5044481262514474 -0.7043007463091484
P 8.511677910053027 6.443372006601764 1.7366231705055615 -0.46405249604322013 0.4781015179371186 0.2613881175683369
P 7.252506544198429 5.0754650344165215 4.847775283669303 -1.4031026742872545 -0.47060238134659593 1.8839300757959685
P 4.885415320421138 8.908194830619168 6.349034783515571 0.4836502156694897 1.3445434857961232 -1.8461016920942852
P 7.7565757444453425 3.812026238596247 13.601981115256313 -0.4571848223891094 0.13301679338007413 -0.4335209031132663
Ni 3.4093597464638488 2.869296917488976 8.123705166950915 0.1517490796822548 1.8673022374313002 -1.7733366444164171
Ni 5.855733855782481 0.07473872485518346 2.3833512500504375 0.1848425198021139 -0.38528546514564616 -0.7979259252654775
Ni 9.711757483675498 7.352362541888704 13.086633041704923 -1.262745124271393 -0.3288505220863691 0.16267755366930048
Ni 8.371225422492778 7.572554474091426 8.204245919403535 -0.09823131026977276 -0.16908731385038622 -1.891489890421097
Ni 7.602501024112565 5.126264222566879 9.333143270393307 1.4966903151374287 -0.07821630060042659 0.12576731090651241
Ni 6.300161529369374 6.870879040848772 8.47278932392259 -2.171666344340531 -0.14081314949604135 0.6921024044707436
Ni 1.0336870750918246 6.39723158478948 6.970438740999945 1.0374807490088067 0.054187541785997 -1.140641892480029
Ni 1.2226932254274805 3.8203095251453427 7.957155202118042 -0.34666569589091906 0.9169042382746145 0.40961375747836554
Ni 0.03726919895132314 3.2598133470116784 9.92038635782712 0.009249543622726005 0.9536273047272608 1.3869042101505211
Ni 5.555942241927429 7.791004027683708 12.116144927248873 0.07438869932422028 0.3354155768983965 0.8879322765222966
Ni 5.685306865603064 5.2903180203958104 6.9231858057861295 -0.4091093070381212 -0.1105047283204871 -1.287842433559653
Ni 0.8008074586439922 4.267374060479585 13.523853603766817 0.25433172494218775 -0.45487828574311984 0.27523427942280987
Ni 5.236490634125706 1.9033296698873932 6.579380031075491 0.5571130607453308 -0.9403678686141934 0.6208730767111114
Ni 4.082048335551007 3.5704692039671184 2.5280683723165605 -0.6260962727832637 1.4380452518007103 0.18719456497405826
Ni 6.816855986392468 0.15673487591181834 4.966159195086098 0.5298166869232231 0.548159708206785 1.2475601890008385
Ni 2.14198895185424 2.1016533528991967 9.89605734825643 -0.23404906343375176 1.547115047446884 1.316567055187855
Ni 8.474724575459426 5.022709164404173 11.840114885224533 1.5711075537067394 -0.8348287118290977 -0.5452908712994222
Ni 7.6126105470661845 1.7383720713888744 9.5136033797584 -1.7369552775739052 -0.19515804279550905 -0.41846529433172447
Ni 5.685474581191235 3.6130316932317608 8.413290355512514 0.7813963030415704 -0.4851771938369774 0.3028204165711946
Ni 8.7477096478052 3.1291908564247635 1.7461550064332605 2.1360763630510635 -2.2191769883269843 -3.3356921629621388
Ni 2.848276563771587 7.257379613788054 4.727495254352912 0.03894655646652648 -1.0877242185453913 -0.0892689588701624
Ni 2.338206872481234 8.932709259090112 6.306091207164474 -0.6722910261717712 0.8967115653768234 -0.17982809730665805
Ni 5.020323876039079 4.949277689383453 4.511960224981729 0.29478057698585364 -0.29519966680114323 0.45973535672510496
Ni 6.392078989219571 2.0849842869415682 0.7552093172334605 1.4223653791716084 -1.5711841725809454 -1.8352333819212132
P 4.185025706687791 5.891885882565934 8.805249139093483 0.16739012865362138 0.7893086159101116 -1.4571840295126903
P 5.042303935622111 9.370083560441163 9.89133894970923 0.7985093085727732 -1.3434332834510798 1.6134579936484923
P 1.2946991179487497 5.568856342216569 4.768488671114891 1.1873760633117743 0.15569700858640928 0.7344441026617481
P 9.041081481646387 7.911759251166583 6.185880127589886 -0.566350777293515 0.4215213075492289 0.9761591672811899
P 1.8653886768301196 1.2163945733384047 7.727723072760384 -0.46576202253515914 -0.14642921013123814 1.7103667284520996
P 2.598948706890551 3.507827431785377 11.89530449477189 0.4457395566666452 0.8386887090051361 -0.876012385156259
P 8.41548370270448 1.9168773623985116 5.15755715605972 0.1623451100305462 0.07724905159115084 1.069568373571971
P 8.438824122058229 3.0832461027986793 7.966523981223908 -0.4767910266558111 0.3259194644825032 -0.649348815553301
