# total energy = -340892.260077555 ev
CRYSTAL
PRIMVEC
9.04755290351921 0.00000000000000 0.00000000000000
0.00000000000000 9.04755290351921 0.00000000000000
0.00000000000000 0.00000000000000 13.24200821496214
PRIMCOORD
 96 1
Ni 6.311789984713125 1.8377570228015367 11.492248632344259 0.20870492824200831 1.2926578526704253 -0.5246857934545609
Ni 4.946342361490701 0.29427708382564993 5.917230730246039 -0.8736839941333986 -0.04849151984248423 0.4416278484911168
Ni 2.969958734464289 1.559255252063375 4.89880109047125 -0.639663469944737 -0.15646319732847247 0.1257685964580931
Ni 3.6751792861489343 4.437987511498332 5.188112877312263 -0.4656380953627851 0.0742999962651559 -0.42985759532906614
Ni 4.772783155848763 4.178060366688487 2.7034485902265613 1.7585029218376942 0.6065126942243813 0.05177250458660117
Ni 7.311236953927659 6.088803998045178 2.5004748856291665 -0.19153587266188948 -0.9204575028435116 0.5632132601057978
Ni 5.022631326823174 4.552484292366743 11.499148296120651 -0.3142862511189491 -0.05538876118294977 -0.35353954019261696
Ni 5.820743103255032 7.750459452863881 12.465947171003803 -1.3338656943673028 0.7016098297405465 0.3243711461587769
Ni 1.6097134541102442 6.420785853470277 0.34138135804415726 1.3566510676929346 1.3517603152595365 -0.3413021175861606
Ni 2.720201039018023 1.5914373974248084 0.423479757038867 -0.32617940301210924 0.19654592428197118 -0.25194085611250805
Ni 0.6055436623265036 9.403393066769338 5.010299512336912 0.6899971852022826 0.3278022833275129 0.19397276423815626
Ni 8.575949124112636 2.398841010597233 1.466221075981692 -0.08980940475466469 0.7380202500487806 -0.8544932801375607
Ni 7.094050448613853 0.5841805806207356 4.819786097475747 -0.6480483515743226 0.3700082272716015 -0.7406366046257051
Ni 0.5191865802219747 7.188995467849974 2.3583622593048363 1.1415338081666793 -0.7393309984404041 0.6079519977740692
Ni 7.515024033523083 3.7545987047552494 3.915555574081771 1.2363296103923418 0.10902274445832191 -1.1367451285287842
Ni 7.547785222264649 4.024559585636455 12.601691224901954 0.31662852609888054 -1.157673136930703 -0.04861724678707111
Ni 7.927782440476682 8.90513528571803 6.936005081783061 -0.6570394993293395 -0.4909513773165932 0.12140517728307479
Ni 6.719916044625663 0.8139721365158037 0.4240226102077413 0.755464413667157 -0.6653683309100089 -0.1744346942052286
Ni 1.883754781310822 6.52054417080375 9.186232799358693 -1.421000894723914 -0.5085804032522661 0.4866913164886586
Ni 9.113509474590444 4.933196267251128 1.2712535508699123 -0.7004260938450906 -1.116166533046484 0.11410144453280995
Ni 6.324420368442268 1.8707353528106525 7.244384586180785 0.4521176922788472 0.6397562867688595 -0.3368337974021618
Ni 3.446900481084463 4.532118250981141 0.5983372865096968 0.8593686059519909 -0.42949969776901514 -1.2735635550431357
Ni 6.104610072812235 5.655797167892566 4.636794818024617 -0.510829604297759 0.19255685772723613 0.35136310136658844
Ni 5.259993874913476 2.907521572490926 9.378625390939446 -0.0486648121955549 -1.000232920400942 -0.27630617233074994
P 0.11995607423672422 5.685301237620887 12.11421269827393 -0.3926077098386722 0.41139861729293015 0.9875098164073187
P 3.9762275585010105 6.284529708082818 12.620467611258036 -0.1904349262882269 -0.1757220455580845 -1.0158713982691472
P 2.2365460082094364 8.332750904456935 1.5188190242692075 0.6421564115699199 0.24286769016664622 -0.6943503199646559
P 6.478056862786518 7.656753948363357 5.636394690881716 0.525995770515236 -0.3488236227741864 0.103236476793848
P 4.67217436855072 1.0073726254800992 12.564427973879857 -0.14614047524622573 -0.04142561413463833 0.16543171937566992
P 4.166271405371099 6.177732394659609 8.136273342780402 -0.3139232113525755 1.2147714246055916 0.31422788707718785
P 4.778474066569129 1.041680945752957 3.8916673203854555 0.07016257705801464 0.22782930777628504 -1.5235424023332664
P 0.3837501431195175 5.280993244996099 3.7283001829891322 -1.035707716268784 1.4694769879474303 -0.3526157428267669
Ni 1.1494282522216974 0.9917836919805912 2.3927384362238033 1.8945718717805304 -0.16932565511343742 0.7268367226281354
Ni 1.9867159323406538 6.376154275435991 4.862915781742813 0.30834083216879155 0.43120408205463157 -0.372472629651694
Ni 6.161980605209438 5.508240629039708 9.213008127158137 -0.8908633341261624 1.127862995547806 0.2091283889326721
Ni 8.549747411161635 2.2223503978433725 10.282472298094083 0.48732175098380587 1.0865445964149933 -0.5151572851388354
Ni 2.439292619231185 5.361453132176088 7.07978698160168 -0.49640314445978373 -0.4966250306626027 -0.027753001743552202
Ni 0.48710214843093874 0.029647021062790224 8.88614266284968 1.0919639676583515 0.021278706873118194 0.3083819698193721
Ni 1.5465162977004574 1.2713349788452435 11.5081922299141 -0.5660175623238123 -0.3499178842796296 -0.44061843338999596
Ni 4.204832075466807 6.762502875723854 1.5144219136013253 -0.3468929814103768 0.9290172194880646 0.5104912471217337
Ni 5.554518861686246 7.869887150016235 7.827443270252513 1.3522704221267356 0.8669739291030747 1.8136222314093413
Ni 5.302933560571436 2.777987758844696 5.199699173446604 -0.547269849402664 -0.7819897136511952 -1.1669198523399515
Ni 0.5529239999122331 7.365386557522873 6.755291071375359 1.1029346077372424 -0.46880209491306357 0.43214202048786865
Ni 5.229747905854361 4.583770729999535 7.29669029851239 1.0510271202346737 -0.6158326860737265 -1.6321946508260468
Ni 8.349923159698992 7.14751243819516 9.221349970853174 -1.23083542004699 -0.14815570590404162 0.32369520313767475
Ni 4.603458204924044 0.34857597204230506 10.301236017876224 0.7461073979322892 -0.7710468414864462 0.5661934257800443
Ni 8.461117583790084 7.504818393948245 4.530554833854784 -0.8666497129944364 -1.6622161368888018 0.0637283913968967
Ni 7.190750693096001 6.063009424970833 7.0683056370799875 0.6018790521071118 0.34502893161844445 -1.0345082966440444
Ni 2.2103804854696936 5.257089610459998 2.4830357275790784 0.0385943153334303 -0.233869600433094 1.225459243336741
Ni 2.212678563884595 5.519513879846666 11.426966015010715 0.4831799609012904 -0.6274900678069968 -0.4709991025643824
Ni 1.0046583596357275 3.090571661035351 3.9715563069828463 0.2777164224147152 0.4091650999767211 -1.5774936597387412
Ni 3.257336154513546 2.4999021755360045 2.7323428548951787 -0.3016022278933774 -0.5258024235575074 -0.2609268616612022
Ni 1.1705995258077966 3.2575804384395397 8.083464586512308 -0.25051492229925887 0.10589371191103698 0.38337076462143654
Ni 3.7496949311297514 2.917998638650201 7.286507277819589 -1.1176827125806943 -1.2351013944121954 -0.2046410425852798
Ni 4.405868699006601 6.955342416413647 6.036581523199467 -1.714448097610325 -0.9704762579637994 -1.5028956726171923
Ni 0.7358510417383799 7.881585635805477 11.499254152488582 1.2631374746138053 -2.2132814487781562 -0.98104246351542
P 0.18841166834234047 5.551587454574324 7.969265470131496 0.6113671941032052 0.44128589177066585 0.63942949955706
P 8.371157766154793 1.564140930583244 8.088231742090306 0.6652446608479511 2.350575272267029 -0.47828972268852465
P 1.992696364751086 3.5121423844303434 10.367856768271047 -1.441871567525336 -0.8320498635323801 -0.25005315217149193
P 4.0254733884707266 5.959025900472954 3.6422543367014244 -0.12427195730790855 1.1871305229598719 0.8599795000631124
P 6.903210417096081 3.815859684862718 10.381350288538698 0.3602223515294312 0.18038422692044417 0.3872125069650299
P 6.352449687061813 7.607508118393641 10.301341874244155 -0.6530260072945722 1.65311905968354 -1.8082789648195565
P 2.397248641301868 8.438833461207793 5.88643014619939 0.3687419589646682 -0.9165257718892732 -0.9726593816580474
P 6.920473147866285 3.9244031759791405 1.667314699104218 -0.1249080482300107 0.8419784355000015 0.07869606845032252
Ni 5.345239917532376 2.9309909244919266 0.5883487882024091 -0.9460785458457255 -0.3903713643089858 -1.0162835461059014
Ni 2.137620065734904 1.0903567798953555 7.127378014161612 -1.1218682114169518 0.6658887221898532 -0.4461571038200381
Ni 6.929701651737149 0.604762858518606 9.333245580287397 -1.2558879921402435 -0.8417431795607438 -0.5386085741832402
Ni 2.8058180313023198 1.4898967121868643 9.371395491485321 -0.7751109842534909 1.2637375700916493 -0.6536849810348097
Ni 6.332246501626872 1.8877809423133067 2.6177990267521314 0.20338634424257226 0.016229317374668824 0.6594149415400514
Ni 4.017647255286121 6.982358409117959 10.35693184824745 0.7101260947416738 -0.2902173830952034 -0.022128456467923177
Ni 8.088421740699411 7.18928498954004 0.22171751976334372 0.4255939349567058 -0.4045926501146903 -0.5096003598763482
Ni 7.6874522950632 3.8659197945857455 8.170888375093675 0.33501808434966174 -0.9591587760684512 -0.2465893619926076
Ni 3.1275037716244345 8.442117722879484 12.35414475136357 0.00020157448784481412 -0.5661880264634055 0.40213107594807523
Ni 9.083652550302354 4.897033198651283 10.056033765272097 0.07465300872920047 -1.131974189502702 0.6002474300409598
Ni 8.540129862519743 2.4172618281277014 5.947846744215269 0.4311274631804252 -0.5842505403920712 0.42380496137708307
Ni 3.6371705167749164 2.6010809586613655 11.415259386423939 0.5836332185230464 0.22327357008480256 0.4932666557133311
Ni 0.8673816502907863 3.4660451028400976 12.481625675276174 0.7584013848082939 0.12967873014577666 -0.24176134447634492
Ni 3.0635466207782236 8.09669120397193 8.034521849561878 0.9327396626449742 0.8925242667683533 -0.598274365474989
Ni 5.446581556608399 8.031974058689295 3.374884674946313 1.2850604999391417 -0.6829546765332044 1.0168335050721002
Ni 3.1204466804290685 8.320437185076301 3.650808797887603 -0.7133307177219005 0.07853974537811635 0.002022686856983613
Ni 3.545672615161148 4.517596928713753 9.237466376681772 -0.38513068473533674 -0.42853450564226836 0.9161933282505189
Ni 7.030545675408371 5.9725881821419975 11.324538669596942 1.7762149944054764 -0.6071644688757672 1.1639026627801827
Ni 0.5342950886670288 0.007409945755134641 0.1944138148795277 0.05809921813557736 0.9159783840262353 0.9197831024843062
Ni 4.5193702490654095 0.316629967809332 1.3591333361131337 -0.28028855401726566 -0.7731343201430942 1.3300877153821093
Ni 5.92060999122228 5.428368832792665 0.2938400870247061 -0.04220337284092732 0.876170250890362 1.207927662210881
Ni 7.872990460631633 8.952200655459436 11.334603167347872 -0.5491758081761252 -0.020337168895455296 0.8139156158255144
Ni 0.23621079461700695 4.797211548448107 5.996696291371707 -0.4324644368242939 -0.4950530581897926 -1.3896036113595553
Ni 8.0663728544903 8.834482945789036 2.398339776171305 -0.9879340484289307 0.8051466113836326 0.13250282985813308
P 8.51451624050169 1.6158838851297825 3.5725347994676127 -1.153414361654349 0.01949873215455997 0.30998608108169834
P 1.8225390389674265 3.396207042664415 1.3140258568008023 -1.318990062807051 -0.829916619239461 0.3924246472935886
P 4.6134467032313315 0.9607324907209795 8.136075201373764 -0.40495594699137993 0.062035834185822196 0.15022981482425093
P 8.373537272545025 1.788981665578178 12.4563594792862 0.6189123534403148 -0.686734712400927 0.6070973630832577
P 6.442273791404885 7.75587893699981 1.4550582053190728 -1.4167575460665278 0.34825823718901955 -0.7302760873269875
P 1.8446331629406119 3.1647254039035846 5.86888422702609 1.094003880906516 0.31995399092768767 2.5347783587129316
P 6.9047304059689285 3.847435644185575 5.951938047598018 0.2114526661904745 1.8880682663340578 1.6031568688328002
P 2.2578801377461977 8.561563515137466 10.086768302183197 0.5394752930589096 -0.08391103699235872 1.2584871203259875
