# total energy = -340886.4887490273 ev
CRYSTAL
PRIMVEC
9.08295666433632 0.00000000000000 0.00000000000000
0.00000000000000 9.08295666433632 0.00000000000000
0.00000000000000 0.00000000000000 13.29382519758878
PRIMCOORD
 96 1
Ni 6.523506417232523 2.152115679308777 11.656942660807148 -0.4817841089950282 1.0321788771799192 -0.5504189365546068
Ni 4.955379416919094 0.43001712771258216 5.676436265416194 -1.348121690065685 -0.7533545664130058 2.788337724265469
Ni 3.0775871855147807 1.6715546243544899 5.0376019710483035 -0.5260849877949326 0.7835210626940571 -1.9505517295802601
Ni 3.6705952401729705 4.474155306150721 4.866191143559439 -0.2216766579113279 -0.030730082094005136 -0.03145513318548777
Ni 4.031588257639198 2.9723974679403953 2.694100226629594 -0.5261806328325326 0.33202326338739596 -0.10458039241625214
Ni 5.52033930234581 4.999504418903065 2.8811037652971083 -1.3225109314761159 -1.2728526450190403 0.3545818654142022
Ni 5.3268360001089805 3.5414900985097013 0.48723066980748375 0.8042793782873311 -0.8700283996586823 0.3715922839292697
Ni 5.8844568567989635 8.4120165371385 12.185491699084183 -1.2239626041865566 -0.5371628428756491 0.6238110762935128
Ni 2.602221581596894 5.678128420185566 11.452775967806799 -0.7283469886250746 -0.3138388791688853 -0.5376873479205514
Ni 0.39481068057588614 -0.05462217464615174 0.19579584042142195 0.12171242411084847 1.1434950456581081 -0.4116696115661297
Ni 8.425868045583448 0.46176115188585914 6.756200859560013 -0.859166517243514 -0.8547383062688312 -0.2416397312968161
Ni 8.665512766115578 2.580113665823122 1.2079696148320764 0.6961511206188205 0.5169843110452451 1.0434608778516417
Ni 0.9820401583995344 0.08190192576979477 4.6340680191868255 -0.19345880071621518 1.9316204398933958 0.5664086271146439
Ni 2.040840380974972 7.074560296476147 0.3201124474930999 -0.009152613033545526 -0.5149014603742873 0.3569123133195918
Ni 7.784030017548184 4.241922278006183 3.8441223964930953 0.375669796432753 0.4509707231585975 -0.32541398560099444
Ni 7.831542962253444 4.154071924117964 12.625797091462728 -0.3949841804906488 0.20997222499020612 0.2061165986895418
Ni 8.523891310591889 7.334578088117795 9.243263270684702 -0.45263371268331726 -0.755758290758492 0.6562098043391924
Ni 7.017546579421106 1.0260561649072168 0.36887066551495123 -0.6778762335690326 -0.19056939498356212 0.37622155517116496
Ni 2.065709515481376 6.562254309052947 9.245044438426378 -1.0384611106442052 1.0137458672857123 -1.0366358845100083
Ni 0.1957676832567142 5.118118745973604 1.3491505469724323 0.02039527582690036 0.5889363759035148 0.6535659389584421
Ni 6.502116055010981 2.43502252097093 7.209135194457808 1.0179262239156468 -1.1269476828223883 -1.5129214322843105
Ni 3.4876554161797313 4.95912159493832 0.26428133135578585 -0.46624050483347446 -0.5600513174380484 0.5832802060590019
Ni 6.055425344313225 6.027804074030545 5.132666008875523 -0.35016779550690663 1.5210373765232257 -0.9420118319755195
Ni 5.412261204649789 3.4641487251269285 9.455844414454493 -1.0629976623329886 -1.3340968365415025 0.09240801871977634
P 0.3292934997791019 6.155492274502069 12.523593849938637 -1.2710479877101335 -1.6451234430725732 1.1933006563263253
P 3.996028483500202 6.935073335696435 12.456659727950106 1.470915263055854 -1.1828131265314403 0.5003999243240027
P 2.259140154067346 9.071212094772646 1.3062063293149162 0.35003461236315203 -0.5009848502931953 0.2887945346057478
P 6.724167089078938 8.286898813316105 6.072100743889671 -0.3377174855586958 -0.552898508443351 -1.0506638233579841
P 4.903315911078805 1.5599614225481777 13.087185842137936 -0.7528678565845743 -0.3369325277635552 -1.7333333645506017
P 4.264811328026687 6.17274989158102 8.371067844992693 -0.47231062228695436 0.2678708970792032 -1.7414025147119816
P 4.902552942744789 1.292304864610003 3.786214008236857 0.4208569344923527 0.7561537264246978 -0.426892084942839
P 0.30426723012771556 5.9691100100493975 3.403538157354381 -0.15698101750515547 0.828886892423366 1.4303926203514592
Ni 0.6027813156986903 7.859327725750555 2.256972052384848 -0.21766959363446384 -1.5541449577104718 0.8466748125344064
Ni 1.9356143315751564 6.937680144170992 5.10520096544219 0.33528522196811933 -0.6052294566365835 -1.0399369238587832
Ni 6.211924682350239 5.8168887444566915 9.32420876115007 -0.48026047326165033 1.9119350456493267 -0.21333394237358744
Ni 8.905066657084134 2.879469741448422 10.308855728024161 -0.2543378955897749 -1.1792562624181175 0.38520036163100757
Ni 2.5166964645361554 5.456068303161253 6.8374660700891585 -0.33085855365533345 -0.7329369219886023 1.204564916386235
Ni 0.3554287984017197 0.26940048555878415 9.084268844536325 0.6825949792009406 1.3131989100465706 0.7746363586099175
Ni 1.4060779759420778 1.0008146291901616 11.414981786403898 -0.5871954819530081 1.0284464067206804 -0.9633838698933924
Ni 4.206525997081618 6.777493125852896 1.7015692536373288 0.14189969769200078 1.9437740445367946 0.2348944421531826
Ni 5.649244618969217 8.224925802089954 7.946809311610665 2.3306211977426052 -0.655785058096948 1.379833933567301
Ni 6.897115661079099 1.105677360335683 4.8628676898282865 2.4695463861873144 0.5912511400796204 -1.1848504686764434
Ni 0.8926202696527671 7.723128795172202 7.172363753940741 0.5255304008430434 -0.34608822612089435 0.003649938047761456
Ni 5.356619014004708 4.430084801904894 7.329350846734145 -1.4849285466158102 1.8586067665398314 -0.44106477689879525
Ni 0.9540192380371321 7.63754009741696 11.310266199151364 0.24642404005933688 1.3407932747250715 -1.259441770929773
Ni 4.8587185953642535 0.5138037669265255 10.472595998869249 -0.37723508403734385 1.8053571631870715 -1.0919698811956227
Ni 8.467740474390798 7.716298411991479 4.845719068225624 -1.3082675341832244 -1.5166667582593556 -0.6026645241228846
Ni 7.764656071637972 6.645790258671427 7.124400294600157 -1.1447291751755253 -0.6025331407513429 -0.2893990009589661
Ni 2.5189127058873466 5.465214840213097 2.767960102840598 -0.9571299185638805 0.3671309057238064 -0.7685382161319796
Ni 3.1093775327654805 4.460494539789278 9.045517319533358 1.4330218304441902 -0.7453324674394777 0.9491754396034944
Ni 1.136768319946867 3.9419122295231537 3.9301861328658245 0.5183446817278815 -0.829196710354301 -0.8362975830651405
Ni 1.8335582339440541 1.56689171824883 2.802498044389393 -0.5827258762174287 0.8897454184716354 -0.7439085905087576
Ni 1.2397327132137037 3.406008721483578 8.142440750522018 -0.3612597916550101 0.32937862667569723 -0.5212286881438959
Ni 5.8221205273185195 3.4631132681021914 5.062102337526599 -0.8751474660528026 -1.3723206559093912 -1.0793629910648894
Ni 4.1898406062531794 7.23977927261621 6.266735782488623 -0.11060808666757078 -1.0347942033155793 -0.1961098651858171
Ni 7.65275404931551 7.5381634719112744 0.14702672285194185 1.6336390965820573 0.09326188207963937 0.8235683084239299
P 0.4650664397042961 5.46055528360178 8.033830391583457 0.5040007543013836 2.054627671556268 0.08217040015216816
P 8.62646513673536 2.189646454977317 7.976069147220209 -0.6149384563942312 -1.215274075273623 0.20425537711108693
P 1.7999331295091716 3.728462755125601 10.6735854737358 1.1787525833088215 -1.2375459992979463 -0.89008249009608
P 4.063124282111892 6.418589188348857 3.9034395512803575 0.39356904531067705 0.8883367110495668 1.1774531477711077
P 6.982213879191042 4.235691369945046 10.592094097593357 0.9303724479643783 0.21885950017750697 0.9134628166932333
P 6.63986817112644 8.189892839419684 10.06103271358788 -0.07702639405738347 -0.30890467509206154 0.1287490192426557
P 2.768439682936265 8.874720499894252 5.92824851428462 -0.4088267428006959 -1.521519715476283 -0.033528727885064835
P 7.149521935293295 4.409148587501219 1.5829885335053129 -0.21020208161282508 -0.38040808244868674 -0.6215999275748069
Ni 2.2708934995937473 1.841478571887657 0.12640659532950246 0.6080784960496044 0.9749834018055339 1.336387946568524
Ni 1.6119068499558207 1.0452302857775673 7.154497578785849 -0.14946825406787806 1.256497086479152 -0.0649424663096559
Ni 7.113816833852582 1.4719112436200976 9.402868071500292 -0.6989646788082156 -1.0801227520490493 -0.3008566079766044
Ni 2.7842531099543986 1.8738411453888688 9.365951303681507 0.2958457850255744 0.544118705368192 0.2688129492774983
Ni 6.528756366007067 2.335664061377958 2.635061918602502 0.006195330177434491 0.6485713139573281 -0.2836055342056406
Ni 4.1030892900842 7.371055240848883 10.129336545395097 0.9436876770160456 0.09508659399320399 1.0527063077093097
Ni 7.367803542472955 6.424629354326489 11.421536047711355 -0.06448995215326958 -0.1825274985156921 -0.2658317551619873
Ni 7.626041074668565 4.185144717816434 8.39451822171608 1.7966429232425252 0.08487931444289898 -0.26124465001193714
Ni 3.223450381657347 8.914276774830478 12.461485502662763 1.113749181854243 0.7602224971774326 0.09077973908773397
Ni 0.15754932779192335 5.180246167457827 10.277482288470262 -0.08633970103850937 0.9995842310733494 0.4668390576494218
Ni 9.108751953397542 2.462543878733678 5.5115796992347885 -0.23427583473257715 0.252906562459887 1.5322718117864642
Ni 3.805359063646864 3.1036280213912826 11.277776464261148 -1.3778750100687174 -2.1077140098582863 0.8354285501966258
Ni 1.1703843414253923 3.9928676146878463 12.785189351099556 0.5361621695252765 -0.13622990100073312 -0.48664889328649735
Ni 3.5752877791153734 8.949927378533049 8.063462628403652 -1.720177543894934 0.16517306639764456 0.09476803431152066
Ni 5.621650597555609 8.157285026096824 3.6978504673144483 -0.08003844141082989 -0.1479281632742678 -0.030757850008147028
Ni 2.690780406080985 8.307816861807066 3.3731220614005473 2.0718021264530253 0.1897049901007378 -1.1234126730859362
Ni 3.517792665373394 2.725786119882184 7.135553256711338 1.7257049014710666 0.20559543607874917 0.9935028007659599
Ni 5.090488392734567 4.770586669828957 11.67390599010012 1.6800400524441 2.2657206404144787 -0.26313029707042423
Ni 7.980930345462658 0.28261527876308207 2.3890464124813326 -0.04989791327170761 -0.07121081581687091 0.8825553284810994
Ni 4.525455843656992 0.5260003607231654 1.734697520359465 -1.0853009538158793 0.6623737670580593 -0.2531726716370801
Ni 5.87957930923507 5.923740643044471 0.3896152295394862 0.25443765439243277 0.22964064995341094 -0.8732543627951477
Ni 8.06774524232614 0.20534838562243926 11.47281024464419 0.17584802961298746 -0.6189545195321599 -0.8128961734220645
Ni 0.19649068658275867 5.314110778252344 5.779596850540349 -0.22338232774852496 -0.5703809814988305 -0.23964095569923247
Ni 7.166143745427232 6.5519360706310055 2.441942825419589 1.89760165974579 0.5014296511400977 0.5911269557969303
P 8.654213568407043 2.0963554102310504 3.5181305513498873 -0.29256608583303806 -0.797883244953 -0.7612486244491019
P 2.1651769705506356 3.6606312370489653 1.5753179768615369 -0.31654830768024833 -0.7018674542773075 0.03164308082657776
P 5.038388555068849 1.5098144204992887 8.388974893451193 -0.896082930653889 -0.3582138057398347 0.5868226719946216
P 8.842412424131183 2.040268154724459 12.424647756564289 -0.6607753122226877 -0.42846405741564925 0.35202336065840667
P 6.129524102276426 8.26489989301862 1.475095728118982 0.9995616053655302 -1.082888744829961 0.24195006344838332
P 1.993935994345654 3.335643058583244 5.874700853375542 -0.6733328371727242 1.6054361517852804 -0.06455602950451463
P 7.167951253742344 4.630554731667805 6.152594811424077 1.332922099507111 -0.7270578375000059 0.7390378926800175
P 2.4727622046356883 8.926593263651036 9.981588635808382 -0.1722274021412647 -1.2708597829587274 0.16843939585374218
