# total energy = -340861.2633885574 ev
CRYSTAL
PRIMVEC
9.34220413827794 0.00000000000000 0.00000000000000
0.00000000000000 9.34220413827794 0.00000000000000
0.00000000000000 0.00000000000000 13.67326008083799
PRIMCOORD
 96 1
Ni 0.38395243854660427 4.377411121585659 3.4179322071003133 0.7558097128217176 0.7798451565043666 -2.8266942125564802
Ni 1.363345195027097 5.1398377302673675 7.744739412409414 1.144998883897144 -0.5986446043302142 0.9306197880884941
Ni 5.400681407480022 3.9171207316903294 5.937572264655802 -0.34080229513160665 0.6508791361548985 0.922739614009469
Ni 2.6735145650230545 6.229568455246677 1.6295111258448534 1.3138725390748276 -2.6241313926564676 -1.2336260954182496
Ni 2.4055521283807217 0.6199533269463982 7.21332869208593 -0.5100703575342312 -0.09102450810868841 0.5261412949541648
Ni 1.3395412592963623 2.0497356055485025 5.302681687772249 -1.2288369015597222 -1.0283417628220162 0.37705587814700225
Ni 7.003943742813633 4.989353508622676 3.6159617074398356 -0.20941660959705222 -2.3640149427117025 -1.5272689592552342
Ni 4.129198104148496 8.132500667517014 10.704754149424291 3.0318535895390752 1.9257840357172766 0.46420290557815536
Ni 7.37787479915523 -0.36933842886701695 3.315820049202324 -2.0418163787242127 2.0123219688095215 -0.7351822663793532
Ni 8.978399868723885 8.029577606313913 2.2788951979767043 0.49584932883884275 -1.1425146840227096 -0.3018431402595898
Ni 2.391622902252572 5.779984231107793 4.2664808573547655 0.4440791382450869 0.5129669623557358 -2.297696679100443
Ni 0.3811329613866608 1.1497263589128972 8.514693969054946 -0.23194975770256182 -1.239093546290724 1.48251248097515
Ni 5.767222780476638 9.068402661828243 6.120301103323504 -0.2578320247859624 0.03422369706956042 -1.2650776290593115
Ni 0.9389849216232921 1.212216361308064 13.82339203618771 -0.008533234281991755 0.38918094354531035 -0.7172583349110808
Ni 1.9941494918915674 4.0381022731789535 11.407586838943377 -0.17281232811045721 1.1783463490093382 1.8114460496936284
Ni 4.575185579756638 4.424187536893268 0.8316280504132012 1.1606427610819883 -0.09929600408886126 0.47795007996091876
Ni 3.8734832969186406 8.967600280927682 1.9595151390915073 1.2731100124454848 0.6209977752144338 -0.9841712389523888
Ni 1.3227533187515699 8.121962661432137 0.7569268532010631 0.7851030624691963 1.334711844417682 -1.2318178385649174
Ni 3.38316706344459 8.908025046173012 5.291100157503256 1.0507013614641387 0.08593038141523264 -1.8247751627023672
Ni 6.776274231919596 6.9814570578435085 4.419088561963192 -0.5105460116190691 2.318867913861419 0.9167062633311953
Ni 6.796518787935493 7.147318547232623 6.804593254831911 1.2442491223497345 -1.2094698098870205 0.20566665563631675
Ni 8.308862794175104 2.6729820593964253 12.746842226798075 0.41522287613502684 -0.08664771919723141 -0.2795161946276154
Ni 4.105459563845593 1.6906306269167475 6.09589459543632 -1.5734302883026452 0.8853097512977851 -2.3486042645835874
Ni 4.542908265019712 3.1650826538298835 9.662892877617775 0.4819427460600796 0.530692404659957 -0.43437759468660675
P 6.467710576797761 8.227221273629228 11.29154171803565 -0.13493072257333535 -0.3901975577352828 -0.18146126203470683
P 5.989557892900404 5.017688413281748 8.401657972047873 0.003568691187864822 0.29484742566804706 0.3568596057047854
P 3.5612107868183505 7.670276441398662 0.2525655502695606 0.532226067695664 0.25261885601613915 -1.5724931212003563
P 2.941439632849484 1.8078846290189656 9.22019385780917 -0.6873255519073905 -1.3286502116046344 2.199346840974935
P 8.294905541435027 1.312654396253562 1.063016692710066 0.6260553922429992 -0.37583229015254627 0.14604714420147105
P 6.165340802911984 6.7303292727658475 2.339782078169597 -0.22123622793979963 -0.49999394713483564 -0.3563811234064701
P 0.7978391670729652 8.932183985654834 11.775111011798264 -1.9932253571893868 1.8935737695333197 0.38435755401473803
P 7.919031306666431 2.3841211124598796 10.581639782767954 0.1418403052089751 -0.5833951343703113 -0.5665451526925082
Ni 1.792899733841533 7.279940474875287 6.059961676283603 3.3900758799193427 -0.24062131733463074 -1.9533789146164098
Ni 1.3724351594957016 8.032361583098748 7.9978449420687845 0.8285107400308699 1.4206723077399017 2.967435371164006
Ni 5.778442767451761 7.437889117496768 8.773543085718735 -1.4265987005266656 0.04212392575324358 0.7639372270248586
Ni 8.09710305665212 2.8517731590882622 2.7582380786605976 -0.40414322128209756 -1.2426023307749308 -1.6597499347364963
Ni 0.682821688602591 4.973256891172104 5.437281359996623 -0.9305611669364168 -0.6689390789804027 3.1430188342616967
Ni 7.375361746285698 0.29342928468078777 12.956767155460183 2.611573867706431 1.2831892510583578 -0.42566721139680236
Ni 2.1515376022744905 7.828355874875807 2.9595083895593794 -1.138597865466807 2.045167554584632 2.390364122129193
Ni 8.274810460682746 6.856215471341848 12.598528199136998 -0.05738136613294634 -0.21027844337671528 -1.437222498789099
Ni 6.894864169190376 2.8313884700127274 8.64005046466551 -0.43844353722586427 -0.590604507634557 0.1980929570541169
Ni 8.062994669935906 4.650278215315369 7.655029030289506 0.4091424742689019 0.18181221761622238 -0.429951183484137
Ni 2.335831260108165 9.161180089513456 9.595852287665922 0.4561486678151112 0.834273610656576 1.701382265565302
Ni 3.008030862790095 3.149630648453653 4.316811981275226 1.267732035963023 3.0913756561641086 -0.1648128548447484
Ni 9.60855021131004 7.059922229037559 4.340302953172766 -1.4005554823853685 0.062028892207286725 -0.09315440996749763
Ni 3.7818923291383726 5.289761419673502 8.149604374556194 1.4456914554920586 -0.8806300864339285 -3.277949813945348
Ni 2.77407404862024 1.2041727236847664 3.3181724161634696 0.951766083148806 -1.417295677958185 0.43975145740401045
Ni 7.835642793977052 5.2972351828542665 0.9968206379976376 -0.2889107484686379 0.10502725014568363 0.4879231320132307
Ni 9.824261701114855 3.7587890587058346 0.9788247504787545 -1.7238516503124115 -0.8425183671638716 1.3578327467058615
Ni 4.832712774557828 0.49945664584412586 8.312549227864016 -0.6327302331600134 0.4257008928482153 1.207327823843353
Ni 4.36916195547489 5.266779597892651 3.204629137480501 1.521252320747509 -2.8077996896448223 -0.9151147504743595
Ni 3.5301012475784184 6.159193632695804 10.012135291512115 0.031301638326758995 -0.8439643555817787 1.627476419414771
Ni 8.08402397108578 8.864658535316627 5.432659771689718 1.3748704189144385 -1.0447968230542457 0.8433064102828057
Ni 1.332011442891742 1.8545022268589837 11.06492133664811 -0.38353300123091366 -2.077545456694706 0.20477782527346025
Ni 1.4014427028410437 6.266853191314717 13.135709598856431 -0.8293172950925654 -1.8372578685504102 0.3437788612614273
Ni 9.37723724086538 6.769510476241005 7.0940969454020015 -5.984657583943151 -1.9320636980784018 -1.3617649918807322
P 0.539377751874179 6.216433316456484 1.8751513003070381 -0.0545346407127706 -1.7752726850968652 0.5823553802518874
P 1.3272469188640046 5.648287181658747 10.118677522535503 -0.890114628885596 0.5427835314965361 -1.2119504102170287
P 9.109125328959433 4.756527101133911 12.89352884252654 -0.10014883900745977 0.6094512080274149 -0.39914062586118354
P 2.932611250092206 4.791924711998806 5.969431048654605 0.6112489233577861 -1.3938119930139479 1.6825450782541411
P 5.896444145872055 1.7183489461134074 6.867175745046439 2.2129909141209305 2.1661502996183084 1.183046325588169
P 0.31812633511162386 2.6726083712373874 7.141734711916194 0.6130034441550475 2.8616321620842458 -0.03617207904518287
P 8.530216975181395 1.4203606658923535 4.346251134444257 0.05997355234015478 -1.6718549455301466 0.13184102790441812
P 6.397008777107729 3.684789461012291 1.8517836455019807 -1.713110609745824 0.4777251084343063 0.05406052928982947
Ni 7.359816318869708 7.786885831426539 0.8328864452887624 -1.3978619947136055 0.7597884949638075 0.3778184673446396
Ni 3.7999414672199188 1.655419860131371 0.4800930596631628 -0.7883408526802036 0.5281225870502517 0.6873936861411646
Ni 4.3806995773851956 7.326128331332413 3.7077638090299607 0.694492759079791 2.4398683995069077 -0.8092452069330387
Ni 6.0013477543180604 1.3982383268772907 1.475700145364324 0.867790511467099 0.1811874395480299 0.29484408323393735
Ni 5.311332568653984 9.112152203047641 13.106010732416868 -3.021477388511074 -1.0720613151971536 0.2587859040587995
Ni 4.345787761127049 6.411068794091542 5.747117423299985 0.6463977033447771 0.0540085930059715 1.4977346972415433
Ni 2.9164959482336825 3.0437180819782452 7.658830373087322 -0.5400226809219474 1.7855673821546538 -2.289406671177509
Ni 8.14637384042131 0.1756932248534104 10.38079360792968 1.1641692861780082 -0.597312772892668 0.21577854725933804
Ni 5.578613024406072 6.526762648129776 13.483652512177715 -0.37142284823094096 0.01663118079877781 0.042352753934598024
Ni 3.5492994767490074 5.433977022450328 12.428515034300968 0.25622302842762973 1.6551795417569948 1.0200563828847724
Ni 2.7583044083088275 9.559129952277235 12.427516352695939 0.7246088617388811 -0.7452666471985487 0.40780370085282025
Ni 8.594837000083078 4.584798707647896 10.79219437597804 0.25586744486042384 -1.121096880468566 0.21874585741777813
Ni 5.887045888672244 0.9735230497223997 10.661601575038954 -0.35371308965600373 0.5814012438687342 0.45075166516925597
Ni 5.861513645205957 2.36046665199276 4.308909410931965 0.02132961471571165 -1.052899397556722 -0.9588127055829423
Ni 7.984641605189567 1.4407546971718643 6.715102414505438 -0.05306885480052151 -0.3159795796609719 0.1652183178132832
Ni 2.1129075888339144 7.454621004817705 11.343718861461756 -0.6176550839944459 -1.543094356323265 -0.22959385587587555
Ni 8.152651801493151 3.3591482570224085 5.003906793976419 -0.060143502259115765 0.772831701301011 2.250335159097344
Ni 8.547827029676071 6.625584481787434 9.594950764982242 1.2682709391856286 0.7383928028968509 -0.9738456886566648
Ni 6.53003241952136 6.069826109461814 10.568746607060739 -0.5089750675875234 0.39586555465433754 0.4667850644830348
Ni 0.6938679105837608 0.5706227530717624 2.5846020071226925 -0.9131573696376725 1.753366371942077 0.1571028877950004
Ni 1.2164203530972437 3.470161666868688 9.429312554268153 -1.0243074448516423 -0.39606301537712435 -2.1029081038292103
Ni 2.4662484276125047 3.9510703009389516 0.13415591753551684 0.932197416988259 -1.029031332689873 -0.6922481860199885
Ni 3.7868156706337013 2.3696874073170284 11.851366751752 -0.0318557110580161 0.2839148379159433 -0.4271404535082192
Ni 6.595297056497386 4.391919564360318 12.449571427842375 0.6113597379040374 -0.1940208438672723 1.4356857504295983
P 4.996023842261508 4.702323633665417 11.20246100046372 -0.9234029586250807 -1.0543759821022487 -1.414032948046513
P 5.690831578565249 2.0565273878390222 12.87367479063684 0.20537406409656242 -0.22201090132229506 0.20635519706290914
P 5.225916797701822 0.10105275196711595 3.6980563248785447 -0.47472848769982756 0.7701392420705123 0.22006354778793713
P 4.028264932392273 8.158873709341137 7.18170159474573 -0.11701424730423073 -0.9020558604078722 1.0649411592126046
P 8.537317050203121 8.65957847363645 7.696787747841629 -0.30266872148467877 0.4274037344719349 0.7776913433861574
P 2.378758687377681 2.841104362147721 2.0286465142931807 -0.19915353710814734 0.27996973722526625 -0.16744335048906
P 7.850879928661835 5.579201583256556 5.641887771935218 0.5679412617090863 -0.19032951105861415 -0.1500961174598641
P 1.3453427679654304 9.067038700047753 4.73978120050701 -0.6835066923819325 0.3008527513218625 -0.4625568853343001
