# total energy = -340893.3740878005 ev
CRYSTAL
PRIMVEC
9.09482435367056 0.00000000000000 0.00000000000000

0.00000000000000 9.09482435367056 0.00000000000000

0.00000000000000 0.00000000000000 13.31119476053595

PRIMCOORD
 96 1
Ni 6.503927071637631 2.2094238360998557 11.551081579878385 -0.6674475820365408 -0.8157472697176145 -0.4539750572025601
Ni 4.535379654861309 0.2874828460112228 6.207675905601118 1.0295992893782009 -0.6222596726459929 0.6366164555882972
Ni 2.9330353350856324 1.5713946329734119 5.0773420487738345 -0.7436820763202483 -0.08160552878763365 -1.08779338122043
Ni 3.2891795565049358 4.455236063882303 4.873055016748037 0.5121745483614277 0.5096427830785094 -0.23972554499323875
Ni 5.295261312814889 4.636559574248672 2.777287379893124 -1.4286558401660108 -0.9877846673352603 -0.24204185183124116
Ni 7.3977754902721875 6.012715615807386 2.54877446460691 -0.6469044677778665 0.9399130404649619 -0.6826564285664952
Ni 5.264338910485268 4.527167028595531 11.66826020454164 -0.11193888966385239 -0.8338730327840478 -0.8494356631089951
Ni 5.590261031039474 7.648437940450624 12.635305587420095 0.30170738601267394 0.5691725630130262 -0.5409788741876296
Ni 1.929412388180922 6.412887881249541 0.38765505887560886 0.9239727150856216 0.32681472260326294 0.4626137067141646
Ni 2.785671898336559 1.8045313568903258 0.39852428329447065 -0.39023483873112147 -1.7286436723844163 -0.13443347122194269
Ni 0.7518391049006138 -0.06807657821108228 4.541939751567297 -0.16355661384014414 0.35925381696857484 0.6580833672128215
Ni 8.646867742728801 2.2936328135027853 1.094515710622946 -0.6823093296397217 0.8675385433572931 -0.19478831816091613
Ni 6.6027605263776294 0.941177883847305 5.204450402514585 -0.19072494672481993 -0.6262471965388311 -1.2914900576145694
Ni 0.7387070882171609 7.350264128575146 2.4224646364322013 -0.11134496483359535 0.07403825796333702 -0.015915899899308073
Ni 7.702197446383091 3.8162246197406833 3.7083127114696777 0.26512598734421433 -0.15014805374372206 0.809883868958302
Ni 7.592804900729949 3.994055717608649 12.682560475074284 0.6504700736419378 -0.21121663892026848 0.5897794406301003
Ni 8.085580666325106 8.851919649471048 6.7061268415061805 0.6085459226043262 0.6123629823575711 0.7571204612133412
Ni 6.951938112448553 0.580416220174252 0.3447183937585085 -0.5890862712178178 -0.08817161204092556 0.05887440573870505
Ni 2.0717736716119686 6.546554512731435 9.351273701420618 -0.7673925325633106 0.27339619777280655 -1.3018996829836675
Ni 0.04074208403411869 4.711037089741986 1.3772428730523572 -0.10056767171243326 0.0024901134117053885 -0.7620533797385843
Ni 6.440627095104054 2.2367992569857846 7.1769031368086535 0.04076715461503302 -0.30940218355377036 0.3473570655309889
Ni 3.311334548291688 4.152187426227802 0.4412008364390336 0.19617542831642987 1.1642353635292528 -0.16489127349116764
Ni 6.126400918489817 5.800851685728409 4.608628459603231 0.28587504696610766 0.405191974261586 2.1174518059713403
Ni 5.3137510904431595 3.168754989079491 9.246314882572092 0.7714787868175423 -0.8307938796380917 0.30350150179861923
P 0.24800767099019713 5.614616970286158 12.567178987675833 -0.286027770493888 -0.5051757484460913 -0.6496573479326554
P 4.107559123806787 5.995026182709999 12.756556874366645 -1.4823096209357245 0.41079955025635057 0.5493426727712927
P 2.1997924172566 8.559148163179037 1.311118044117727 1.3329634942680075 -0.170568526381603 0.030188607768238333
P 6.38859560577236 7.85372631262245 5.9058041381999855 -0.7350930490996566 -0.4385211845413351 -0.9371028247096764
P 4.873779874237939 0.7263726876173279 12.712776209562431 0.6602194397192177 1.596933770741224 0.20449114727097686
P 4.1348981653958585 6.144981644360232 8.2914229132916 -0.4935636181284596 0.979726315807158 -0.5345400605408214
P 4.7361297097500525 1.1244749710682413 3.8347816990681416 0.08366421108887527 -0.1742084371270355 0.4322564345785459
P 0.17594483132585811 5.434985097223703 3.389017079838225 0.9150705274999853 0.7131823650694943 2.1931414834951717
Ni 1.0068334198524624 1.0268511279487849 2.417805357987065 0.7187704006802331 1.0002324061803096 1.3915044279266937
Ni 1.7872420960583817 6.662804555842381 4.6637631029569455 0.877451945816263 -0.3199354789849264 -0.31143361216150234
Ni 6.165490472964143 5.695651854038195 9.320871523036073 -0.5937533376761839 0.12636303550898237 -0.629938015126857
Ni 8.659373126023869 2.393812302226543 10.243244038854861 0.5381095230596346 -0.13720152088538307 -0.3576121676000938
Ni 2.1715802725429283 5.1457060234300975 6.8552383034692985 -0.3043592218132242 0.36220390073583425 1.3137812649126017
Ni 0.7571768572321593 0.07347071845275822 9.206222168986896 -0.90109169672239 -0.18724418726507108 -0.053167070941282625
Ni 1.4922059985369382 1.1460478941052594 11.45621346849595 -0.21923616679063535 0.1641338264998528 0.5758515176950986
Ni 4.112397570288951 7.241899298058253 1.6697824413268947 0.0694318695395772 -0.8802855586103163 -0.5404692815410628
Ni 5.703737152764968 7.86233911115367 8.075036127130705 -0.5399815432713668 0.2510484262052257 0.04852057330820676
Ni 5.162922525668325 2.944667615256099 4.9943472304035526 -0.16917113181344415 0.11329797479490811 -0.33309901295007793
Ni 0.8645548993217684 7.364706709427921 6.726492881369921 -0.029168136923523956 0.0321362184129124 0.9040613208736753
Ni 4.755046944116409 4.525766425666483 6.964509887960387 1.0096894378281513 0.5266987101195316 0.2804420488759945
Ni 8.16364154255897 7.551805433170558 9.042147902225926 0.15899239150822939 -0.8256491022123587 -0.3525252399954897
Ni 4.70298817031207 0.24719368422299093 10.519464764041153 -0.6017782648631894 -1.3832375599322113 -0.15443408271358566
Ni 8.401716756024408 7.111643225656831 4.704123204374051 -0.7600641172226975 0.17529292844046584 0.1235124534340647
Ni 7.47282597969102 6.259185352022895 7.069562383498324 -0.7330865601925891 -0.5183637078912751 -1.0183746243069751
Ni 2.3102399625186347 5.242438573776525 2.673407207196448 0.6117664864241529 0.29874136140581453 -0.8806953924542252
Ni 2.25484338822754 5.328721171100382 11.448625656653714 1.2537699173559762 0.07552255581834735 0.9244684237751174
Ni 1.2361048434781736 3.4810075888391614 3.8834208189677932 -0.9176478013088583 -1.07273365867383 -0.11965091359612944
Ni 3.498151332483672 2.8787756138213623 2.9740138845493305 0.06983604695653134 -0.4841685500668048 -1.0706328102807432
Ni 1.1069765292793619 3.1549035718006637 8.260035765444613 0.4440714249356029 -0.06153395484873919 -0.06700860481006524
Ni 3.6338915838864945 2.521667341035312 7.2500619027908515 -0.34785380266174937 0.3060965162193051 -0.2605710209836803
Ni 3.9782580079478977 6.788031190453132 6.036586800923432 0.4483857360402406 0.42241913677314996 -0.041822335352424744
Ni 0.9734190356880424 7.471188911332393 11.643461347355705 -0.362465381927337 0.055516030789433415 0.13474457470445828
P 0.22260855540609922 5.800187763560743 8.14532001917867 0.742831812504811 -0.4110368630781373 -0.3880154624822995
P 8.590570780840462 1.5176715063378026 8.07302617097928 -1.1985608762840003 0.6614042040559384 -0.030587385868553772
P 2.0470357497482716 3.2380120754736277 10.570379408959294 -0.785240359378009 -0.792508610904648 -0.39984767923053716
P 4.109077959450624 6.223142563660458 3.7394206482132764 -0.9137798337130199 0.49131081753854094 -0.1764812923216122
P 7.1645932922341995 4.025269154313137 10.343357135361853 -0.6390394632074929 0.2341897027766741 0.16944752540328237
P 6.388822976377724 7.7300094188313215 10.365786790839884 -1.3984163245551788 -0.3156841599077402 -0.5193615530281701
P 2.5710522365205595 8.553991397849362 5.8040803483245895 -0.7623469997196032 -0.71527729992531 -0.19990841299630088
P 6.8678746522330565 3.7725603686864155 1.6430809469152667 0.8138690788582951 0.7169413178912943 -2.0197575991519603
Ni 5.099640738783177 2.706073996810429 0.5017077924563089 1.4036840007120213 -0.08012200226357169 0.07752184563656327
Ni 1.3319915751726428 0.835606983329136 6.968144179716538 0.2749008073427911 1.0484819852153169 -0.26956268295932934
Ni 6.798408384881984 0.6903180759834113 9.410974856012482 0.5633628983097846 0.64338437043975 -0.9033884631763668
Ni 2.767727810161164 1.475189582431432 9.274042273155125 0.2599971507580813 0.967563455192379 0.9261208717768761
Ni 6.52078887573149 1.996504906411985 2.738618915779933 -0.5947869211470207 -1.3804759380266742 -0.3202807781394871
Ni 4.151496219587493 6.683058729368283 10.638106745920537 0.5983234735453695 1.0353253932287008 -0.2520560415341337
Ni 8.097895058311666 7.220853874825681 0.03797998592014636 0.5364161945176116 0.08229998375149697 0.8208779060759606
Ni 7.847159849539513 4.037237942979543 8.153625412651436 0.03914658829247452 -0.14461144019620903 0.01441437565311711
Ni 3.208726741502634 8.454866908734498 12.578480216244888 -0.5795415649521761 -0.3121519783847656 0.07975150629803039
Ni 0.3418453387891181 4.8886862911256594 10.117959197369137 -0.8244085449370382 -0.4556347042931701 0.250011243189963
Ni 8.741799517880738 2.601338001155159 5.920007525175917 -0.5637331371650097 -1.507663269209165 0.21244228379725347
Ni 3.939468582672653 2.3050922920131742 11.435021618593524 -0.34793144997722014 1.1489216159903182 0.19000040985396954
Ni 1.0525258167065847 3.5967483217940903 12.529734686901927 -0.43834557819541925 -1.4807638737151596 0.4270643488546451
Ni 3.1318572872408814 8.540376446000115 8.151536331529345 0.5264505986644675 -1.1497549105248908 -0.43252845729300987
Ni 5.568633539057169 7.984418936586172 3.6528051803231647 -0.12715853482708422 0.529030957797134 0.15939399782202227
Ni 2.971724717294517 8.801998159357138 3.4091566585790227 0.3524362798261092 -0.48722764860810286 0.19940961898301143
Ni 3.4421544997944142 4.490605835252861 9.47289787615997 -0.05827173915769964 -0.6009444561079844 -0.3182385508984777
Ni 7.4220313864525105 6.07519705816165 11.406030047444661 0.135433887461999 -0.3957028038242282 -0.3922642104563244
Ni 0.39555391370598414 9.221787960630174 0.4185601810392222 -0.4436297094124941 -0.7964683668833444 -1.5844099272426004
Ni 4.693938820218548 0.5587305213169731 1.765357220550803 -0.08220382449326488 -0.4557288066688732 -0.8517326866732878
Ni 6.004784929092259 5.5295803638797 0.4590767134328189 0.04868718079305809 0.1073399574392603 0.8834089347306464
Ni 8.093847861536172 -0.5117584826958572 11.195553078058408 0.5734300527377996 1.8243784414845807 1.1792246378492337
Ni 9.043593069793625 4.869468927560221 5.58960984162571 0.12084441968359833 1.032738606338131 0.5077489084899063
Ni 7.870151565154007 8.633698437266068 2.7838229205737317 0.21490334374323636 1.2485523777107788 0.12727243469712918
P 8.248559916250638 1.4589644160325956 3.954808822675409 1.6266696072427598 0.3851350556107109 -0.4225703176390336
P 1.656494903149372 3.2160116956985236 1.5565309617595005 0.19674672743886762 -0.4553868499484221 0.7262176009868976
P 4.8317345018938695 1.1051484696122282 8.37077161663425 0.2706425462870694 -0.49064130227534214 0.16756342100669208
P 8.47644892659573 1.5222734873903874 12.29220971030147 0.4324173856364424 0.040260133071627444 0.2588337265775994
P 6.532439345550385 7.740523035623393 1.379040010317161 -1.5876842271184979 -0.4034716491363696 0.8689099697835229
P 1.8352536730872258 3.1191609126373074 6.028520601327508 -0.8493683002061695 0.6571541705303328 0.7631954637628277
P 6.712180356503414 4.1314603218427415 5.957651002600124 1.6984985162596036 0.16652109578510677 0.6747919382167541
P 2.361034555757145 8.448345919772635 10.379430846126619 2.0571666359280374 0.5406487445417205 0.22459254600654222
