# total energy = -340852.9207396314 ev
CRYSTAL
PRIMVEC
9.44969537790412 0.00000000000000 0.00000000000000
0.00000000000000 9.44969537790412 0.00000000000000
0.00000000000000 0.00000000000000 13.83058437540536
PRIMCOORD
 96 1
Ni 2.6742826447008943 8.222491644870084 0.3457586780306108 -1.1956814978536763 -0.9634638312017083 1.7591557249303447
Ni 5.217176727158691 1.2944286999871846 11.672487485011498 0.9141508438991934 1.9049884391281642 -0.9980513393685908
Ni 6.685678262666596 7.587065789654847 9.150411081108187 -0.063159149156988 1.5021824486002515 1.019782046177463
Ni 7.186653854389687 1.1479489744887479 9.721974006134175 -0.9462104434378993 0.34236089786797813 -0.37905156842079235
Ni 7.379919020888237 9.041194338743612 5.2379745613532265 -1.912443352744313 0.3482242986272906 -0.9357123721200531
Ni 5.3412228762212015 1.923003526172915 1.2929715569853228 -1.1404025227757133 -1.100320052932531 0.04764922644684697
Ni 0.03813896988011678 9.080316076925891 6.007424498806498 1.54485530487843 0.3797185125808299 1.1750828477667181
Ni 1.406662730033306 2.2276333507579804 7.9991537683253275 3.5573343680911056 -1.4703678751928162 2.1195765656238272
Ni 4.6488153588709045 2.02941654396776 9.282534829638864 0.5152680996850869 -0.7030622459163569 0.5532528064589762
Ni 6.4084336548091265 1.85203631512245 4.086204130120297 2.3316943762021265 -0.33375207315304456 -0.15981874406426672
Ni 8.231327109894341 4.83547518841549 7.736331285302109 -0.9860314320895792 -0.531056215757279 -0.23001757367685546
Ni 1.0942369068974238 9.407540122765505 12.292996996332837 0.3983271288209527 -0.5616726550915553 -0.819353499011634
Ni 8.571582285432836 5.911682076846298 4.4341683670136485 -0.7949768699394825 0.21733792132665794 -0.32309073678445643
Ni 5.87344861001405 6.274550373029768 13.180131548031152 0.20522956809889817 0.18473119103523025 -0.9640078766306366
Ni 1.1854831638752257 5.610936076993821 13.170713036812245 1.3148806686243677 0.18452164612758543 1.2871497783680026
Ni 3.4037802157626524 3.9148953304494105 9.97138075686334 -0.13924734767081823 -0.9625364342914325 -0.2366163099402957
Ni 5.798824366916111 8.418950808350665 11.779163204333267 0.31975395910173965 -0.7805380688063331 0.9288873787784196
Ni 8.271157575217606 1.7876838907211627 7.276367370803921 0.4105421828299059 1.1588162493962106 0.10242015154013974
Ni 4.972165029673143 2.1947578611115666 6.988995524586561 0.17404825740008736 1.482078478761525 -0.029190248410711016
Ni 7.303414288442888 3.0517885187694733 1.7911575986815025 -0.8534650959833625 0.16920738436801827 -1.7637037493123433
Ni 2.491799580440504 4.580323967966275 6.939951606430514 0.3450980942934831 -0.294593400675712 -0.006378649832834177
Ni 6.789804454219868 0.21983392955973358 7.4462341469852875 -2.39224976918768 -1.2559820945159466 -0.40504130761633467
Ni 4.684743100071153 9.519433963783955 6.781356426699348 -2.334902855837095 -2.2025918302747938 -1.2630017203668893
Ni 7.814094717149843 3.840790820588192 5.626212454275336 -0.3519634539547487 -0.8241828020794773 -0.4393876463066885
P 7.529403749464443 4.1644239822468245 13.589516913870684 -0.5393958459712259 -0.7461691044081601 0.06678723282787853
P 5.545090600748862 8.545992510795733 0.6900290290651565 -0.24158033881379037 0.5112124415584745 -1.201649285401337
P 0.5914932771999607 6.656346408725099 5.634911843688527 1.5123421627420728 1.6149057818386123 0.7938463558794651
P 8.425593944085483 9.058903067572981 8.420239746777733 1.0036298618976327 -1.5043100364662156 -0.03759647019653525
P 6.947784458792661 4.400420670499064 3.712405371483821 -1.4137511551400364 -0.3362457861091757 -1.1838359113689998
P 6.541060127125142 2.9385717204211885 8.568032979910793 0.2807996893257293 0.38858804715631784 -0.5351401560186655
P 3.3761115081786626 6.514629329614071 7.488334429098741 -1.5549581976403863 -0.7791597004015678 0.24172020682576437
P 4.460256140588483 8.670482795533259 4.627077280002664 0.6688418912809061 -0.2380952084786674 1.2245434163906912
Ni 3.1948002061246985 8.086765672524168 2.8313280744171103 -0.2992815501800007 -0.7737956078761771 0.13626281112119756
Ni 9.430729674818481 7.5856199862872415 2.382442982586775 -0.063625033049813 -0.8408348088138615 -1.3407318253595166
Ni 7.948072495881334 8.754329941159193 12.89245542162793 0.17122801434247284 -0.04333748644537052 1.3594129467087879
Ni 4.5542617085685135 5.0572028368959305 3.3315798194868766 -0.12638823231996296 -0.07192686804728902 -0.2869780502222993
Ni 3.3098785944299665 3.548521197341876 1.5120287215985386 1.9878504660307184 -1.5638490723721132 -0.7579023336846883
Ni 3.3339469681377607 7.584911259146257 11.953469447325752 -0.7963925193400865 -1.300003237291903 -1.87263650516002
Ni 7.6556422278163945 0.4845680859245651 1.7196668745162311 -1.68666604240105 -0.3648174270992814 0.06280510825167894
Ni 7.083075745158775 3.1613199359846456 11.042117216735276 -0.8232276372550597 0.4088938485932055 0.7802544761276433
Ni 5.362541388621979 7.055803924773735 7.404023303437841 1.0635782174268071 0.967219955810031 -1.237095799134405
Ni 5.640683717524695 6.629792765176257 1.6347056098246697 0.2410764025941784 0.15237668596392467 1.1744794098547644
Ni 2.6557612420831966 0.7473584399840594 10.026205053581245 1.276971295173104 -1.5517780001401922 -1.0968927724185367
Ni 6.383269116456612 4.882043286425701 9.790753612742805 0.91943883177101 -0.3188617863047734 -1.5327842326465086
Ni 5.3874602348989535 3.671017596389437 5.245636374232017 0.38736908714755225 1.4462606977319674 -0.15554582772052566
Ni 4.982644741664484 4.6656641654358815 7.675600929076007 0.1639952440394595 -0.7223735446504591 -0.28630313564246174
Ni 9.271918097066933 2.9706439859744873 10.095288940375738 -0.20430859894652556 -0.6136670458809753 -3.099581074793036
Ni 9.37972966975332 6.443586521001901 11.605671525068153 -0.7294736460303501 1.3707437983405746 0.11765136666759737
Ni 2.4177517687505645 3.647157115976331 13.100785292235221 0.04046042200789161 0.6695900823008404 0.28153965281554744
Ni 8.393899666340706 6.048249072066181 0.10597171702839286 -0.3061834195061565 1.277715629538296 -0.2651995208946271
Ni 2.0534660182851283 5.34938741288533 4.52116226114555 -0.655094974008459 -0.0008384367408953302 1.7235816844804768
Ni 0.8111278181906977 6.482292472594804 7.798721008007632 0.7550388960939642 -0.3434546451527892 0.18609696103450532
Ni 6.153613173692371 6.999937326673822 4.30153338997194 -0.8674878926250156 -0.7963380119530672 0.5602076405102545
Ni 2.206929068546054 5.807650382245156 10.039012225503576 -2.154315511766909 1.4038590928373047 0.35863700932018233
Ni 0.30754883543639566 0.9306343336728298 9.396166469607005 0.4900041829119754 -0.40921060850267593 0.16756239256542754
Ni 4.47631117275556 6.062045627077324 9.556463539446051 0.2876663345385755 0.016351701885146033 0.9467218358566791
P 3.5395250874989945 5.517979425182446 11.957272949649031 -0.5193186156053766 -1.4674283329485178 -0.13309649757807399
P 4.071278336531188 2.3073226304901473 13.260334891182914 1.5045131536159573 0.003662793563567885 -0.313404362734628
P 2.1743748685368858 0.4802892639320683 2.399993901506086 -1.1921333754911017 -0.8511256492169083 2.1434130059217926
P 0.5863346885831234 4.510008785885514 8.963629350495351 1.3376179623208835 1.022383488356052 -1.2030837038550184
P 0.5679399118812811 7.669193090751996 -0.06199756035417993 -0.47851160889134364 0.20976447985477426 0.17314554308015986
P 2.1792887100477034 0.6336719917836826 6.56510204168634 -0.4294922415698474 3.5558994354167925 2.825080331102141
P 1.0912413535148677 7.900370434445549 10.324572565148584 0.6559218407851284 0.18220508217926684 0.3531574742628499
P 6.4489917466638005 5.587066146885502 6.1453437454113775 0.21260452040673064 0.19412445932467212 0.4011676835935414
Ni 8.347643408272528 5.207103352061514 2.298255647933167 -0.23833817772740887 1.0128650073426557 -1.5382000043454411
Ni 8.486421632172279 6.226602619518442 9.554264595369961 0.3158520529441721 0.12610823918569894 0.23722283317604306
Ni 3.4887046266428823 8.051839599016509 9.02712563251033 2.1523126224042675 0.23627126789605116 0.7281490136816556
Ni 1.62004629764057 3.1896501222335525 3.162349007793353 0.40834080430321285 -0.6482167588313869 -1.0134185658532806
Ni 8.916694604310871 3.1829313889370305 3.2340051016248537 -0.07704259200729958 -1.131942050713186 2.1731925511770704
Ni 3.832579035447999 6.696819453322854 5.323350667664644 0.9680403948287973 -0.6666096595162777 0.1763051717550641
Ni 2.5240513902028527 1.389728876211411 0.6403822203545129 -0.6530067240208625 0.5809739265233285 -1.4612947092469544
Ni 3.5561849001597094 5.608082269039461 0.3536538983811651 -0.28529526320323767 1.3583971038497638 0.47348278821818457
Ni 9.05188194402964 9.482013170740034 3.6275130895673158 0.9248358344168652 1.4039151428862209 -0.09755228192487715
Ni 1.6808550863369407 8.781951400267118 8.299622892108061 -2.8565051252703255 0.2771656921175678 -1.458187273966224
Ni 5.003708112294509 3.86416936654543 11.669721559222621 -0.9900616362948951 0.2707780434236691 0.7393081156222687
Ni 8.11076789836547 7.155035174206617 6.591283367243786 -0.916861300851821 -0.2905855650678995 0.8996361952227862
Ni 5.366009426765191 4.055865883638603 0.26970375107740663 0.6084255949763779 0.07253570527588152 0.0831654170755858
Ni 4.393720836592968 2.2801453070572397 3.455972772363708 -2.628633137181563 0.6035111883938961 -0.48465860232934593
Ni 0.2519685631014395 3.64876356416256 11.978558388116562 -0.09243810062676339 1.36894299768641 3.8687458687654206
Ni 1.7169718214414516 1.5841941540020261 4.5266119003749505 -0.09242267400779566 -2.159294710149055 1.5477719643045926
Ni 0.22331614224576507 0.38955234552625323 0.608354368368715 0.6387445576748935 0.5157332122469634 1.1586573552208432
Ni 6.926059609497719 1.6554543056040978 13.429151806226102 1.095945320903603 0.3452672728814957 -0.8322308691949345
Ni 2.4252453770545617 8.609031427562396 5.3804986444354554 -0.2734553331455161 -3.2231554918132876 -2.379343088428341
Ni 2.067650010800008 2.153821781448369 11.46563743667458 -0.6308834097592619 0.4658887779210106 0.723665009768373
Ni 5.1444046243225205 0.06631701603609305 2.8347167351205322 1.277998707996354 -0.37090862759868376 -0.7131561398172492
Ni 0.3919771373179376 3.339040353857628 6.7095755968910336 -0.7693982501394298 2.745863100041026 -3.2420911523755263
Ni 3.8224867609603965 0.018496833410143854 12.82743773868364 0.5680088817222282 2.3160682396290952 0.9891355249361996
Ni 8.596718474699712 9.010104841492476 10.697389500452415 -0.3123337553782685 -1.8511801350584574 0.7349884052009923
P 7.367851760101094 8.088211475891773 2.9988853450883917 1.262435306340458 0.5936211829736938 -0.49231534754365536
P 2.3628206904767493 4.9311061039721755 2.5834559541905544 1.0396029375581322 3.972405292029301 -2.020372864138456
P 3.362485047681356 3.096268234137588 5.234917584951785 -1.4186102830045504 0.36934231155282843 0.6079386280376304
P 0.28123804905453015 2.889244311408748 0.81582148180305 0.3483338276219614 -0.8739303058162498 0.24239049341991156
P 8.420226517204435 1.7792264135054283 11.685875813189435 0.8403907792979075 -3.1276966020823296 1.2476676611129802
P 6.623187428222292 6.503223547491845 11.1092780905539 0.978086980431522 0.3137815435683886 0.1364857257652811
P 5.003708112294509 -0.1323467613377075 10.06267615225625 -0.7136029975466807 0.2958221308764905 -1.3527879851931026
P 8.450966375732685 1.7444042866451135 4.98277231254986 0.721723569771286 -0.5499227136444786 0.7385496401896893
