# total energy = -340871.7726497723 ev
CRYSTAL
PRIMVEC
9.21669253646381 0.00000000000000 0.00000000000000

0.00000000000000 9.21669253646381 0.00000000000000

0.00000000000000 0.00000000000000 13.48956116467312

PRIMCOORD
 96 1
Ni 4.254517502163357 5.279929861559137 11.910378934653437 0.6549890445582139 -0.24063365862980496 -1.067918496673374
Ni -0.024948665381178896 5.464549432378301 8.815779439664984 -0.2646477621562152 -0.649466829188404 -0.057099830336785534
Ni 6.456210263226342 4.651646355813006 10.7088632284631 0.616769596065699 -0.14236352470229674 1.3166369891938423
Ni 3.0582184440227245 3.100108312195711 12.455330635317226 1.3370335505723232 -0.49412206173509093 0.38064410971889284
Ni 8.349540137718675 6.422449517985934 1.5294198245542512 -0.10786806202858844 0.3495656431465335 -0.552852485696764
Ni 8.037407623847084 5.714920888686153 3.9264603867011654 -0.8424923990219425 -0.24754401259639305 -0.2956994892556972
Ni 4.958820289029575 7.663624652723766 8.923964978194032 -1.1173515544935209 0.48335325325436107 0.07700813922493834
Ni 4.070294249128888 1.0772286055714755 8.350038760791977 0.7035232447131755 -0.37327584227927973 0.4842343703077338
Ni 3.95990592105235 5.527038608662757 3.5852823875577715 1.4896876585673506 -0.33928405871486733 -0.26241810149474804
Ni 1.8621866699694447 0.9418722570591577 12.0805227679693 -1.7328654237752479 1.444150336257184 -1.2733997757717617
Ni 6.808352439966783 2.3257217942871624 10.540891769608923 0.8795859614401305 -0.3827141048740441 2.1064557119711527
Ni 5.668072439858147 7.262947372397197 2.923026152639885 0.9633725570394829 -1.716577742358818 1.2155923778449904
Ni 1.0887679047909649 7.540360604990977 8.598731857365108 1.0668568881780787 -0.06605909641260235 0.4959105210940814
Ni 0.6540026866342984 5.259100136130985 6.603936334967475 -0.1988339489851995 1.0924054260711444 -1.1151080098749828
Ni 0.7346164890490464 4.818726560486253 2.016068570743083 1.3540385697707518 -0.9533331705256097 -1.1000326035990993
Ni 6.3250382931849884 1.097136661732895 12.72294928861344 -0.9760226417033255 -0.03014129947007067 1.4582296971683855
Ni 7.550406799998361 4.597019018373778 6.20495584776096 1.0720595154249408 -1.7129709988441661 1.0261313854342586
Ni -0.05852323342970617 5.221809397598992 11.13878968296942 -0.7648558821843859 0.23681017111865668 0.7821948876834658
Ni 5.825548850772041 4.958589871712891 4.850184975898363 -0.7614558553639016 0.25030203495750436 0.145899048659381
Ni 2.6919655108086094 0.4504870525085874 1.7958513678349148 -0.1987133642469352 0.6059974451508595 0.6298025179902572
Ni 1.9769160602922917 4.242314601071819 10.476910410781626 1.162439705081411 -0.27008461690107033 -0.3306832044197337
Ni 8.343761271416263 1.7439088529696778 8.4363853460458 -0.8158359727766787 0.043564000633879815 -0.45063622263731423
Ni 0.1144980513368973 0.9477709403662449 2.442905589867318 0.23673998000235358 0.46944718469623026 -0.25504752006228976
Ni 2.0453868701178406 0.05260335172948406 4.692680914906465 0.3877357264583516 0.41310403001981105 -0.8059356829438313
P 5.399322898371651 3.133233105642073 12.59680871109918 -0.32915725469351054 0.7997961457049967 0.06439739243946328
P 7.724574641332779 3.8153881800287124 9.121209574628896 0.6926279379569105 0.7788645377586522 0.47118113666820144
P 8.802734132863653 7.362708853828311 6.918661504486382 -0.2898021499346557 -2.8607075933874473 -0.6845816706136661
P 3.6769350227801736 1.2762723004150012 3.660594748350275 -0.24150654815306147 0.7779939622282407 0.9378849542913396
P 2.6337436632291253 -0.15671050375324047 7.322687209258991 0.8735659804982956 -0.006710579250956185 0.20801638681541595
P 9.310334264823847 5.335395918031092 13.331490638666164 -1.4311467249086642 1.9854182024401419 0.45328034512838067
P 8.639506505725349 7.303307269587409 10.304487289369131 -0.4040863999022331 -0.37068237052049063 -0.9487699766349595
P 2.4651242708804357 6.1221696708845235 2.183110065307127 0.15380981886602543 -0.22694047741342852 -1.2961506963150322
Ni 7.812363638989039 3.8000239533522833 2.0754766066688526 -0.15490845124684288 -0.5249341620199411 0.25978272075443
Ni 6.368992700515457 6.20580194014782 0.36844189772260405 -1.1269158011431883 0.6148353551574637 -0.6080916086757269
Ni 3.7341706842442544 3.5835238425968465 4.751549774311196 0.33632857563096913 -2.5353884814931047 1.0958332208057708
Ni 2.173047280252943 5.406604085578836 12.929487997934034 0.20985164025194178 0.8038885706068155 0.289842773364604
Ni 0.11860316625092332 2.4523130680728555 6.248998735341034 -0.014576098041961994 1.3703769019194594 -0.13967620767812072
Ni 5.1041030155446006 9.260287623640279 2.3106266950366194 -1.9735744157276787 1.7774246984428612 0.20228719764112257
Ni 4.947833991370125 1.5593814490771873 5.801361484205183 -0.515200479671945 -0.8534167592439302 -1.0351762692453461
Ni 1.5339618107007083 2.722343729840109 3.9581473760914245 -0.663082877309942 -1.7344589935146129 -0.17219114958669055
Ni 0.5952527225649761 7.262016486437798 4.732273061597488 -1.3628119450880078 0.9386066629487125 -0.14948805156221998
Ni 4.5149167200932565 2.215222865898617 1.332926388571774 0.24837370758654 -0.37283206987364176 -1.7402208356990547
Ni 1.0813576838864365 5.00316179745207 4.280885538215303 1.469887850232604 0.29146256835621415 0.3308603534275463
Ni 7.954816840855195 7.281371541039177 12.395774210639512 -0.985225391248516 -1.1228380315293889 0.2853137751459989
Ni 2.5705724516872874 5.34793983675132 8.267873789001317 -0.7223925708138527 1.5296384879286753 -0.7669145644856276
Ni 6.797504392697344 8.918698560003923 4.711553014812078 -0.8566946586642536 -0.17974042268885818 -0.14022333843084236
Ni 8.296193920560203 2.0254235138004173 0.577788933298931 -0.567438611041055 -0.06534021596870683 0.6464882061760543
Ni 0.49236309564257325 -0.012309814726477717 6.939461736497999 0.39967567242904717 1.0711791697025166 -0.5841978327772649
Ni 5.603011806319508 3.2519533238898717 3.2215631231579045 -0.8562233754547899 1.0008805812872699 -0.3684665938160944
Ni 1.007375291845828 7.943876626659083 2.1153249774160274 0.1725151085850126 -0.48113284856427463 0.3004935682102308
Ni 1.6045155930690722 1.6287094113207974 8.211149653980273 -0.5569112291471698 0.03464510087769518 2.5001201452091135
Ni 3.3756413394853575 3.191630070382237 7.909078081824335 0.8819032967193973 1.4805286177759016 -0.15530774356779056
Ni 6.917367480835891 6.254171143265936 9.019458209250907 0.5183125429383654 -0.6356900871192858 -1.5384144343490924
Ni 3.7980423644288086 7.75749666754046 11.575069203731328 -1.679943378965236 -0.19790218119954947 0.8045053782552078
Ni 0.15464596459575994 2.453870689133633 10.495768685648239 0.40424015187127804 1.5357713402992905 0.23802861690679006
Ni 0.6806702651979333 3.4401213213859547 12.825740296924304 0.4303527897979298 -2.0451747536734843 0.031842341321577414
P 1.1428883241334904 3.705239485961525 7.964358882773677 -0.1871392862560906 -0.6616181198389574 0.4720350000280644
P 8.620704452684008 3.5653300912715493 4.177744295583083 1.0291930550787178 0.019008422781702745 0.7001702690805425
P 3.2008467630495607 6.614967794420996 9.914760361600612 -0.1440869351513067 -0.2813203377158897 -0.355511062096691
P 7.56652679547351 0.8192773412140163 6.545215864314688 -0.1842683924661988 -0.06905083205107462 -0.6979267244620045
P 2.8028515402891827 5.105421002596027 5.771657005407666 -0.31902119470077317 0.8829600201186858 1.031964447176268
P 4.927483533960674 7.389280578788205 5.216372470594539 -0.34996776368095855 -0.17617044594941272 -0.5063790247255731
P 1.913514431433771 8.601985349876674 0.006289471076181786 1.348130688926749 -1.1813216295875784 1.5259304429494687
P 8.051969998261457 7.786059198116496 3.194044843861076 0.6410138133250444 1.7682322333103162 0.4668783955277895
Ni 7.132494304383895 8.834199921629898 1.3227456298514482 0.622793690772592 -0.4535459400849415 0.05963853759823922
Ni 2.542406238895946 1.761208585106245 6.090510331572267 0.40743089089443374 0.3957755660436926 -0.07383745480644058
Ni 5.303598328328825 8.773673900883583 7.011267145730585 0.9629002453887546 -0.3177778092119753 -1.525254757038683
Ni 4.709536402456466 5.91702452549523 7.099852465633302 -0.2549472470389996 -0.4920662076473267 -0.5689118531524718
Ni 7.079728738863467 2.2315732786904494 4.821627975337925 0.3285689862902083 -0.07613319281915275 0.3203990488849063
Ni 4.358426495294766 5.007788577171066 0.707045674604014 -0.2033601189903272 -1.6472376612020985 0.9989640809908474
Ni -0.17042402077295163 9.043566312260825 -0.03408056447596335 0.058463543453531566 0.3883160244418538 0.533749703429042
Ni 5.835963713486117 6.974216041207943 10.824873739066703 0.8721708999229819 -0.650308351253093 1.8001722765520223
Ni 4.701342762675217 1.0390899313140896 10.868606945773156 0.24938235135671244 -0.300173980087283 0.7107148773656082
Ni 0.44599852317960065 0.1748443465762001 10.1460117889701 -1.1604825813550403 -0.21011980631166394 -0.17733695545368813
Ni 4.5907977508233335 4.894506207596989 9.46946968041786 -0.48496970581186155 0.575688252644357 -0.4783136339479246
Ni 2.3907363443624647 7.219361632773423 6.225229806621273 0.791984620080378 -0.23585063541886478 0.3066269348014784
Ni 0.9877253030790937 7.701449959430463 11.84912295184787 1.4829112590754656 -1.3573496364218558 -1.1004696911365177
Ni 2.6463613154906915 9.141281687919793 9.996897683313268 0.7546915400568744 -0.3469256344205251 -0.8332168872572877
Ni 7.312708296108079 9.194001169976886 10.885914051263855 -0.5980967022465441 -2.0860642927989947 -0.5322777468692059
Ni 3.13861565415979 3.7171751029657094 2.4399783682761758 -1.2100233683976451 -0.21322184227575539 -0.8676275035266734
Ni 3.059324447142803 7.497088232917892 3.770736990732595 0.000398263879683185 1.7403990131481315 -0.18293373281517528
Ni 3.8106323666123734 0.3863001614348107 13.05932539087716 1.792108525707281 0.3151267447423734 1.528842217279625
Ni 6.810444629202267 6.796223272416586 6.1218323399329 0.7719444136000512 0.6762600381218482 0.4963548077203516
Ni 5.866563133141633 2.8897649521420465 8.579940864354969 -0.641378909973947 0.05026069592776505 -1.048725725795007
Ni 7.8421335563044945 8.539367139894875 8.513222147805477 -1.0152653892540322 0.07836311059093601 -0.011925804903308492
Ni 3.952615517152497 7.2937126925207245 0.8093463548649749 -0.6859800936230895 0.7595398692881112 0.04768779299426625
Ni 7.486221752263118 4.130774186411867 12.892567770447268 -0.5713348607716677 -0.1496312620083036 0.002946741333149764
Ni 9.08457137793775 0.6343821912840995 4.788713322484379 -1.0390354950904364 -0.24142864372727454 -0.8771364714583733
P 8.385688006359919 1.346853732861367 12.045382283836597 1.7425461413981216 1.149743083450349 -0.08913037640976908
P 6.617253534202492 1.6071423504792595 2.360322180229563 1.2924429084461417 -0.31022493656538186 -0.8143051379544491
P 1.7590057955587544 2.55210219958197 1.1858224435856852 -0.42585078816251826 -0.3043538224965855 -0.03229588391922825
P 5.276814619437582 3.420001281293187 6.62541122888234 0.41288111537572764 2.2517595502486962 -1.000291027332387
P 5.624274716303023 8.021315278449938 12.70024673123529 0.8423823558066397 0.8611285260658911 1.118277665852216
P 6.284945680082131 5.251164563744419 2.301858855302194 -1.320729414095661 -0.35633407221861857 0.5361979078592185
P 6.069081521120738 0.6511187834986929 9.2493603128139 -0.03181508762806779 -0.4166830056203211 -1.5622722148032966
P 3.077905299560128 2.224983343433313 10.30744123936901 -1.7803225888159468 0.27480156276076545 -0.6656668359870342
