# total energy = -340859.8450169425 ev
CRYSTAL
PRIMVEC
9.39339780641900 0.00000000000000 0.00000000000000

0.00000000000000 9.39339780641900 0.00000000000000

0.00000000000000 0.00000000000000 13.74818718889747

PRIMCOORD
 96 1
Ni 0.7297880918894063 2.621030349378944 2.7415532771059596 0.33534769977493856 -1.7070551475803633 0.4948843938224122
Ni 8.681857159807182 9.245639492609058 10.449034239320621 1.6922954727726855 -0.2608960084232668 1.5890790505834955
Ni 3.027661139706347 5.100051313274977 0.2633795976768233 0.05746878364043005 -1.1435099580564434 -2.5675193005893786
Ni 2.8761644226096172 2.5152043315954757 9.906063918324271 -1.774180994694583 0.19890645409434776 0.33738067104456737
Ni 6.473929651727842 6.044914394830404 6.125229823310097 -2.5480514216727537 2.2155363062506037 0.10545996680772807
Ni 0.7069940731823796 2.8584109010748437 0.24016475475563906 1.2103146743858186 -1.026646120287148 -1.4071411060226864
Ni 4.301133450812551 0.35607082754385005 10.905584362712705 -0.4393830183209981 -0.3193058158207275 -0.09552573841315162
Ni 5.2066475896647155 8.43444445943449 12.989782037111606 1.1725261427831355 -0.6077375677704178 -1.706450681227145
Ni 1.6094553578023747 3.918202202724424 8.596067259184387 0.13262572858924257 0.07193946645277934 0.20224117489453558
Ni 8.831184002049662 -0.011183779227143309 12.916696706793457 0.9725832770044734 1.2443329403127925 2.0308724781181993
Ni 8.885562380972837 7.766132397723113 8.727500618267296 -0.7504584758121333 -1.039208530333191 -1.1153864603473498
Ni 2.026550393097893 7.918033030918254 5.723232796037244 -0.06919275694557761 -0.4516410097527448 -1.5879979017041748
Ni 8.397349932164214 2.9933282713414817 9.701517988070066 3.220858725359311 -1.0257863433900138 -0.6625817693038073
Ni 4.552463198000058 1.7230497154320104 8.73343912425369 0.584625921453619 -2.410909293270396 -1.5059102910738
Ni 1.1764009399208353 1.362474753721005 11.147675703323785 -0.20848407048045384 1.4682189471706133 -0.1497384770101292
Ni 6.642287517583788 0.4619672958095985 9.799638601771536 -1.6915082009847 0.6104845343879357 -0.17423183416580315
Ni 7.556424795467129 4.466541789810338 4.955423987870512 1.102886013887494 -1.3123360478256432 1.316600736639268
Ni 3.0948896865975493 2.215958863059356 1.2971314617356389 -1.1997968055736306 0.4397650842507652 0.2939297989497841
Ni 2.0313785994835407 5.293188962098507 6.204488494555576 -3.554240816767446 -0.036038124570479876 1.7765901183567079
Ni 1.9023508895355812 6.0796323924984055 4.0060295312947805 -0.786745997389258 0.40506444754478627 0.3044276131573144
Ni 8.413685050655733 0.6490847160872882 1.378201180045617 1.033964508325432 -0.023091848822457007 0.7663833745725059
Ni 1.1517714513154518 1.2362274894737295 8.688139464147106 -0.2739181317145476 0.752977128468929 -0.11187461208482023
Ni 4.33004632874061 7.851903511550633 6.502053484254356 0.2659765082699677 0.9871611748186482 1.6851442064398852
Ni 6.457509992657586 2.864770231275395 8.97784124068358 -0.9572695294655383 0.023010344852244242 -0.9980567386852296
P 9.05868269943097 7.832506145429307 0.9041962451636315 -2.169872999885534 0.7621315412746874 -1.6514792100872717
P 7.72311063654361 4.157160845223415 11.338790014296208 0.9648010619558932 -1.0145485656926656 2.516310896036363
P 5.219582298211479 0.49395275410486617 6.80296064483254 -1.4010115960861806 0.7186613859061947 0.7606575278323222
P 1.9968015027801014 0.8700709708865536 13.243243146223051 0.2779295668667858 1.9564035603753467 0.3944229086705401
P 4.592836021045802 3.8083652041497666 9.242988675795772 -1.5457572478674089 1.866598526496056 -0.28795018432758146
P 3.8512554577623455 5.8460561668456705 5.868262158860594 2.1354965792881933 0.9848795778733231 -0.07981706942864318
P 3.274867185331016 8.047436476771711 1.7204345935297454 0.17054127268809338 0.3126438304195196 1.9210727462845367
P 3.278925133110393 3.4337377195731413 3.2078922601760254 -1.1640445876746857 -0.5509097601480965 -0.7837792014514502
Ni 0.46328612883789594 3.9871591347809154 11.267037607102813 2.057013655289941 -0.10863630765318065 0.6298390276551475
Ni 5.115484665593302 4.143615565830217 1.6746117211747558 -0.6171537188779952 0.19091675102065184 -0.21040956963794086
Ni 9.28690468843036 7.125568432632752 12.163172438413989 -1.0789814393557549 -1.662184512319918 0.6338664036469857
Ni 7.253271673513832 4.826393459903261 7.689663565575955 0.7433401195997972 -1.9924136599213687 1.7810792644763132
Ni 2.7687884942159706 5.1727468175911735 10.323183376453647 1.295604079782943 -2.545184384537604 1.583389456397886
Ni 8.313664152612208 0.18564547486790198 4.650159230128317 -0.763534335159485 -1.4939024679796464 -1.1186772152834799
Ni 3.350991279784879 5.674016089115846 2.341082676949193 1.5617145425276135 1.1985909581909875 1.365525744474745
Ni 4.14312710915307 2.104412266114684 5.380229123946846 0.5082435887381376 -0.565513111883568 -0.5353718124134973
Ni 9.356171602608887 6.386580447097231 6.31595806563962 -0.8420188018196337 0.5612427666429882 -0.13378298212213735
Ni 4.872749877244058 8.19441496960483 8.839437980553686 0.22860475248972886 0.4912375410984443 -0.16567905949978565
Ni 1.4235130515691297 6.740016426603778 0.8999053411228461 0.2192251110470418 0.7495853291785606 0.34389456090368514
Ni 5.077441405161645 1.9888265081859098 2.7844200472244447 0.15377305209081907 -0.42615829210060796 0.7240416763815014
Ni 0.9935396681126725 4.762631076740277 1.8981708275869178 0.6883071990943694 -0.2791220445129903 1.7161188004445282
Ni 2.9863301901015844 7.911250997824018 13.45511686597423 0.7982167170330189 0.3296516778314258 -1.3062103945438794
Ni 3.6782290732805882 3.9008619906856983 6.823829956363654 2.01840879843355 -1.0010654436045663 1.4029890315275255
Ni 1.3210029031516806 8.721159135522257 12.046491410320689 2.808950258309498 -1.1919328294445215 -2.3461594025875208
Ni 3.9219032013935777 5.988272207076605 8.366377082134264 1.669550979987318 -1.6310898477976428 -0.0011402842520302943
Ni 2.1886992231154876 7.213340340157049 7.798026740061298 -1.596126187238264 0.6337573888729472 0.17626249144258677
Ni 6.538048984001049 4.374232871227156 13.407479189195685 -0.03638239528377605 0.04823698062951692 -0.8752469677451442
Ni 2.038902710991135 0.7813897824709526 5.691006866762459 -0.9961086138199233 1.4265567915451367 0.4184861202673309
Ni 8.892879837732409 5.3871605120635175 0.2492838651820717 -0.548679585265997 -0.3537483137693133 -0.9610536790983192
Ni 6.8783999605986335 6.810429335294073 0.27290168486190236 -0.17400146332255195 -0.44887475986151726 -0.4726070704814506
Ni 6.867137276831335 8.553684249044231 6.7692223785381245 0.6072943095854122 -1.0383533814217474 0.21441920501796619
Ni 4.736911954008949 4.478734419943744 4.284540013886002 1.4525308470113951 0.4268190656130585 0.6092056676755121
P 7.211226825688623 8.679903333098594 12.047453294238762 -1.5969607673244175 -1.200926034082067 -1.095455525751378
P 5.8820610599900025 0.09951835126992255 3.7953515910628486 0.4717313527447166 -0.05881912702073741 -0.6429760792577378
P 8.518440221108532 3.4612134076626715 1.3649517926779995 -2.440772913599048 -0.20564300148723294 0.8362333054861082
P 1.0168071140606263 0.5487914095122763 3.718692072943651 -0.48491365576294554 0.028599923124879776 0.5508915053156513
P 1.8272600688218372 2.687479244266237 6.803537399447479 -0.46840125993021914 -0.5672295803540425 -0.5491665522047445
P 6.069421769266501 1.2888305162434275 12.19066879197832 0.03754607657457405 -0.02136278194649224 0.7260237398085366
P 2.443683001983962 8.85292971758035 9.88798444589148 -0.12878115803217174 0.23905654395067216 0.027072430736759825
P 5.185287003437163 6.163205451278762 12.306098619506312 0.4348002840463221 0.17892281188356926 0.7920951775163133
Ni 0.8355802934413792 3.744987950289918 4.941346102831271 0.5185933074035778 0.8254441852904042 -1.6808877451563764
Ni 3.3458343044819214 0.20842070677965374 3.8663205888932812 0.5905178614580218 -0.8640071331652669 -1.3154781929990507
Ni 9.175217190521126 3.7770100428359714 7.038026663350573 0.31740577058453723 0.657974352438783 0.7068047436779247
Ni 6.210191226261268 7.362272659698756 10.649977801580869 0.6218454679267097 0.22597837061047535 -0.3101051231580659
Ni 6.970295569685768 6.994577502578567 4.156571879191547 1.6196121861753459 0.36905486221939665 -0.46328707863210533
Ni 4.618245161655093 7.175221932544292 4.420014412632541 -0.27338514202921305 0.23173867013302027 -2.6006489932638113
Ni 4.6571901882599445 0.4932181904096179 0.8591746296271162 0.015531777087011964 -0.2204841802651235 0.7532599498166705
Ni -0.10726978300034305 7.541310818668478 2.949041219500215 0.8401994892227078 0.739004725449237 1.5319149426676777
Ni 4.663652845834507 2.699878529147666 11.211880515515492 2.300779946011457 0.6650088906880611 0.8744872067609843
Ni 8.56416728080762 5.829758621944702 10.247032041146635 -1.0272986662694823 0.15725869664657433 -0.3553706798640847
Ni 8.964899017418707 2.0716011281670847 5.688463134682238 2.614902417859032 -1.1355068852463088 -1.8034350064636941
Ni 2.9723246342241527 0.12938841641723736 7.85922002897044 0.8552643539756303 -0.4484230170360793 -0.4490598792891298
Ni 8.293750149620822 2.229720190598215 12.238512184165124 -0.6621734781217952 -0.055065059294943874 -0.24356265935114185
Ni 7.590729483639082 1.9978253831225834 3.1704417231352915 -0.19895941881947027 0.6147253119421606 -0.04175342978770229
Ni 3.670695568375357 7.298735718079071 11.067125439903158 -0.07444243538029115 0.19477366287289682 -0.07109125951987112
Ni 7.111985579649005 1.7715384340365072 6.560194858271092 -2.3479879711558276 -0.7262273711789106 1.9878664068703185
Ni 1.4909764334012674 0.29475636380518444 1.554342415183951 0.16247443651955892 -0.8599581599068737 0.3752041696502441
Ni 6.725851182966508 1.985144296312031 0.5587221094945845 -0.8706408364317005 0.642384468420326 0.050519348905790414
Ni 2.659900228802696 3.0335038330368387 12.314209818366248 -0.9846630909871429 0.04099444013449069 0.8025050599957276
Ni 7.11741496348345 8.244519352602966 2.1078173727582583 -1.2476481207289545 0.8920920643269411 0.5970374077440944
Ni 9.35751485847104 8.985160576122679 6.771957735930149 0.306340256798995 0.9414418184046625 -0.11413923974928085
Ni 1.4677935280320504 6.826398111277731 9.90892326856511 -1.6070487476880388 1.412113105315981 1.367974977346186
Ni 6.0945397145490325 4.948657923552259 10.556077641437904 -2.314853650495704 0.8418537369966791 -1.198022487282027
Ni 7.1173022427118 4.504096593564848 2.8232035073899318 0.451867523941254 0.4936091266544144 -1.7991613187890045
P 1.487012419598265 5.567588893883582 12.399077287341045 0.5018891072750195 0.022736008144935038 0.09347914029676804
P 0.1907376357271615 5.510063726751862 8.384125906970219 0.07824972494152331 1.0983963535472565 -0.6720508851365071
P 8.47052449975992 0.8557197379760635 8.528564425082171 -1.284543193983091 -0.1644511006299555 -0.9449814561268048
P 5.864589340384351 3.5106226792356376 6.092976653182161 0.10938989798975354 0.49502091940027654 -0.04414532705864655
P 5.674016089115846 6.418348917907073 2.5157115750678987 0.07717706070263483 -0.9485414055639211 -0.973870371247013
P 4.411064383363582 3.0819174044602358 13.632977092880216 1.2255898553773343 0.6777996146948262 -0.9632761406709347
P 9.186376546914412 5.614264686744051 3.885072628596915 -0.5020978808517159 -0.6864534337150823 0.44171655155018125
P 6.5577845124373235 6.67781334744861 8.339622806983291 -0.5902512380601964 2.0696040903604422 0.7340437818995359
