# total energy = -340890.97407911834 ev
CRYSTAL
PRIMVEC
9.09452939893623 0.00000000000000 0.00000000000000

0.00000000000000 9.09452939893623 0.00000000000000

0.00000000000000 0.00000000000000 13.31076306446156

PRIMCOORD
 96 1
Ni 6.6182527916749345 1.994603107271436 11.506941619856581 0.1504714985214118 -0.1016382790687927 0.4577116414268569
Ni 4.787042000733769 0.3388494354460103 5.9867286657718966 -0.2611631460417244 -0.3577582062596548 -0.41674162677239845
Ni 2.7951217796538854 1.6449002603644138 4.769219451345345 -0.10195709586079216 -0.9603000887617461 0.09689202263305895
Ni 3.199728300928371 4.608052566374644 4.835254829775385 0.84824189991121 -0.16684325501121586 0.31181619231190166
Ni 4.8909197162588915 4.89217476132477 2.968885497383635 -0.28520347482037983 -0.2961633162659932 -0.3608021352923012
Ni 7.0563635594907055 6.0371032644668405 2.9345309123375705 0.6615944656898735 0.45142195176340316 -1.4071148807704412
Ni 5.229509048162264 4.556868554557502 11.90100667203063 -0.8689814464514066 -0.5028843813087533 -1.0681516957301025
Ni 5.427424198333662 7.911649488298674 12.477176944357792 0.6234981730387843 -0.6845351336464469 -0.03133172023374604
Ni 1.9706935893135 6.4498584841400755 0.42275556427062777 -1.3568590699386827 -0.2906277311597446 -1.4410043344290344
Ni 2.802633860990232 1.7571085648775429 0.4143976916942324 0.6814330976823554 -0.8836053670121686 -1.1458920851353749
Ni 0.428110423218377 8.97491821139346 4.2491678825218875 1.7495328571285997 -0.0028428687654338133 0.8174154014486567
Ni 8.379353854986686 2.530052623928512 1.4236530948559722 -0.03279467793251772 -1.5253655715849344 0.2777354485781088
Ni 7.390205547014448 0.5574200809335234 5.209446516167129 -1.325044496531247 -0.09346448500874871 -1.8343322102631827
Ni 0.7660613191534538 7.438060961048172 2.3588935794369337 0.31279166885129356 0.19798959870703323 0.7200824346234374
Ni 7.622452545908255 3.820529976594663 3.9076810335316394 -0.12569094914262224 0.03840353947886289 -0.36246281082417575
Ni 7.511281017753895 3.98378587498299 12.824547953910532 0.814784391583713 -0.275738472752738 0.4483934493497246
Ni 8.126680542919232 8.707211642123848 7.109091822410645 -0.9815327728882773 -0.1980389638877299 0.9804973896452275
Ni 6.924238235453848 0.393852240184619 0.28136200525814026 0.7215376790127251 0.8467285485904773 -0.5588863505956698
Ni 1.546388317222396 6.608048729617574 9.189165317574316 0.6074627168424764 0.1458656243182843 0.08588590133054241
Ni 0.010475079035355989 4.6391376680788 1.5258928856248284 0.5240921257346199 2.1055807655653673 0.09496703769620418
Ni 6.466592418351791 1.7176292124791401 7.0375606198261815 1.3195716463421339 2.0404511229455697 -0.4890112228710869
Ni 3.4891889846732145 4.300775699412 0.6762510218015286 0.11083665773860911 1.156477573960705 -0.7261096146541236
Ni 6.042860101616849 5.590543678780047 5.120317399071975 -0.24207707594455086 -0.6500041897491128 0.22520883943430245
Ni 5.425787183030342 2.6847687591511855 9.476983529298161 -0.375373862458889 0.7782557005300598 -0.21409241780616675
P 0.1311267447018317 5.6147442216807955 12.651454503002196 0.37336608800024085 -0.5630687641081336 -0.41751192927951963
P 3.894623108128823 6.24238498350318 12.559902603258129 -0.034574395540759806 -0.5285661023455736 -0.09081522031135972
P 2.343451068408947 8.76434347620972 1.0735782816939177 -0.32092586792265376 -0.687038616794591 1.0952498374984752
P 6.308829615759049 7.646080133452841 5.981098242581422 0.20177092012633635 0.5248719413234381 0.7102433370458284
P 4.883152988097584 1.038704399015522 12.607169601235602 -0.11206950170444571 -0.06193710382442881 -0.3721018765758366
P 3.8802082789301435 6.318024185046031 8.119245765083319 1.0673759939063425 -0.49210914507012027 1.6431907448262344
P 4.735385073384557 1.0422603600355118 3.7843428438618263 0.15823751562007585 -0.20361491531361064 -0.23621521784713512
P 0.12290710897327226 5.689255701570248 3.601666487258445 0.21651156877062067 0.18919899699859674 -0.8275692020532069
Ni 1.57812822504788 1.331975690605316 2.536618874200718 -0.7660630151186096 -0.5010270163850403 -0.2088648508586403
Ni 1.9040579719389095 6.851945820753341 4.860877757084129 -0.19503025896839316 -0.5115361434464804 -2.161697148942961
Ni 5.866535364390351 5.530037774263443 9.205617321372683 -0.42793466727474044 -0.13768668805191772 1.3636894625969547
Ni 8.741579868964108 2.358766256024453 10.060394865983676 0.23161011497495593 -0.36135080870691966 0.4699176965747456
Ni 2.2437477419072906 5.44938748698654 7.1539896954630375 0.6748711281941216 -1.3932599771652199 -0.8624845258731534
Ni 0.40076408257641494 9.018626519992107 9.014354819503389 0.4573421739025801 -0.11528518042826598 0.6302771436338306
Ni 1.6371880993798837 1.0967820641655337 11.419796019637282 -0.5076496639078806 1.057757754090288 0.107093388646093
Ni 3.887392957205826 6.9373525469393345 1.5318561685936452 1.5684906849091826 0.7855895151873116 0.4664377084459451
Ni 5.862879363546269 7.7086686852164465 8.243435202710858 -0.8390327226081162 0.6555477452751612 -0.47022751450568046
Ni 5.295580804710155 2.940606967471727 4.694146838988032 0.09607698293093132 0.3247763520169955 0.98312582840701
Ni 0.9227491483636824 7.442908345251892 6.794998605615566 -0.7902848637804519 0.35439417488342834 1.3261796385769549
Ni 4.922404977259415 4.614100428467466 7.27080437914912 0.5650595692859172 -0.5942937835606862 -1.6710928705531416
Ni 8.049349758896282 6.89100682479645 9.194116379413913 0.8704821993666492 0.07222897266874012 0.30746845686616725
Ni 4.701353344134426 0.13160784531041853 10.456043275737215 0.04458832813333611 0.7952566059634304 -0.19524726007520565
Ni 8.11163819118761 7.2225388018366194 4.843840065588352 0.49785916018001997 -0.36815986120895305 0.1254919457579387
Ni 7.501031483049219 6.087396012396619 7.081579051879513 -0.4558010546677054 -0.8134559025802764 -0.7683348418719219
Ni 2.310183279633698 5.354595206394844 2.6241237083338 -0.8405823264834232 -0.36896101695400974 0.28058680198397484
Ni 2.5201032086961104 5.18738318769016 11.06354693042287 0.8839092714058326 0.23884622771207897 0.5734758183740705
Ni 1.1136524163191934 3.2792781501402644 3.7953645041179023 -0.5365684038247598 1.0720237770909988 -0.48103900329888766
Ni 3.768654780538342 2.755942546727758 2.6607819376928146 -0.44070430823558293 -0.07154043124214776 0.2531492745983124
Ni 1.1877364533238903 3.2546228807663717 8.132570160199398 -0.43231042774493295 0.5757602435328729 -0.34240306395982323
Ni 3.710140577974112 2.413942766275803 6.938834045788839 -0.01792084614447881 0.5246109743525675 0.2657044855555037
Ni 4.072121039656035 7.045559258488793 5.986236651727954 0.6680373931017397 -0.027207670763043465 0.5798338993816143
Ni 0.9094365761359049 7.4010553206636756 11.514076278220218 -0.2557833697870498 -0.8601769607858993 0.07664664212046154
P 0.2328426905736254 5.326302125235795 7.9633637111835025 0.03269286224733079 0.6846909424980208 0.7358234995077778
P 8.605934962025113 1.727760518300799 7.949453628370012 -1.4102493126343647 -0.6878587987030412 0.3655661323398478
P 1.9558604117595275 3.0638196526349524 10.258272728584277 -0.651272257828259 0.5142278313460305 0.9600504346447852
P 3.8093255162963833 6.608767197445141 3.8361352797000348 0.10375224008800198 -1.0501711999922816 -0.8348747345756847
P 6.9347697005718745 4.054141154907903 10.623532677590518 0.23476023056816342 -0.0786778136178774 -0.2317471547734525
P 6.902029394505472 7.988898421556457 10.578010010364025 -1.8637687703567452 0.7377001477052004 0.299300062122762
P 2.4879176689269453 8.693096932397445 5.784351739446004 -0.3380267892689985 1.021581818390363 0.12649853264558214
P 6.651029475859189 4.080387966937802 1.868658425457559 0.7794589768095415 -0.7066743887476475 -0.24168755381561602
Ni 5.245178922426822 2.7960403271296372 0.7025524010082047 0.3968256045747617 -0.08193334444069761 -1.6356548414605057
Ni 1.2986351455943634 1.1117971323087639 6.9977611399906845 1.022025333685685 -0.5435484346870187 -1.541818574934635
Ni 6.791057945999296 0.7211861824247189 9.228125372340386 1.8726691581701684 -0.5210636233209414 0.7829178818924194
Ni 2.7006659966523165 1.3463086690388295 9.106811624929014 0.5303651032275253 0.918194674951264 0.4568675482590068
Ni 6.3395691253436155 1.8312562635884801 2.5003871782735123 0.3709955308855352 0.21391578301898642 1.6615296523447385
Ni 4.119903697454056 6.887441769246998 10.285199811418 -0.2299016169242815 0.11343347193150786 0.11854071125108619
Ni 8.363038269130262 7.17897600570938 0.5778536697307433 -0.9903439434220039 -0.22821780146395534 -0.44800289877952515
Ni 7.539737800443276 4.0550506078541915 8.523586726097488 1.0209323577318223 -0.9200083311212349 -0.4529622996673296
Ni 3.004941668892206 8.436185569600282 12.331489857985876 0.903553013778689 -0.16482339636770968 0.06003705858823854
Ni 0.2999139359094883 4.6910128641351205 10.35380348496836 -0.8696764156359021 0.4139784622049644 -0.1189464313299371
Ni 8.712259105975752 2.6986924837588693 5.720499957540004 0.08029040952063592 -0.9378875253945008 1.407364534887402
Ni 3.794083084916581 2.6136040661040765 11.46203101446294 0.06514892589350715 0.03382594741050948 0.0025888437730987673
Ni 1.4688847371396525 3.7076395823718173 12.537168098506797 -1.472065060389581 -0.7452669043088649 0.5815848206344499
Ni 3.13098275271839 8.419606242389435 8.081363412058598 0.9239413476270539 -0.8365492940646302 -1.3974783861219415
Ni 5.630541419357834 7.8925873545444585 3.879128758282898 -0.5770254833985416 0.883398136097369 -0.42010977191368293
Ni 3.050850853620872 8.684120631817573 3.255453211306333 0.19803227901951057 -0.5946521953413695 0.3209628918081762
Ni 3.4708453187465667 3.9816486605592116 8.9916466888875 -0.3552140996815624 0.7122207724871734 0.3415314599881473
Ni 7.293112350468642 6.106958345271294 11.570686995767865 0.1284875380511529 -0.035405633192803536 0.05066461623440306
Ni 0.24394620159486705 0.3096632714937057 0.7421472539307863 0.641398707468289 0.13609003298875916 -0.8414498166900413
Ni 4.789633941630693 0.26054462731758643 1.374176126219015 -1.2423277369573056 -0.07738532005869898 0.5824242858166099
Ni 5.841816433310217 5.629295468821417 0.5524762947174967 0.3370603115906711 1.2317815860103432 0.4881748430127205
Ni 8.561280822362326 0.09399923762253207 11.217858359084445 -1.3696153411630863 0.62111424618764 0.7110465496734141
Ni 0.44886686781152946 5.030866335633833 5.603405162346465 -0.6678859551255402 -0.0072890774622455115 0.48036203183652104
Ni 7.643670083145176 8.890793813861734 2.581142962092185 1.2203306638609244 -0.23035824484572587 0.688360420929808
P 8.492471612446105 1.647428539555097 3.696558807674233 -0.03890130505088784 0.8747016367646355 -1.1258770754660288
P 1.7770346789307334 3.227794018850848 1.5435289971592636 -0.261214310994634 1.4371381666054086 0.39455840580713986
P 4.903997649626526 0.9454854720209058 8.212727523979412 -1.9434901947477883 -0.41789142410612545 0.5354378897647424
P 8.682474521984789 1.9466385588841577 12.563496761301861 -0.09581935839417045 -0.9666396578265288 -0.009161611894610028
P 6.275798284749835 7.691016203528977 1.494812331185404 -0.3957876502285506 -1.0454316284247673 -0.5786869302613646
P 1.8419241466484493 3.3007776177905352 5.878471934310392 0.3843660386551703 -0.5237072315913754 1.2204959857941948
P 6.921555349262295 3.850978461236417 6.390164721104509 -1.1278974483301674 0.9552105900539807 -1.6118443693044693
P 2.3171678782611966 8.462350530865015 10.085937761433147 -0.1181272778627514 0.616285714450745 1.5047831194478924
