# total energy = -340877.215363016 ev
CRYSTAL
PRIMVEC
9.18638050680521 0.00000000000000 0.00000000000000

0.00000000000000 9.18638050680521 0.00000000000000

0.00000000000000 0.00000000000000 13.44519644528113

PRIMCOORD
 96 1
Ni 0.4823841806775895 5.813233341990321 1.4438390146446805 -0.03624329860275048 -1.298705601526402 -0.3312480757842683
Ni 7.7843365984562105 0.5113387328664286 12.971629275581561 1.3242867924296162 0.4495036516947678 -0.478978264115117
Ni 5.678450769664217 5.536897835028657 13.21450339216033 0.8540484792906582 0.8207596353305413 -0.9872164535366158
Ni 6.556475816035313 3.2369864671077346 8.50236521438619 -0.5071043329273718 -0.8375108866469512 0.6239758840061512
Ni 2.6405974691536036 5.820701869205502 3.1502633621603957 0.01578708763092765 -0.6203966512953251 -0.5778407802109855
Ni 2.5328779733046467 4.633775597572848 12.081234768084709 -2.0502835356549594 0.18967825062786042 -0.29627335948129624
Ni 8.020389827633663 7.020994324230636 12.852827330492266 0.5115209739378287 -0.8575086699251167 -1.0536792131455401
Ni 8.098253587382576 3.7883805741640155 1.850247236732913 0.625635273986445 0.2718365665951706 -0.14340687836514657
Ni 2.3351503228993122 5.732218653785311 5.966440118723272 -0.94699540123304 -1.8774259561288633 -1.5896025271871332
Ni 3.5514821979954236 6.502386408602373 8.635096467982711 -0.4596695364841761 -0.5888492155063472 1.6812464140473755
Ni 5.551540925288187 4.67990041325233 6.897049843427864 1.478743500851021 -0.31593381402470105 0.6103783478273747
Ni 0.6626016715197568 7.863201673662018 5.670847202658061 -0.6416779292716046 1.6191450167309405 -0.6500296436704095
Ni 7.798309082951031 6.090845755819034 7.4684840391925285 0.20314311788351466 0.40060229800837455 -0.8625372334879596
Ni 4.555553568990733 6.911391620412291 1.5892759508873477 1.695145283516655 0.1137054946459719 0.2553632515304957
Ni 0.8735025913304643 6.812867691282149 8.640353833450423 0.8742491226082492 -0.8529994692008536 0.08189709188612347
Ni 5.834325271247459 0.6044730126519889 6.8050840712213585 -0.4333347552443892 2.1532184220479884 0.13406708902145945
Ni 5.51742270871109 3.52680758040628 1.0987067053281772 0.09497038013031386 -1.7793393989670712 -1.844350256620817
Ni 3.8315565617548475 1.792125008331382 8.138269460136973 -1.5862955743010874 0.6451962268375082 -0.30626518058668545
Ni 2.38136700238218 2.0537990522728404 13.289985123487478 0.5504605884258198 1.7733176182530235 -0.5512108363282829
Ni 1.2916510074912677 2.706463816180469 7.991689738180199 -0.490345111191162 0.7609735164108443 -0.6391708465790347
Ni 0.40646885219846646 8.427227053683701 0.9358946493133182 1.3541915504088484 0.034945405726933366 -0.9033041309926766
Ni 6.328607651739442 5.191563425344707 2.3247017339023306 -0.7697672034430743 1.288330428939665 1.834906337599098
Ni 4.986679584655701 6.972453490522135 6.9323971976942484 1.4679402395879297 0.8669093944137264 -1.1984112380800134
Ni 3.2597043856847834 9.029816858366303 10.015972031787484 -0.48437166721654645 -1.4103660407178873 -0.4825024752182916
P 9.078054541523635 0.03647911632408395 3.8951272323351276 -1.4714006873327048 -0.47133977373325275 0.7604017030677743
P 4.488143910067005 9.16759419068275 11.825843289656733 0.8196545751918207 0.31377305892795637 0.5996805017938962
P 1.9121909993552495 1.4875689409699224 9.562829018365296 0.7418450231115095 1.4949481356353413 1.212700401009176
P 4.255379405050727 4.190440882438048 2.775868756913715 -0.2571311420641959 0.4054439423713921 0.15833238932672733
P 4.341611957287991 8.822415949464554 8.007972597330145 0.037725282464915674 -0.8539008979692003 0.4172548189633911
P 6.846471470560289 2.386676730217818 5.555138311828733 -0.1468423864092568 -0.18232232448342148 0.041076458325335706
P 2.4298343450479734 1.793750997651292 6.267061659385761 -0.07683896063692572 0.9100411926061939 -1.9149221533021084
P 6.873589665319468 5.519903031402479 11.243531500933281 0.49765450036838166 0.493816357569214 0.4330197951071316
Ni 6.562428590494645 8.449752058273642 8.645328258403707 -0.8914423465580842 -1.1442738328056614 -0.7400943589689899
Ni 6.143584765342219 5.828253073843729 9.212083830661985 -0.6482540398272255 -0.2735617768163934 -1.5601549113499775
Ni 3.0331498737773144 3.3924751407167615 4.516523394846655 -0.9566136410490943 -0.6185022624860896 -1.475628095150491
Ni 7.485035140648359 0.3339864740518315 10.52233174651046 -0.5009532257243114 0.6320378350786793 1.2536639879057312
Ni 1.3095368900102786 6.722427776849862 12.774092701887266 0.6650973366368095 0.31529438066848925 -1.00450403697247
Ni 8.213570219771452 4.765131650032701 9.395704875419556 0.5588832652718762 -0.873806892864508 0.30655854345738814
Ni 1.5471242447042557 0.21138228614044358 7.39553039973453 -0.8689125408866841 1.7435236748200424 1.5096990686922709
Ni 4.507233208410356 2.5822180221025954 5.924840513998521 3.7209300626993014 -1.8651070295521943 -0.7941512887143936
Ni 5.93310641902708 2.6317785440286676 3.38579664221069 0.0948042868660948 0.10301613325292582 0.9028932687075032
Ni 3.2521531810465567 2.7382854376729457 10.842475264030243 0.016710370776145414 -0.9527310181652365 -0.7992233039206622
Ni 7.539069429799269 9.008559574263073 1.877810052300473 -1.0921989664872933 0.014004541809208139 0.9100378501720843
Ni 7.229414921349955 8.262625490778907 6.128521857501221 1.7723642532008184 -2.809661168333593 0.28323606668136386
Ni 0.19288642796695812 1.840831196885976 1.0564144475259063 -0.09252243281045355 -0.7503600025610562 -0.047820976138020874
Ni 3.4006050873163116 5.02017312736978 0.7055700469149394 0.021419860436672787 -0.15670513813594947 1.016338824823869
Ni 3.3339946434820296 8.5161420289798 2.8684518538789665 -2.299992417113155 -0.33601387260402776 1.8802896508299036
Ni 3.8018937396419124 0.08789988026869738 0.7787662068138739 0.8914531451913615 -0.2348599893708213 -2.3676617954356707
Ni 6.637573181663369 0.3429615676425215 4.381426648312975 1.3210248338488926 1.5362120273811348 0.3134357301931957
Ni 7.485522018806297 7.319735412837841 3.7149207651493668 0.7243779766749976 -0.7203326029610303 -0.5719778936723052
Ni 7.537985436919328 4.216410779654916 4.337003150272178 -0.03879383293874609 -0.7937692227846265 0.06450563588255342
Ni -0.014518155486925782 1.4841240483429945 5.987965645132386 -0.3596428248768774 -2.036354584278693 -1.2186630463505141
Ni 2.612229926668393 7.640119613522492 6.859456419168724 2.537167684880714 1.1271148045278718 0.5686398304380077
Ni 7.979391012183049 1.148949775313398 8.400195210899705 0.6483447997688189 1.0769572098368745 -1.184178125199767
Ni 5.6566331163603385 1.7097874813576313 12.699364253747875 -1.2445949357249275 -0.9740076681558257 0.7411353986389946
Ni 8.210952101374986 1.8624926817241 3.2327763489986117 0.5178029502917986 0.24923811246936434 0.7074282361945365
P 8.7628790184909 8.293905115831414 7.7248704026111605 -0.7663365804949706 0.3649302985280618 -0.1078850313094529
P 2.827182040208368 7.295915128620175 4.670161931455513 0.6300673416158697 2.0030585412297244 0.017916218158788497
P 4.503687265599704 4.27583747406451 8.780466343648909 0.23995205918174806 -1.4032800804053833 -1.7931287394416795
P 2.5061731656607 7.251407115880264 1.1998505901308538 -1.5095903110285485 -0.5633184182250943 -1.0023412249931962
P 4.4764955797978185 3.7973189222333517 12.468859598294861 -1.0177899554480987 -0.26720472425011405 2.0079174119839225
P 9.112742313681716 8.623742101884357 11.696258371326138 0.5990786065438393 -0.859362435304404 0.5311207504466273
P 0.44023063721842953 4.43540490054382 3.3703074863219875 -1.0910424842853468 1.3388502920660879 0.3506642755273509
P 7.00591028771486 1.829091002813405 1.0459392180259435 0.19205574972110148 0.9097020640992204 1.2055889867753753
Ni 5.195991260667852 7.32775512287333 4.352384825510921 -0.8336308348662547 0.3082089345766176 -0.0998135671552281
Ni 3.276102074588961 4.00020013200857 6.950251846520108 -1.436850717271977 0.4875901741538442 2.233271004526205
Ni 0.6180853910375411 9.0648904584986 9.640487921832662 -0.3444226654930133 -0.7000967355301297 0.8419771499484208
Ni 3.982396926912606 2.065952633460643 2.2355460754413636 -0.5381285492230281 -0.9609438929933323 0.3543358108416672
Ni 3.787039362634598 7.15806430526102 12.428698580731117 -0.5654722313433036 -0.4056614576988368 0.0954401206778808
Ni 0.6426268061117769 7.427923414084059 3.1113526109607177 1.338764931441133 -0.024593630178964095 0.9533521966890034
Ni 4.6211626973681215 4.986284570301147 4.886481897027887 0.24861359151148799 0.9692842945382275 -1.3580032108454547
Ni 9.00675904371673 4.936007510708673 11.70467493299225 -0.01809799515229141 0.26767626456989385 0.9323923066078844
Ni 4.346260265739259 5.114351898599826 10.575977451773054 -0.9511572459202136 1.5516676998145726 2.3101922404642927
Ni 2.00717817205508 3.5230044189461514 2.285750562629163 -0.4953927009173984 -0.5691692205789165 -1.2113639415859394
Ni 6.099425835055169 8.276542856991698 13.277561462717724 -2.2522244057002565 -0.22672656163040952 0.32107884856075025
Ni 8.070584209803089 7.229111770798786 10.022412603042792 0.7086024590082958 -0.7657938206176231 0.7554394739664925
Ni 7.781571497974329 3.2531728692641275 12.916168341564086 -0.5783460019821781 -0.3335826374547158 -0.3732221062232088
Ni 5.2023298631014 1.1562988795841782 9.787511345959784 1.6277399574888032 -0.6927670346379359 1.3594587123450588
Ni 5.791590229912874 3.2028039458682693 10.994191091234258 1.150826803432831 1.0509620713246932 -1.9124911752631126
Ni 9.030983528669289 5.832285894812318 5.175930043284691 -0.15939374071170614 -0.8305845918407632 -0.1353708954345475
Ni 1.630169122964069 1.3079292734510453 3.7950406999094097 0.352559949888167 0.4149487965380338 0.5798716945980852
Ni 0.8864682485401878 3.5914705116088057 5.28591122597298 0.5334344861814684 -0.16195584501192753 0.36137086331157764
Ni 2.022354072374241 9.096675334469724 12.177462102130235 -0.14241340410362568 0.053784907030939626 -0.10407774174822074
Ni 1.299918749795895 4.572043121698296 9.952940601733074 1.2976625049738684 0.09941350350333202 -1.1011669743138583
Ni 4.302239131157288 0.339151975716156 4.902992578410228 -1.4422338359607614 0.12131056068673947 0.5520449021938042
Ni 5.733164850960174 7.433536292470868 10.810246685888771 -0.33904546034149996 1.039900928414525 1.0853508332172084
Ni 8.444626058044774 3.403379374178531 6.884935763675517 -1.9640970723648625 1.7114473631107878 0.8936380686578222
Ni 0.5240958592424687 2.284413944289915 11.572320320989604 0.0409414754093682 0.09178066954842258 -0.7657159161918361
P 6.656735971049428 5.975409700485758 5.34870105422449 0.3870415286048044 0.8239560307806518 0.6565409624263661
P 2.287794532254474 6.823624942658502 10.530492926803161 0.20633025736224464 -1.002842332999331 0.582398574784997
P 5.2610124607035775 0.14599087497707744 2.883523948100302 -0.10351415593526687 0.44286737732517273 -1.462106149404656
P 0.7280270722903752 3.7417413211855783 0.24202437639746055 0.2718368237054867 1.3016914236276034 -1.5770812547916713
P 7.075258272890008 6.826233874674629 1.3139334916402725 0.2928653622410118 1.0221909127292717 0.47074173513793766
P 2.125066990938729 1.109742304028787 1.6871706129643058 -0.6202948356101381 -0.7518682116754664 0.6922589846532659
P 0.9154815935631933 4.956741171132611 7.40085482577871 -0.9413672564129851 -0.924409288402408 0.6119258948201526
P 7.748509715136158 2.5492021711661166 10.364014586395218 0.7073097083388012 -0.24796027419820524 -0.4796755472924577
