# total energy = -340898.3497428107 ev
CRYSTAL
PRIMVEC
8.97940715002870 0.00000000000000 0.00000000000000
0.00000000000000 8.97940715002870 0.00000000000000
0.00000000000000 0.00000000000000 13.14227001645721
PRIMCOORD
 96 1
Ni 6.404642829747159 1.9519883822630857 11.3755410561755 0.01898991083894149 0.32818434925727996 -0.15924101718392578
Ni 4.440990197841459 0.5033406572107425 5.919146947990433 0.3897291027392965 -0.7664121709279123 0.4045571688910645
Ni 2.517987341249166 1.5156789980177912 4.7966393652355785 0.5386065173007111 0.07272391002728765 -0.4183146276864731
Ni 3.340231636687355 4.297993141984157 4.708441834181161 -0.2657695344654842 0.6084963003133133 0.032120791793944684
Ni 5.056950577159723 4.5490483812126845 2.5590627404525343 -0.6823152431769927 -0.682567725507431 -0.052370028961284
Ni 6.982261141341048 5.970973391148461 2.652727832405634 1.4007084630234652 -0.058529106584144355 -0.27613159442609864
Ni 5.1547363189673225 4.386233774191988 11.537217074393514 -0.25266410743177775 0.17088708606328634 -0.7364233378753059
Ni 5.656209259530134 7.723421391919492 12.371488387515551 -0.11957300917034246 0.6983460713876102 -0.21819024202462425
Ni 1.8492639666268194 6.597421717797421 0.3593675398167566 0.22484014324097407 -0.7759674187165152 0.3341606214453729
Ni 2.7247561453449967 1.5416384635426554 0.3929325630377673 0.22088424391701955 0.1677364562494466 -0.08815412853942883
Ni 0.5768766125788926 9.018467381493343 4.740364523868966 -0.6768807024249827 -0.17990677306339337 -0.13372898895575033
Ni 8.513106357716326 2.3024366771452702 1.2633450912379864 0.5587696225121473 -0.41436387056884116 0.5548463761983412
Ni 6.729347164871548 0.8172409698794019 4.815012129818913 -0.3666979319514459 -0.08403676393694559 -0.6606225886949073
Ni 0.8416784259243405 7.395744873090941 2.5449875200408343 -0.4039190210864334 -0.14624023404888364 -0.40650940752142894
Ni 7.453401645188884 3.8351585895754416 3.9442844244343562 0.44913392706017485 -0.5774481727582571 -0.6037011929175151
Ni 7.613576306562985 3.7749696247144375 12.521047593980107 0.3362956655105047 0.1203217144109089 -0.1350235393974578
Ni 7.915912938946995 8.910876127284098 6.6530635109732685 0.10383374405821472 -0.43422127161440055 1.0702414883795957
Ni 6.775600090128752 0.6868267569968461 0.42932879327364815 -0.2221055179186304 -0.004551623926424419 -0.7115173186622457
Ni 1.8936222370152072 6.378171538025506 9.222338530962789 0.31348586670484074 0.829100808206385 -0.6617970686189828
Ni 0.11151615299198882 4.808454468915141 1.3519718379451493 -0.5514381218477407 -0.0925579140340793 0.46791146477799417
Ni 6.318772760977088 2.0861317428566326 6.998021796439367 0.05852807814287985 -0.3855304912769167 -0.01355434164566698
Ni 3.5259347520521818 4.2445297529371 0.4767696940718199 -0.8587397141187404 0.6539801436777254 -0.30816111205781765
Ni 5.796817793135753 5.4249266744301945 4.7791995610355125 0.11057466232647409 1.1244585978519472 0.5287278247344185
Ni 5.377883561360404 2.9699208936069694 9.169296276102212 -0.6855401778721935 -0.23821193656218975 0.17407885352770666
P 0.28195697034484346 5.52594500274383 12.411677519251848 -0.166611598616384 -0.7239447457923209 -0.7473770086733322
P 4.062678803158634 6.168520344295127 12.554297440016779 -0.1559849721404733 -0.9293542911125091 -0.18298232666492356
P 2.4439521308539724 8.50379471269755 1.3089730497706893 -0.5933021090713783 -0.03683465232984624 0.6108447459408318
P 6.187736275192121 7.67777008692869 5.720304266419265 0.3628255934802332 0.18839938391543684 0.2971822444488108
P 4.685786790418023 0.9896114617882209 12.607996987466915 0.621727968512239 0.4329298064964866 0.0007767302650244688
P 3.9899905038076215 6.212896573497437 8.208399161894555 -0.11355997020704314 -0.006601050256285405 -0.33602004325161483
P 4.598219613732282 1.0668972175033733 3.768559226084828 -0.5838975279280266 0.05002595420913965 0.4439454408807
P 0.09670372326877337 5.54987512229546 3.562646159472401 -0.12551380013480964 -0.5226754478927514 -0.9311404364786544
Ni 1.3662706455901836 1.025439295563457 2.5880545517082 -0.2728120431345624 0.7303025696895488 -0.5088004896828722
Ni 1.7109810994241537 6.543751802390257 4.655596228333035 1.107556679890286 -0.8820588484606551 0.16807429920483957
Ni 6.003523741382854 5.554957466635506 9.03972612747401 -0.5498026431268467 0.7027393153592995 0.5160209186907113
Ni 8.756223801191144 2.211394469965541 10.190134523538745 -0.3178914519717041 1.0178143809281308 -0.941750865004649
Ni 2.411204233666432 5.082389237080837 6.954297472182442 -0.6785863722621797 0.4206281063109982 0.560410243439364
Ni 0.45752323319115795 -0.17630975774270286 9.05030566475571 0.5387289018111884 0.6067551492524905 -0.08904527289513052
Ni 1.4878518158449952 0.9995067682594766 11.401247302424057 0.22305862586051908 0.12579327904844143 -0.22996383762078457
Ni 4.194729961930218 6.8142294988758865 1.5408258272126658 0.0070044563422911625 0.09219975936371218 -0.08538453621409166
Ni 5.492326103081052 7.905389073988455 7.8392853737621 0.6082651581391137 0.12614243485774404 0.5904597545265766
Ni 5.206754023493624 2.956155462735431 4.88571777611289 0.2516256388649344 -0.6142815395365228 0.17779769714019056
Ni 0.9169860182859377 7.388938482614343 6.876364301225386 -1.5990539024080204 -0.8003576746354216 0.9135564048483039
Ni 5.027830360384513 4.548635328492469 7.082723644363785 0.41650559950219235 0.021362524836176112 -0.59506922827413
Ni 8.11724022242433 6.843879500661809 9.235296713148514 0.39848473744473956 0.9837971434424218 0.1386657641357354
Ni 4.636822084258533 0.41647926191215373 10.545002482527238 -0.6227147579055405 -0.45363310048210903 -1.1330789925311067
Ni 8.102487056787059 7.059798320451113 4.759144055587645 -0.4369882928365764 0.6370556000082449 -0.12090149817377889
Ni 7.3563611941590645 6.238640533255231 7.025108177537864 -0.5770853901021997 -0.5348830457025369 -0.8152721298534088
Ni 2.381356684927363 5.220007628168374 2.419176151166596 -0.5558344511432234 -0.115529178118272 0.7082062520111416
Ni 2.438133475143107 5.18901969474523 11.46310823286124 -0.4133701391970042 0.24979449919346658 -0.007371352763406659
Ni 0.9178929383890201 3.4330876840732487 3.7050945735643737 0.5984929092436984 -0.24459521438071422 -0.43957687949935903
Ni 3.392698311561717 2.757809342369218 2.7726244659145216 0.3842930193253898 -0.3452114799428958 -0.3807731790975894
Ni 1.1122522020644554 3.188847814728281 8.139428337025485 -0.386456859745928 0.8371956693993775 -0.08970167553220681
Ni 3.592705622215755 2.715695923721133 7.172091192145247 -0.0809360135244348 -0.4274312452757606 0.03323330813183309
Ni 4.037671154771657 6.648137408314347 6.041514714295047 0.2934220060754302 0.8830538653840727 -1.050887766443332
Ni 0.8097853682795074 7.299216248257912 11.183191383777983 0.052575974324503 -0.26281302294032155 0.5104310833077597
P 0.261358210775823 5.491024089071676 7.958866830086649 1.2619475680707621 0.013524002628363806 -0.29994952278130277
P 8.343530257253837 1.6408429516501264 8.006126346864203 0.8125138503819813 -0.5172614759660318 -0.30632328751813054
P 1.810832104832832 3.373850536350133 10.282630496705496 -0.15097954850608192 -0.46356090111878234 -0.32974269488333535
P 3.968017894973536 6.176655687001984 3.6927146651869505 -0.5713114637329 -0.3079788208436825 0.25991667522913303
P 6.965550464986232 3.980660899974922 10.251771866742592 -0.1246635363193724 -0.4831275103968002 1.0939851118534385
P 6.341122504903544 7.791943246440502 10.071539006098536 -0.9494932279542294 -0.7066270804494799 0.14674134205501826
P 2.3991269313036017 8.287723242989903 5.71792562151524 0.5901021140768418 1.7214283855829 -0.8684327730367882
P 6.863975413441001 3.7190638369739313 1.5807258220448115 0.6624917806931623 2.243731537737897 -0.1678570409877109
Ni 5.318296216765801 2.8825692226882986 0.404183759960166 -0.19278002948163572 -0.8700803359425402 -0.4197673009725996
Ni 1.4743737259962157 1.0052176710868075 7.054822831053906 -0.41471996835667924 0.12195127959453189 -0.48464806080638473
Ni 6.673037303817788 0.8248411399313718 9.194555347884103 0.20346193467551407 -0.46496729454800567 -0.48582356917172465
Ni 2.5317527721207043 1.5392679001048952 9.262605783539648 0.9108965986279538 -0.9078747810824945 -0.6840324829784156
Ni 6.134263906738102 2.0276219270973748 2.639795690500096 1.027853510331688 -0.562851763001321 0.03856037677170133
Ni 4.220680448048121 6.848441039398105 10.399110465865641 0.059472958554652414 0.20476856930207957 -0.3647271813783203
Ni 8.099658543594277 7.078493445744358 0.1688128508707869 -0.588556881076909 0.23911953597812363 0.682737932536708
Ni 7.692873449437449 3.875476126831284 8.156618513712031 0.23497337502023402 -0.20158888602251734 0.03999788054917628
Ni 3.062193279540385 8.242476011312355 12.292319650160632 0.9867585400635909 0.2557476314531079 0.012946275748022864
Ni 0.12703705792444386 4.860095038349071 10.247329754118882 0.1751116656675952 -0.9664545383989162 -0.0692385225818485
Ni 8.739629857126824 2.395741694879225 5.792784243528777 -0.34431905003561347 -0.2606530391745253 0.22412177701771077
Ni 3.5439564218233346 2.654635956384891 11.271848660468814 0.6489142991190437 -0.3156985580854434 0.7896510868511949
Ni 1.0950745965476567 3.2904767427152795 12.411152223944615 -0.2023741009279741 0.16861551642029024 0.25152408029006357
Ni 3.0610439154493494 8.250171363078115 7.73540890021271 0.29796000315509974 0.2518801780779017 1.9061536630808589
Ni 5.5829103605057595 7.866732727020437 3.593911556570646 -0.24276561737114322 0.042043450224295335 0.03923554846185501
Ni 3.025153225825385 8.251581129971026 3.454090516955524 0.6069490104308515 0.24580491841809926 0.5633302452996363
Ni 3.480929964362587 4.4937801313664245 9.335716115017837 0.37132514631081215 -1.0447214897316202 -0.03930265425436457
Ni 7.141097871077927 5.9542537353866845 11.270074329653278 0.08980194855549695 0.44729301719669423 0.3373765572795093
Ni 0.5770651801250781 8.83953473897727 0.16676913784641503 0.05941870827794928 0.7761311979878891 0.8241748316596774
Ni 4.5401228506932405 0.2728356887536442 1.6511683717148238 0.26716615770269475 0.23667955907806335 -0.36021052445488927
Ni 6.051814992020253 5.528333524995512 0.31607512503466484 -0.05122923048862144 -0.09007191438743198 1.0478947452532792
Ni 7.946227416848047 8.743742425515059 11.143212370164578 -0.12752774524104488 0.037922486077386304 0.4559720330279308
Ni 0.16850665309340956 4.868014875288861 5.715454488719514 -0.29710716823650124 -0.2594636468521144 0.6811980988534139
Ni 7.935541922564205 8.84598195317542 2.351414852415201 0.17832683017078318 0.13429283187902033 0.8468951560753285
P 8.37859484143737 1.6591789006649211 3.6170155706818443 0.07032455655717566 0.02452163929044809 -0.18236269080305367
P 1.7057730433866507 3.1826969209598506 1.4475944406157928 0.20151329558957554 0.2202820915566464 0.5927410943615855
P 4.578303289092314 1.0423385394644582 8.218518055599146 0.21387721647156713 0.06490415687255274 -0.10106106640908402
P 8.5053571295088 1.5527729281745581 12.237029849737665 -0.8026436424561209 0.21808071302995344 1.4136452256897911
P 6.344696308874107 7.65680317167426 1.4119794187855377 -0.21255258412287265 0.04877356985927729 -0.0913824056687394
P 1.8869774758639102 3.236690095017619 5.943026782863081 -0.9736885942535103 -0.37689004199309933 -0.2702993040150377
P 6.963224798583278 4.005174680979032 6.102494764909335 -0.6183305127949158 0.3830882003840112 -0.9183299149775476
P 2.4531290847683316 8.459831536215455 10.169935347579498 -0.33902052064083543 -0.44018623094858383 -0.773019906052417
