# total energy = -340862.85737931443 ev
CRYSTAL
PRIMVEC
9.27868611675669 0.00000000000000 0.00000000000000

0.00000000000000 9.27868611675669 0.00000000000000

0.00000000000000 0.00000000000000 13.58029503583964

PRIMCOORD
 96 1
Ni 6.414253778106195 2.076737011739189 5.725656486982164 0.9489131870810431 0.770126643665022 0.07809237342805261
Ni 8.11236471642399 1.532328650080281 12.647818130554917 0.6118762725291398 0.7649533269941987 -2.0112351635032457
Ni 1.8634200135536814 4.454214804043349 10.893081225446059 -0.8290247035528109 -1.2592165422928443 -0.9123675267465255
Ni 5.030170699144219 1.6489895730113984 12.035048119664536 -0.3818005919208392 -0.6118685592196559 0.7552235013009445
Ni 6.113837751561951 1.6877652030860935 3.1342502310649016 -0.08680352804880534 -0.656842809937501 1.6625172130689885
Ni 0.6987249772275305 8.986240671452668 7.601136009128352 -0.849431549343937 -1.344523174081149 -0.5055521579489035
Ni 3.9424210247516465 5.685978968598482 9.783190749789012 -1.6732261148460605 0.448682184234737 2.577939724591754
Ni 7.051291265162488 1.379239604710003 7.989314490102244 0.8567319396600923 2.2084819705069836 -0.8359250302170701
Ni 7.315724546210284 5.933116778371034 6.9981160418087995 0.4755293863345681 1.0921094920972805 -1.47659380149787
Ni 1.6696996008474163 8.22102741175894 3.7563907872561755 -0.5153922839677768 0.08589232908844562 1.9846494425949175
Ni 4.326289555936189 2.147988043886493 4.865521338504723 -1.4772532894587398 -1.9664969400556065 -2.0736381512204995
Ni 0.6354972251294223 1.3206725367436296 8.929166544113004 -0.6820277938435609 2.6385632518110813 1.279444439303945
Ni 2.5854038737456144 1.631981741011658 10.309535364946504 0.7093460220425396 1.052269220171891 0.6202662963650479
Ni 5.626372687765785 5.923429829867091 4.651142858605756 -0.1812172643447008 -0.30969271821099564 -1.084720655832377
Ni 4.212328730720252 3.7269513713430404 6.274911106498936 0.867976659335976 2.592439975090458 1.2694302496010526
Ni 3.1848255665155216 0.639500050402029 0.48330357298771776 0.22694896205386075 1.5143643353784242 0.7711340018836138
Ni 3.4472082578895877 8.74071735309744 12.169397930170287 0.36631432335978203 0.8274517026387364 0.356440772999812
Ni 6.077799333947661 8.915639147346816 12.325163876539978 0.40804872698409084 0.39709454196543226 1.1860185208426155
Ni 6.671199159304675 6.7746472329353935 0.8931635602539153 0.18151396964951322 0.184220827057715 0.9175696397727553
Ni 1.3493715134895095 1.5942731598622057 3.2174438603572497 -1.9696154310799303 2.6297117149577227 1.4430799860111403
Ni 2.3385908179937873 5.642907306763896 2.99541974294176 0.4585688472208296 0.21706127062650357 -1.6015000499556677
Ni 4.202363421627114 3.394765122885478 8.885532593888247 0.5910968738899434 -0.6775553598945041 0.2802255619898142
Ni 3.0016457414533946 5.531581628458993 7.622225535234303 -0.7479269676395313 -0.35006289449792616 -0.03763503674395454
Ni 8.233674261194643 5.701427981298737 9.242178387318267 -1.8471285906969026 -0.9851523719187357 -0.21760068806974137
P 3.603257204191626 7.5271022989577405 3.331585619956163 0.5478326638846694 -1.6190450008179667 -0.49946327144234626
P 2.445898825127993 7.277217998038476 11.197333988778023 0.4067112391195899 -1.3277310422244746 -0.3632451975161551
P 2.499631697528701 3.3371723169812824 2.0967297971237175 1.4642586769712846 -0.4165763048391277 -0.6104734786443422
P 5.85340358431224 1.0754739724091267 0.4979379170302659 0.11636684352821895 0.6984291180197197 -1.3153504091719348
P 5.510565403974861 3.8040108611181873 4.054532607786706 -0.22081868078640682 -0.6217786192445163 -0.3909580900503912
P 7.035990711443136 3.841821507817011 7.495752401534105 0.12364537946750317 -0.9527839828903589 0.19280831161640988
P 6.951582502113273 4.209350272415878 1.5282311822073484 -0.37952310874057216 -0.06810543741866981 -0.29989630094586417
P 8.049390272462048 0.6810611421059232 9.882448568683733 2.374212709180311 -0.7256018217797697 0.20592453728339372
Ni 9.700402599088255 5.053645775499562 6.716420692756468 -1.2272957823248476 1.6433933477553437 -0.0748656389606388
Ni 2.7750787792222624 4.811202980998078 0.4900167025304413 -0.019936591022926956 -0.458755509310339 3.322415243347575
Ni 7.901970504425018 6.549750434239424 4.405067458415293 0.04543679217656046 1.791687893230095 0.11962571678514883
Ni 1.9232397041714266 3.49133768996311 6.718742220070345 0.5020289752869935 -2.1806752327073604 -0.06266164069527919
Ni 8.122719730341998 2.552473816043989 2.7484480216540925 -0.6511190200798465 0.10939375464449547 -0.31445054461095523
Ni 0.3998223044198695 6.845174527550794 2.511865645423768 -1.768703773630096 -0.55348831950855 -0.8317397884911288
Ni 8.804480485395429 2.500114189216637 6.593627486045412 -0.1596858180308282 0.038312779537269505 1.8574004049365558
Ni 2.620254619512677 8.749402203480285 9.31526752722288 0.4276886127022054 -1.8713033881708934 0.13633351645813294
Ni 5.4589851867972525 5.372563502538887 8.301688887558255 1.2302409809961006 -2.075810733391786 -2.4631988467027317
Ni 3.304483505123625 0.5942905792424349 3.236564449228971 2.455845234551138 -0.10407414220379495 -0.06439842088072781
Ni 1.0087138244341494 3.43158295014951 13.17457008004126 -2.012662639978392 1.3285208851156218 -0.46303305363977026
Ni 0.9189434622877828 -0.22491813967447416 10.710575033009778 -1.0881481934566872 0.9221642011219731 1.3234702100655915
Ni 7.503005550619865 4.182989524619226 4.9811031502183996 0.21578291813471226 0.4679222634112716 0.3979157523151469
Ni 8.953004417102928 3.518505683468424 8.771485476889659 1.085544694395569 -0.12507516993549428 -0.30652331934407856
Ni 1.2842722503633885 6.106767392596428 12.850679905010304 1.731573958657334 -0.22207132224658527 -0.26842368425887964
Ni 4.750214175905718 0.48871954218479824 6.456710263038662 1.140045653656927 0.5724280938358465 1.4731462092689018
Ni 1.0312888682177657 8.527289010676254 12.94936801256581 0.17401611861057126 1.0619653644137323 1.3901725964891476
Ni 5.353300949766677 4.4761867332170455 13.596863506958115 -0.977033085245711 0.8088970795650003 0.6979447221841334
Ni 4.985697955677359 8.470169417773688 4.518218254316676 1.5342772722522673 0.028150751402603133 -0.30763737834386373
Ni 7.392403609846865 0.1427961986505223 4.508400476335812 -0.6780371846269291 -0.5396444716469222 0.7723904999985343
Ni 8.710821425818025 5.2100937053127785 0.8173548373928785 0.08858735942210551 -0.16485887759133544 -0.5193810934121958
Ni 5.968292278158823 6.564614889702373 12.243437207552683 -0.7162160096894955 -0.9334444020214827 -0.4985957812357284
Ni 7.747331918441561 7.678493344733936 11.09140757803485 -0.6932038650650385 0.21682704312851045 2.216011703225125
Ni 6.545927615481164 8.532596419243548 8.219283946601955 -0.24200971304172514 -1.8526631473618866 0.8504844160884837
P 8.532735599538146 3.444879307626666 10.880016835126563 1.6339594560359536 -0.2684434817532216 1.5212533491887734
P 4.452247722546379 0.46960359265623003 8.626094957547851 0.43103670323883186 0.19762090251370482 0.393420949768587
P 9.04310973982496 2.691180897639254 4.636842547270241 1.3860290066344194 -0.9323766228786007 -1.872645761131401
P 2.586452365298244 0.7547905113656822 5.582343465504373 -0.22424570419008477 1.2286756933915097 -2.8710336579038036
P 5.208256525424099 3.6588086991084006 11.573575439818656 -0.23320908403095963 1.2028679882997864 -0.9382317961077972
P 7.754058966013744 8.609600236900857 6.539577282573022 1.4929624726638804 -0.030135385932799713 -1.225902758632063
P 4.273577339029192 6.534858142717557 0.2809001656358679 1.410371440034526 0.06855075248620453 -0.3253448229259558
P 2.117656018350676 3.4363985883425623 8.836222871249827 -1.051015293160132 -0.5027267726849665 0.8136999002702825
Ni 3.600733401516269 5.363535340762702 12.1121020422279 1.3352785155544293 0.9739055953603228 -1.6828952625047082
Ni 0.5698755719642477 3.991087734429027 2.4423209636882226 -0.20779218661975182 0.9831775075805519 0.5464147004912203
Ni 2.5260481174431915 0.9748837341607974 7.608523699165555 1.5544504047660326 2.4227646499470854 0.5612386528779302
Ni 2.679202113617615 6.098778443686566 5.194001679651486 -0.48301592451960046 -1.1964898526875845 0.13492429481543214
Ni 7.325893986402163 3.754546184418451 12.739213190673544 -0.19374779271154374 -0.7004636319512453 -0.1342555508831817
Ni 2.500819369375928 3.6590221088934487 4.206835748426827 -0.02825668085284811 -0.22754880042138878 1.2053390755480984
Ni 8.736476993455387 9.309213184407916 2.521330833324988 1.070116275655641 0.7201071172137857 0.5789214148696739
Ni 4.83111504181174 2.7525594075564848 1.7166311961854894 -1.642722289830248 0.5835946519756272 -1.038704851223895
Ni 5.333954888817708 9.074332519246195 2.018874196063476 -0.8201381996964584 -1.6658267370581956 0.33806509870610163
Ni 8.604181484097884 5.432132668626358 11.833978059534923 -1.1489966922026276 -0.6715821730302046 -0.6811574754234655
Ni 4.411375109366424 7.544527671841272 8.193847355961427 -0.19113452345841278 -0.25786236380326555 -0.4422608540894255
Ni 3.1933248431722383 8.100710686423076 6.146170261865439 -1.067486808452594 -0.6698762460826915 0.5372340624332167
Ni 2.6499649730659605 7.60598968993526 1.2661519038755034 0.3846851125574859 -1.2457159367032482 -0.1580670514804826
Ni 7.834069078034345 9.06132380104454 0.3441093603613631 -0.04438958185896871 -1.4518050245889642 0.9306444706788425
Ni 8.816709793947343 7.882216181278564 9.26454558852862 -0.5104920184526821 2.0952346464443528 -3.8100537542408515
Ni 9.519561002975356 1.8027466837957415 1.0011192196923122 0.6293487182822903 -1.1242487958339864 -0.15325677457603284
Ni 4.846972316709479 5.622958131205007 2.2530385466423373 0.08207784043836186 -0.4746940349174663 0.29182123724721354
Ni 3.1326515134142983 2.9729374860212086 12.524073858497447 0.9633339904920635 -0.3270810888907722 -0.5190347658163705
Ni 0.6483148023931657 7.5225186279223495 6.053335149632049 -0.6348904740361259 -2.703902182228208 -1.4890399976810225
Ni 0.3156451343790368 0.48685174263130787 5.302005588258676 0.4508213420649268 0.4885394254409909 0.03915147338848096
Ni 4.922575052734513 8.052489353688406 10.554170713022204 -1.1968078981486356 -0.459145545659906 -1.2212153804587227
Ni 6.76448707142982 3.481632184086553 9.816761036845781 -2.2304762153898876 0.1742223210841064 -0.384793356000576
Ni 6.059529600610241 0.7506197418709287 10.076714568144817 -1.7467606937001015 1.0850201893506668 1.072985626783636
Ni 0.7054390346388846 6.422910792430121 10.356943884760728 2.658948757445969 -0.05695636278038579 0.7703636993764926
P 1.5742033613813335 0.02853381612962476 1.8879194568772573 -1.059395289693711 0.017993351253627075 -1.780955080193623
P 1.276209071963075 6.636496872518516 8.260254913856759 -1.1612186881901163 0.7752768204073939 -1.041100090928949
P 6.256896537034945 6.704231282555671 9.639103885873261 0.9890252246105805 0.22341703764120233 0.858056829119103
P 8.727476667738122 7.044703397884902 13.215189385085049 -2.1997211935952183 1.5238591622427369 0.9177059082403035
P 1.5393618943005776 1.4508339482506458 12.4744514441305 0.19850716177340005 -0.9484192781637601 -0.4344107619173873
P 7.102982826575776 8.044027191776916 2.7690634068897846 -0.30270703092178186 -1.473454998758572 0.27674634519196206
P 0.4055611719004148 5.390619826091258 4.448877703679873 1.2067909775032764 0.2873662867996535 -0.3249522154732275
P 4.5815926096584265 6.2773838763996075 6.358756099569998 0.20915769950871074 0.19994492266119113 1.0143135668637242
