# total energy = -381165.55686451384 ev
CRYSTAL
PRIMVEC
9.27084009009203 0.00000000000000 0.00000000000000

0.00000000000000 9.27084009009203 0.00000000000000

0.00000000000000 0.00000000000000 13.56881158273473

PRIMCOORD
 96 1
Ni 1.9504735271542395 3.039259541451862 3.3806693566774806 -1.4630605428981256 0.2889539430017475 1.171991353325588
Ni 1.1649088831469079 2.1186372974693275 10.811384982199492 1.159040449591875 0.3235838743707911 0.6381233791511267
Ni 4.936629695963463 8.048720957995032 8.39855147737067 -0.545972470747479 1.0976797870962063 -0.37000719883033695
Ni 8.775805142046051 8.315127821867042 13.043196988445404 -1.2768568810824268 1.0955627407532034 -2.6955283563422157
Ni 3.3497028962548305 2.1152719824781827 2.000286678611321 0.0491054992773993 -1.420800862897966 -2.743655807977062
Ni 6.709548091684074 1.491761625096781 13.43928343789492 0.7978552199285421 -1.4689643099770702 -0.8662033694856373
Ni 7.120654229335118 7.600679793003161 4.3373115960735005 0.08974872672005833 0.34981632570475885 0.11705512784449518
Ni 5.121453166110747 4.6244156106830605 13.172276750662231 0.09114972083264301 0.49010676992811075 -0.5360017326880123
Ni 4.751546642290691 2.02108024608691 3.7061036600773667 0.7482295864816146 -0.7681060136905674 1.6591274706611492
Ni 6.204741572172146 1.9585669706453401 9.5643837362011 1.1053036221900512 -0.5448129032217391 -0.0881495005537385
Ni 1.3668648659763847 6.498831164869387 5.983492970894813 -1.784472092207946 -1.7732155454575202 0.3152524716869603
Ni 4.550211805754345 7.255971412835808 13.361439901105259 0.6079779659159981 0.9988422107010023 0.3554424136422846
Ni 0.8096966410374973 8.295964995181928 7.6715349704530835 1.4214431244676553 -0.7179288786155443 -0.5799508845754529
Ni 4.2045299873664135 4.189233101043028 2.850644297664417 0.7239915398698563 1.156835471520756 0.9201548840014282
Ni 3.3695981193154276 2.296396387387267 7.561939733076172 -1.2675109210911526 0.6102852738929361 0.12172013742033232
Ni 2.476334124751264 7.795246916196432 4.5172613855297525 1.4227209627388142 -0.1391175069611733 0.9251199413161875
Ni 3.382827608275108 4.897627271258926 7.260630010034294 -0.6648656802419775 -0.4358474943639139 -1.3587346896948405
Ni 1.053788592557755 7.8323024644598105 0.9395115808818669 1.1379823433699952 0.7455155299845613 1.1405022815783712
Ni 7.152981649098541 0.8226109214305133 5.482288172799027 0.42619814419960794 -1.4748156265515244 -3.3137801933803956
Ni 5.9614932671097245 6.62014937967413 6.528280915835972 -0.015439731593837923 0.5898576021662034 -0.216748110261459
Ni 3.0485489233282457 8.7664415934481 10.32742580103629 -0.11559859790362671 -0.010633054233813945 -0.5923929669935475
Ni 1.6743230102362436 5.923176884579692 11.049612200211765 0.562257838171064 0.5161433032011886 0.1642171302422785
Ni 6.243289725707079 6.20575209375351 9.142882205438292 -0.875816467095369 0.10552295883517955 0.6922116763550982
Ni 0.4307445584382114 4.937983238632078 2.495996649722942 0.059777891389580916 -0.036403992550330846 1.023514516636702
P 4.096608136644878 5.930473035813938 8.86503419768041 -0.14449394078173822 1.0466433893446812 1.2715236417949716
Ni 1.4869871423958454 9.320439191039958 3.0683013754498245 -0.3187504575378897 0.7626028244841512 -0.028239454461667493
P 4.731002460416374 5.121777645517607 5.276205738998315 -1.3202894983447648 0.15059131192872774 -0.31241268824532004
Ni 7.557607469452584 7.50169503223056 10.693458040738443 1.0804297417665072 0.15563684477243517 0.08807725255490638
P 0.9823474980074451 1.6569031015079756 4.860606025104274 -1.9675775747142956 -0.11527438179498856 -0.5861259030379132
P 3.0500415285997997 0.3164109946371278 8.24848067878208 -0.5307780223952278 -0.9858344855874247 0.37232247722707495
P 6.262035364583374 8.196461067358353 12.604638965890011 1.2012425368812214 1.2714233687716812 -0.8976209645649703
Ni 9.176759709682482 1.9546917594434157 12.880072846860857 -1.178163543574571 -2.8145858593287203 -1.9063927756748587
Ni 8.270099351035112 5.4685163396878815 5.967482229876335 0.3623890201634469 0.38507540601736906 2.0224402881904457
Ni 3.0520903842831144 8.919716394408425 1.4596511429939452 1.9147403763086057 -2.08126430030719 0.5268133813205249
Ni 4.302142663790007 6.7088156953085925 10.981618931130345 -0.11553406321427845 -0.49364255099551113 -0.484664515866617
Ni 8.001588006438613 3.176115684425087 5.086255494222647 0.22790592665049136 -0.7337699594128588 0.5399344920835152
Ni 8.127782683186448 0.5773693857259526 11.169275570041526 -0.2596171417108432 0.1534714616900002 -0.06092768872330798
Ni 8.107461001476834 2.9406919684880815 10.79066558144547 0.06442130369886324 -0.3834108738307526 -0.25850333982137413
Ni 2.697693976110951 2.943473220546879 13.111705716241723 1.0777380538669568 -0.2047179185698023 0.371092975695348
Ni 3.2330479140686705 3.402741373016097 5.462138928717059 0.5986199217398658 0.32480129171766 -1.3186555622857679
Ni 5.326403630323529 8.691681538107625 1.9817932065883572 0.7749104382069106 -1.3998646269659312 -1.2906603626244224
Ni 9.25630351856409 2.270030117869867 8.652315696467406 -1.3386795708161783 1.8500989861791366 0.3300543125864832
Ni 7.622966892834324 5.172924870878892 3.952893426094658 -0.684139440869925 -0.16853812621513556 -1.5770686563861807
Ni 5.684897749862321 8.844678213862071 10.477727443545762 -0.28009854949364665 0.9314867640744796 0.8133579435498314
Ni 8.698912793460497 5.2138370886638015 10.41757730527015 -0.935544479083621 -0.11572766728232327 -0.3027342846152915
Ni 8.066743471336041 8.028658859810909 6.712463770925714 -1.944271038777871 0.5036012048701197 -1.2847658515168583
Ni 8.609606789852513 6.398427965546799 0.8581349268935131 -0.340599177981865 -2.0481580046715244 -0.624471335585331
Ni 5.942627107310882 4.2367739695680715 10.70208826587689 -0.18761159790681883 -0.24574192639064774 2.2033893864754246
Ni 3.1764494346721426 4.303255164613526 11.405074755006467 1.9187171015681663 -1.290317891683339 -2.0414664515839616
Ni 3.329436839586393 7.230513685657615 6.759154503404785 0.8846420358067991 0.9119124414869779 0.6769200403033504
Ni 2.1504548210219703 6.720135391187897 2.593773420018005 1.3033407863055684 -1.3441783891472205 -0.9958450757458915
Ni 6.568705487426573 6.215820226206357 2.1957326774551724 -1.5083037310066412 2.269805094896497 -0.828192951680135
Ni 1.493597251455587 6.070916993943011 8.409420610416452 1.1818800731942096 -0.5090663417497491 -0.6385563529234873
Ni 7.529331406854811 3.8513387884197288 12.864020387061498 0.1309380564741745 -0.14183927676771058 0.3586848318389823
Ni 7.138695284356517 4.1143525247800055 8.788329120066816 1.3293729487032717 -0.9443065415469672 -1.167486266366383
Ni 8.538907362517882 2.734990566219424 2.765106890596102 1.522821722117158 -1.584047401696859 0.4297519229891373
P 5.199077911071784 2.7443726564977675 12.256232447568477 -0.031787833934558155 -1.559208231165992 -0.3637679027888445
Ni 4.3443713408827485 0.7869181866759464 13.32390783165581 0.39585989822738277 0.33868936255366183 -0.3260799013197674
P 1.614526090972099 4.88367465676396 4.562892460974423 -0.6768429072085117 0.2781283131411532 -0.20534681040305278
Ni 2.381206033500196 4.354022285526775 1.4102477626735264 0.4926153952825774 0.055690865804400864 0.5965638105417854
P 3.9793783623665666 8.831736120948468 3.4877818630499062 -0.21063865492961142 0.7381727164662448 1.0095577973462937
P 8.916712642184924 0.8987551132122494 1.1982876161885552 0.2704641117276761 0.4951340479393731 0.859724446629513
P 6.461108116111897 3.240974482436243 3.310831190397058 0.43732382179912427 0.5470343363530902 0.7204966393427205
Ni 0.7750338966287049 0.4001322441110478 9.456023374738294 1.841378832697319 -0.16580401511342413 0.03072982498368901
Ni 2.145671067480839 3.910032477700551 9.23979122509101 -0.8540392233192774 -0.834469528717466 0.26325859511817246
Ni 2.452378273684822 7.923110344179546 12.478815122750017 0.265199263784311 -0.3805227536496802 0.8794260388234983
Ni 5.8551660009018995 4.271966078952055 6.675366503881454 1.3642047116704765 -2.0723844813190566 1.2477247396031608
Ni 7.912523044675724 9.021315532116295 8.984221973408115 -1.1979173291627305 0.3773530976724469 -1.538471255728957
Ni 5.687447230916219 2.9186088271412296 1.2775004560751646 -1.3256872723215687 0.05355325063610777 -0.023520194609127236
Ni 8.32819970654339 6.484183237359719 8.265889462502113 0.386618839245089 -0.8558611070193648 0.2985395298076536
Ni 5.102012214219753 1.736502535430758 6.310189035645373 0.5153002384746028 2.7757940832725034 0.059844997182090486
Ni 1.9473585248483862 1.0015566788935395 0.29717863665054367 -2.463662930823344 -0.16654526415482285 -1.1594371708096614
Ni 7.436502483972349 2.0812016447579142 7.174074664712459 0.3225163523382252 1.9840989694080862 2.1885258391000306
Ni 1.0300923250168008 3.558537842509733 6.703726004040993 0.09769780636380593 1.2885332889790906 -0.851868955140836
Ni 0.599001964239279 7.4877609594159855 9.85814884949148 -0.9391123989405376 0.8044896945259242 1.4988847516855863
Ni 3.0105199368442888 1.0035684512160694 4.943050679883206 -0.13069662988732975 -0.15789375912741194 0.3679767986638695
Ni 4.844700044580012 6.537249526641575 3.8124429783774474 -0.48856436514165535 1.5049307007693502 -0.5443624459478819
Ni 3.961430015747127 1.7603378655746518 9.7975509296344 -1.5086343748731823 -1.4980936232428586 1.498935916638496
Ni 8.461319700917631 0.35936743268525395 3.524472140209562 2.2627469024981353 -0.6619626476625695 1.0691359140202426
Ni 6.6917017243067916 1.0572929701518397 2.608468628812671 -1.450442597023799 1.546733238627433 -0.6558771035901221
Ni 4.948338767131 8.999825724541989 5.6748574299300625 -0.3602560329808441 -3.306267429943119 -1.076477184876662
Ni 0.49283693773488346 8.614779918681876 5.315798716223335 -0.20697483292477903 2.00699644283155 0.14979581261062588
Ni 0.4639221142476059 3.3009104643033274 0.7700044658223796 0.10921814829857963 1.310020255208273 2.3605850910945474
Ni 2.8853635941984046 5.588369761741659 13.20461158709781 -1.2117341804411648 1.3071442192120586 -0.4135370037921717
Ni 9.450416370587758 6.907193133822416 3.8073542141938677 -0.8447223167937258 -0.020215555715926474 -0.18896425527997132
Ni 6.800522846527339 5.974259214059605 12.125578496686371 -0.17327409823822418 0.29306333718443073 1.119879206011381
Ni 7.507563474074622 4.348839885857216 1.6577968105028693 0.37288940547413846 -0.376355509645868 -1.4328125426468614
Ni 4.529065019267289 3.7178757729582372 9.0329615615705 1.1569095192918013 1.5665016795036117 -1.1682413993648526
P 6.371635237380384 0.22847985663020814 7.362396949949711 -0.025452378634833583 -1.1640363601445696 1.3342888979476504
Ni 1.1574273151087429 1.302914610304436 6.994545771401105 0.7970867171936337 -1.6601957640246634 -0.6201135728372675
P 1.137856571455005 -0.016468720524159132 11.606639508379674 -0.9597789261509536 1.2946877386162605 -0.34812196872147144
Ni 7.692526006824847 8.436844682800213 1.518526540742608 -0.5001644112744289 -0.17529010022698843 0.7017802938801397
P 9.125797901125118 6.335052501967002 12.211089018318116 0.010142744860956726 -0.4784046509998341 0.5418908444789376
P 4.355116244669902 5.738130914267704 1.2131478459387102 -0.04965211580948868 -0.27786066130206344 3.079357805767626
P 0.027484332845036118 4.4342335949024925 8.375891689763629 -0.19173461893625687 0.4701951186058483 -0.06714538749824564
Ni 0.797421121533985 3.9261915521621638 12.130178687591622 -0.20925103055346542 2.0835034740503535 -0.17561097390151692
