# total energy = -340869.90651973395 ev
CRYSTAL
PRIMVEC
9.28059503639461 0.00000000000000 0.00000000000000

0.00000000000000 9.28059503639461 0.00000000000000

0.00000000000000 0.00000000000000 13.58308893268654

PRIMCOORD
 96 1
Ni 0.9763650020932438 8.86652273936457 5.836530959834922 0.4409986995475502 -0.3740965384083622 -0.09944641362379647
Ni 6.316428673681615 4.5956207397608955 10.739360741074751 0.19753965565380818 0.6010046199219585 -0.003123890340962362
Ni 3.714688096552922 1.5182775081740258 7.929195632283968 -1.1062094218337721 0.4033914307177376 1.409547915691966
Ni 5.712234094229341 7.003276232637167 6.986896910435804 0.8981462409408209 1.1478530655164876 1.3202763857186424
Ni 0.8070990131794274 4.1961096841066015 5.489550856334504 -0.6024819757984333 0.561370293359788 -0.4112057845558338
Ni 8.085755558516677 1.4629930034692167 12.928832228535772 -1.806328268851089 -1.339580228253577 0.09926386529934518
Ni 3.9869436329001235 8.030814435828669 11.988624424752068 -0.19932143014457931 2.0821402751542397 1.3598567191144257
Ni 4.1722307130464245 8.484357115856202 9.44381937018734 -1.0055448195321586 -0.45377219716313466 0.3218229258156264
Ni 7.81332369086355 5.558380389512818 3.621129489807974 2.1030353734356946 0.4975100043707174 0.4870882948167612
Ni 7.292041947575918 2.612292613699008 1.3138445604423594 -0.8331240704331652 -1.7553178392414932 1.8125747639814331
Ni 0.2726907962549838 1.2447319691150613 3.934124054240236 1.9077284637671466 -0.18260925959622099 0.1596300250922283
Ni 1.7710530755141114 7.330231596201114 12.990988085814601 1.6083055029132753 0.0883274208924995 -0.015707126322611658
Ni 1.577014394236933 5.311989871566204 0.31500659743880927 0.09777828189275418 -1.9615871614588154 -0.07925836871169575
Ni 9.178276488238827 6.947963886147211 1.1159200940183114 0.372204720702288 0.5009578537100018 -0.6834074477999069
Ni 3.659867621600545 1.3372316599649579 0.7753092628997811 0.7713726002569812 0.47968506037415454 0.23209939590654868
Ni 0.2848613686017837 7.997190839967408 3.5260609302486112 -0.5322852030683736 -1.0323334004799123 -0.3652617137255516
Ni 6.714315625202394 3.948243551547252 6.119534353307967 -0.8655878473888255 1.1859604139111704 -0.3460938825478491
Ni 3.4355277974895237 8.393221672478457 6.98200696490467 -0.13792785752844633 -1.4829197437158979 1.4246019818116111
Ni 6.189692867697248 9.579151791365272 11.868441646931553 0.5622953762772187 -1.5109884769276556 1.194101812071382
Ni 9.155455505014196 3.4433049361402928 3.29700934803139 0.5135128075568769 1.1163729926303354 -1.3407423668824778
Ni 1.2891767388030473 5.096104669544503 9.374749469597266 1.5667245941476955 0.976197476718293 1.1813668810032172
Ni 4.671675216184584 3.363649588837728 1.9818952021863756 0.252616542023294 -1.388239384022177 0.20750165196252648
Ni 4.991001930618539 3.8379251182039473 8.462427069756243 0.3436189386447953 0.2351214705623241 0.08139392699745981
Ni 0.19897410172405045 3.104479691509123 12.681403212003213 2.01717286914392 1.603110074755265 -0.3845097633218862
P 4.451121874853412 0.8563901096018184 10.903784115492183 -1.3340073621514896 0.28006975313824023 0.6062604690042591
P 8.049459151281406 2.843416552790593 4.950655471704038 0.2636694574033459 -0.2491823195307644 0.77133017705482
P 4.503882057704988 5.490195857690385 2.210634028350457 -0.3448057598640449 -0.3846432035759569 0.23567348641105218
P 8.767433826030132 0.13736858373160557 1.9835109537843456 0.19442630683580708 0.772000206538651 -0.5743890742169592
P 2.562929128635238 3.352540716564494 8.629947378741408 0.42606778926933075 -0.1661904519185654 -0.3183503938859937
P 7.165204055046016 3.6610276959816264 13.188269407001778 -0.0770706170317576 1.2739736459973607 -2.111434396132667
P 4.714059693771769 6.095337057837621 11.847604854928324 1.3738687171228017 -1.8389761367930977 0.44402360241680305
P 0.6256837972874232 5.495606444603749 2.639397519598096 -0.010836171383555531 1.1332121756748612 0.6095185709302405
Ni 6.270007137248266 7.353201068946523 10.82277472937202 0.3348956998391845 -0.9084460802049322 1.0717309284409284
Ni 6.942247039597243 9.090398533723159 6.380574290538875 1.7926589988941126 -1.0414070806464064 0.6092601750625314
Ni 5.419097219022676 2.3112393909158446 12.976767430021553 0.06372941983816122 -0.14003153413501043 -0.29898690175771736
Ni 8.22241232060805 5.481240083468438 12.294474787115881 -0.19512898932978653 0.16589528927564978 1.406934646438835
Ni 7.316533437909305 7.80548158804744 2.2377055241073696 -0.755576256654673 0.6897742705581992 1.2419171317824484
Ni 9.170601436133593 7.595981435419211 8.014891718903698 0.6245911489926469 1.0085730648355211 0.27434364928774047
Ni 3.1768404911034485 4.513004882637811 12.122431116104002 0.676943437342118 -0.3579548956514932 0.833143867927507
Ni 2.2459225629634445 5.981399192425343 4.261748548707191 -1.4911747846358383 -1.2789050218607072 0.5580157750652583
Ni 1.64634043925035 2.3633220903288694 6.6424290640150545 -0.584825696169251 -1.694696111794378 0.9704477187187093
Ni 8.79390208310888 4.455112530724331 1.025242183976465 -0.49301443049320903 0.0865171071566381 0.4070699080105893
Ni 6.236188648890985 7.085994176305786 13.656981219636332 0.17564157002913622 -0.21681701582618143 -1.5403759289508376
Ni 0.9991024599624367 7.9208301039071145 10.835392626400164 -0.28937097593450806 0.6000180876389731 0.13317645888639
Ni 2.2605395001650685 1.2725551930709147 12.544824406910248 0.6216516067483486 0.13284427235795188 0.028935709197743714
Ni 0.4765604118671972 9.149339592877135 12.893488938411997 -1.0797149750876696 0.2700411652576446 0.21169743521142895
Ni 3.010253809980177 5.377019001072096 7.634185004936979 -0.10292485909070015 1.6011280113282296 1.007330964898304
Ni 6.035421536203535 6.413243841229134 4.7999785146726675 -0.3723494738102684 -0.5067760030536756 -1.6989425457755578
Ni 7.02525268171237 2.2133940773179255 10.873031935738975 -0.39824588196105604 0.48242585634408525 -0.3110186361112708
Ni 3.3027596047235344 1.7707282546874086 3.149306821713113 -1.0247537883604416 -0.40635925509680987 0.6561139021912764
Ni 7.811216995787507 9.065758553868992 10.150832734124103 1.9278969682952216 1.0863484212437873 0.8858491687410227
Ni 1.239145050895774 0.4850595808127511 9.028828281991897 -0.7524814197794331 1.6140485760446397 -0.4997520063273587
Ni 4.834902321900244 7.547128383083117 2.6220112528339548 0.8275974841879812 -0.19893062246406384 -0.788791567064377
Ni 5.639028760485588 0.8379783370848013 9.078868322434715 2.1274965918018522 0.5262076294157261 -0.08069921492328037
Ni 5.112856143607317 4.641049252524038 0.2007105010576529 0.11310025696180522 1.090742950767057 -2.410846301242945
Ni 8.465888731709388 1.8425414991738636 8.899966291681885 0.8971833628069195 -0.4064862675929773 1.7201004108000957
P 1.137374045592276 5.059195743036021 11.684268238191091 -0.6920751507772339 0.5909333517288855 -0.8670268938281971
P 5.41914362199792 1.2857800410152413 2.7945579320974687 -0.0075937531868578885 -0.045713957097347074 -1.1585234007461402
P 2.6115037631198725 3.0667355114462627 4.741802176550699 -0.3875099836007907 0.3229719518184051 -0.5116456724411511
P 7.025790956225192 7.738893318573377 8.814106866589299 -0.741122286012872 -1.6682374033822172 -1.9874676287700033
P 5.070471666020131 0.6932669465507035 6.553609129101948 0.3265524700808118 -0.12111824217027528 0.70539577914554
P 0.8804686134555413 5.787314108172921 7.134775768060006 -0.4097636527926685 -0.31060777382609733 0.5459110213819244
P -0.2311462125197012 0.8847395432969302 6.968681886533818 -0.21385330521216717 0.6136580470199109 1.1144467221418999
P 4.33748098848269 5.849698268089948 5.900806505022865 -2.2636730138568306 -0.35224447553027727 0.6464990048093318
Ni 4.587045469935942 2.9453546088049665 10.585368755492004 -0.5702575685470889 -0.3138597051044917 0.38992887745492844
Ni 3.091802398672667 6.401587413848029 10.441347841229526 -1.3673969933555288 -0.01619177926851405 -0.046010662402159466
Ni 6.951611160001332 1.9120624366833023 7.330113732643996 -1.2034919950370306 0.9679987429575846 -1.357535784290733
Ni 5.73802486786954 -0.031726642233315554 0.7688731702335422 -0.20999022271233514 1.1694619020355148 0.8785909445167127
Ni 8.770561386561527 6.2690883583384505 10.225240832986161 -1.3432741321653963 0.9242599073087372 -0.6452749025942436
Ni 6.658576371340201 5.483810808296914 1.7530737787263613 -0.5338378922674741 -0.4360053600980168 -0.41862521694835647
Ni 1.8073123603691876 9.37488589434448 1.5910280927603948 -0.7456857370138383 -1.2119856343303386 0.16022472125343376
Ni 2.434485693161919 4.261519318009488 2.5840332017758687 0.127965861219728 -1.0833119484103084 0.08582573751656832
Ni 6.647402534901627 3.5158791894207373 3.376714810547218 0.04160841956940576 0.29639805798461855 0.8012318497102587
Ni 9.068765466664754 6.504277198061343 5.488695185471018 -0.09447004345512763 0.732870330416725 -0.39496206900346176
Ni 3.7610168270357835 3.5864488341706733 6.476674852267648 0.46886560116114734 -1.0303716487678511 0.14156056918502716
Ni 5.265809630604121 2.183046531508839 4.981149650914892 0.31971333567179133 -0.8146195838710746 0.0852608661520338
Ni 8.765067274292726 3.802324755597325 10.483319332337047 0.04879413868456758 0.13606894994283664 -0.7049502069676892
Ni 7.810326058662836 5.588189660809083 7.5122630436043485 0.3428892595676224 0.7278443379570433 0.5786604478988034
Ni 0.5173393465109662 2.143947384568876 1.2756669765907271 -0.7327620869736349 -1.2203152372419563 0.38752283911659713
Ni 7.303549885436244 1.1156852949635805 3.849108235237571 -0.6733030123760534 -1.1979659230124788 -0.30152920856359683
Ni 2.6166916157520683 6.71833412285846 1.9490242625835614 -0.485516322343951 0.6565903276070628 0.10289272030118408
Ni 9.627874915370684 3.704702176280574 8.042356711890674 -1.618327920146284 -0.3216396061602267 -1.2167218634637433
Ni 3.1441727965321995 0.9219370963114251 5.660086430650975 -0.4382761584100645 0.4001721524494915 -2.689945977158432
Ni 4.585356401637089 4.300804076850425 4.446927045891422 -0.5597569261260812 1.364912022150146 -2.2099912080626587
Ni 5.2972430060338995 8.93410403250884 4.488681371074804 1.5542943388041426 1.261241543142673 0.08071284177003518
Ni 2.1422675968650706 2.842804033517382 10.810780488331144 -0.5838540762846008 0.7817575430357311 -1.5694178247091424
Ni 3.4420613364037735 7.739505837846587 4.622583652555739 -0.10657788246225516 0.13770751398752415 0.8300372039777254
Ni 4.977944133385089 6.329133808303217 9.040319514781137 0.7849302843367578 -1.201207312767912 0.20948705782367147
P 2.2556115041942353 3.150455759380136 0.5945845232793964 1.2038943726817717 -0.05079959915037057 -0.609979312616743
P 7.437710167459531 7.945804185183032 4.637959742432343 1.1199002890573038 -0.0775987216210857 -1.0613621836120946
P 2.129460375697933 7.9431035320238745 9.048076236122798 1.0033406127919882 -1.7990109092540694 -1.0788827089943611
P 3.6947626589834694 8.316851655823116 0.8822959626206205 -0.2132956329364843 0.5040992275524608 -1.4068042915085577
P 0.5219647950832135 1.4001540943948063 11.025732990550456 -1.178273329679558 -0.6192671656765721 0.0215692415303435
P 8.008327554025788 7.875512958284555 12.481051869973943 -0.6625316327921622 -0.4507714626635979 -0.3809235886325246
P 2.0895723781788345 9.145358217601265 3.797084931632858 0.6722925688336681 0.5622922909534253 0.3752172822763667
P 7.162791100333367 3.8663051778627198 8.567940939042861 0.3220514968866647 -0.8239709431789873 0.864949185363562
