# total energy = -381167.74806623376 ev
CRYSTAL
PRIMVEC
9.28968274585703 0.00000000000000 0.00000000000000

0.00000000000000 9.28968274585703 0.00000000000000

0.00000000000000 0.00000000000000 13.59638971408452

PRIMCOORD
 96 1
Ni 0.46108317763936285 9.168712361916816 13.060786531371605 0.21056666404109542 -0.09902912358071977 0.3267023653951147
Ni 7.233782950684823 8.667153108182436 2.4009732793844814 0.2918934852460457 3.9236723455999716 -1.1705970440812226
Ni 8.263293446445324 7.381535352578571 0.3533665208849731 2.3761963152692434 -0.6033237549734384 0.7731566887405974
Ni 1.8042514459733103 6.512355488964199 4.643425556795037 -1.1477219392552622 0.593985508291648 -1.6227317056409343
Ni 5.91174034957166 1.2712837753384112 9.222648259143794 -0.5968792848996752 -1.192412083073785 -0.009277568647184023
Ni 2.3920746924134644 5.597043061514282 9.212559663830584 0.049844948546585124 -0.5761572218609755 1.173564611349979
Ni 6.922615742018809 -0.24890775582150682 0.048577608298194505 -0.2358020415691165 3.2173445415584654 -1.330411160159799
Ni 6.219024470907176 4.341161579941343 6.400092461541039 0.13657134350055192 0.23405163453691308 -0.13997625541704278
Ni 6.881369551235518 1.9191833992099934 5.455251848950634 -0.4450088491482078 0.6219200299183869 0.6234313243565909
Ni 4.315847194832229 7.378999269226354 10.220038748315938 -0.008893702945204038 -0.9430261321726469 -0.5905129763620152
Ni 2.1034163847086917 4.557341783931874 1.007402909087961 1.3436615974118022 -1.5641658322815835 -1.308331040431308
Ni 3.312004092119979 7.340372768938759 7.937667775766896 0.6000615392823988 -1.1109705906678415 -2.0913988176380305
Ni 6.403433960375442 5.866007242088295 9.162199365439752 -0.08758925717489432 0.6711332584182441 0.007008827217665349
Ni 3.2031290119442657 8.497309841044846 3.398431583239669 -2.3939148155949286 1.4179510521539966 0.5908078818946146
Ni 0.6557847064699733 1.7435526598070894 11.30890567110568 0.4594563920321055 0.5932244617559074 -0.0591957936338658
Ni 0.7773727172958969 6.077858453983103 12.470444851976191 -1.9837307874353898 1.8287349186810633 0.12197159130950608
Ni 2.4745577842974367 6.537521239151572 2.080002668661348 0.025429752927014267 0.22975352138219138 1.7478179313200224
Ni 5.466578758955603 2.059949959781886 0.1597463111100326 -0.5190057123506481 -1.0753906366807027 -0.10322953481531255
Ni 0.7182085866966578 8.298705716550257 2.5838713374922877 -0.47527484712160084 -1.1040602367012533 1.073407544812403
Ni 1.837861517652127 2.4053775179093364 2.4179139445899787 0.4971495357075051 -0.0980194513692828 0.06310644154218165
Ni 1.3122141169130008 2.0178769872464075 0.08028422401045789 0.9227324149206174 -0.03338423188740057 -0.17614987712412244
Ni 1.1154400598923562 4.255101960252964 3.3856229688585877 -1.302544258546202 1.8726339340568587 0.4267912976989166
Ni 1.7215082429762902 1.123215524235963 9.139901340273731 -0.9955511986545565 0.3553999904401234 0.28582696733699164
Ni 9.013881221875126 2.7104599844665547 4.718423022432798 0.21567056092656403 -0.45697913413620656 -0.4785987692885112
P 0.057547725825299344 3.417376961952156 1.1720736809489445 0.5157715216840666 -1.9806791450932602 1.940184527413323
Ni 1.950768320080081 7.946524559166173 9.644367335696419 -1.5180703234751016 0.26196455889709724 0.9967228503651544
P 8.612241794281529 6.242443760764084 4.45398663316234 0.7370020931969115 1.1790595730262792 1.1354917157376572
Ni 7.402604352735441 5.275322773404615 -0.0813311712404752 -0.19983693632841715 -1.3043404312146762 0.2943185497477705
P 5.337758730218692 0.7542934298224717 2.7366680370426404 0.21280815177710447 -0.5209276119637093 -1.5064191123894184
P 6.620645319135555 3.418742545295657 12.572132504717437 -1.37714893053597 0.74806452165866 1.7365824676155186
P 7.309001510768676 2.084093844882285 7.784545008356973 -0.09831538534314681 0.7194237179935158 -1.7300870896991625
Ni 4.492973573135158 8.792331581336681 1.0823687898048528 0.9511821856208781 1.6348809394089585 -0.2034305672169464
Ni 7.729452545645192 3.1637872060957895 10.94892768310799 0.6400830739806589 -0.9232823738868163 -2.1338688138767834
Ni 2.3936910971874044 0.32121400040748493 1.6486028138620412 -0.6669606150977934 0.4672717743114662 -1.6333976699952126
Ni 3.925949926056217 2.333252422134231 8.560640394294154 -0.02697138638252129 1.8270166504383758 0.085499207415085
Ni 6.129091053570906 3.935090973743325 1.8056551170155075 2.109666762709283 1.181653044785068 -0.9543022193070985
Ni 7.848694911612382 6.924250726157966 6.607926814675779 -1.1166743259208383 -2.5439985917596184 -0.3544060019579703
Ni 5.815935852826597 8.033475988385003 7.873492790368444 -0.6625488591833428 -0.871203650913706 -0.023015744168882944
Ni 8.266665601232337 1.140652258492773 9.404119422002882 0.9485516899765665 0.3299098165888189 0.10493289065966444
Ni 3.5879726933810643 3.095127161933785 12.995945475730098 -1.4244076064126179 -0.8011997109207427 -0.046074168650243226
Ni 4.8974742229722805 3.9752874303918158 10.951796337097603 -0.8296847057343131 1.0404303185554338 1.8386683757446916
Ni 3.5006868355883163 6.92768790872324 13.638674462261593 -0.7385231578271281 -0.888674811115276 -0.4928956455271576
Ni 4.992535545108636 4.9465794852426574 0.0442579058850796 -0.4797243982525222 -1.32324318165645 -0.7215939861719572
Ni 7.876350296738925 4.662222300585782 3.344208634820077 -0.1035097850598927 -1.2688370961017439 0.1521080056835703
Ni 2.936236430592027 5.29207207114837 6.094907808475123 0.09227972067202816 -0.6278687913026542 1.323568426206353
Ni 0.08986931852626853 8.159518402021869 5.511745195799829 1.091985050704274 0.596137007417012 -0.3293742558003231
Ni 0.21936284925232266 1.4093934866841729 7.023092949116122 -0.7873288664759214 -0.25006600768729836 -0.24493434288768787
Ni 0.8936368110186887 6.530535397829717 7.369107615184452 0.32194736720863265 0.027831420389971426 0.6407862706952706
Ni 6.296119546878015 6.640172231979356 4.8337070546403575 1.5505508126013101 0.08509760110129215 0.17115165257858267
Ni 6.93907705960169 6.698019085584661 2.3353565352451353 0.6758386343137135 -4.66963499042428 0.6982499121293781
Ni 5.98221188184239 3.5311105461322976 9.161709799166266 0.973638200631549 0.0431762782771579 -1.8134797922942056
Ni 4.135710959364033 2.993442296097321 5.951955385585368 0.2428257811851173 0.9929903799059157 0.776094945433315
Ni 4.794284428553183 7.347117078512784 2.944529330256947 2.1588455384267786 -1.9370493242184508 -1.3918152742988934
Ni 3.720285642778904 1.681766980775633 10.921939297192761 -0.7719243589953931 -0.010091579908047137 -0.8583532773135991
Ni 4.503963267661427 5.50503804495624 4.297505645489317 1.015898909072973 2.005541198442262 0.6442706296994453
Ni 4.842897337645292 8.502976547436242 12.243208996712868 0.2215984963752248 -0.7883418811214681 0.33367725405105114
P 4.685195685677467 6.144279684636374 11.93428524639689 0.023387268575688756 0.38692711451412715 -0.9819775737351798
Ni 2.474437018423522 8.283126918815217 12.004877544541538 -1.2753612703735069 -0.39295300899323293 -0.7954478960386301
P 8.146224866208605 0.7632421810795763 11.89563087706147 -1.9662495999314913 0.8245185881523412 0.29112909627619543
Ni 1.6597504329926602 1.0054409281209722 4.522363342004774 -0.9534480988369194 0.07820087398145886 -0.44446788904307327
P 0.339967082689969 6.361537491809531 9.91364457857435 -0.14998427447234816 0.1591199182250292 -0.022718524643438293
P 3.281143766493382 0.7615691092417225 12.782685947951787 0.2258081635811982 1.1441074824311264 1.952923058025914
P 1.8693163829656905 3.0634679236028264 5.506646089015831 -0.25102708604898705 -0.19637211770826826 0.4512846548545905
Ni -0.13053954898781056 1.109095206670512 2.1714382276754685 1.0358753521949 0.6703022778765166 -1.5510871447207546
Ni 5.025922664404839 1.0411040196563444 7.0061513549423635 0.9780049622406768 -0.9717597526619134 -1.2932746603188177
Ni 6.548399457486534 8.362981030520885 10.03930239935121 0.33637768370134974 0.3436371934772405 0.6505675184517505
Ni 4.0718072326977595 1.2306599932899134 4.333373110042084 -0.4548014097585974 0.5485299470620101 1.0260028302761943
Ni 5.98228619930326 8.912716578264757 4.375304879401908 0.02406963935469403 0.29835029661498297 1.7239604079761344
Ni 5.983447409629367 7.064106897834192 0.31972486428528646 -1.9081706935108877 -0.312876515255616 0.15365426712476762
Ni 1.429291986832328 3.85925000492468 7.926165290760619 0.3187381162427156 -0.820823141578625 -0.9352567726398731
Ni 0.4383522532637696 4.748254051226335 5.807316885302107 -0.5224610178891002 0.2902950304106743 0.06569579953591266
Ni 3.320699235041862 3.9135389100907947 3.906650610436333 -2.450560332003115 -3.179441338754789 -0.5373392205525133
Ni 7.272084312081109 9.246123287096356 6.5719915354399685 0.6831688494265395 0.35640734865871526 -0.24849634920733332
Ni 7.125595307022165 2.073206336864714 2.9488666830670187 0.6114196446076954 -0.986822560532307 -0.3376755765771668
Ni 0.6477649234737538 4.164341761164507 10.33921144166356 -0.8282184056014318 0.31078235173074864 0.06239064642207965
Ni 0.0007914809582739562 5.4131445045895035 1.4012306425757772 -0.5012550732354464 2.245220463578598 0.7859836653019368
Ni 5.780514293039055 3.3999216483301287 4.017148598163812 -1.3661001289209762 1.3369386768656717 1.8923098152192313
Ni 2.8319411639424765 8.459157114570301 5.568768054557728 0.20689281473393398 -0.28837878722456783 2.164522534206898
Ni 2.6490644721046706 1.3947622365752355 6.8914256326595975 -0.7070947641145178 -0.778304294379808 -0.9743622232817671
Ni 3.7947331592062215 -0.009430885784503759 8.92677744186151 1.0779990208378272 1.1369940113147967 0.21056512137919864
Ni 9.15810354437751 3.8676571676856883 12.735329932916658 0.4451595157934592 -0.2414651533921648 -0.8447626831133581
Ni 2.4479242642578662 4.902890107933239 11.890232642497468 2.451618340953984 -1.0307115486057732 -0.8813278838319015
Ni 4.376313738933229 2.6088029876779175 2.152009785467321 -2.0549927682051705 -1.2912049222739828 0.10037869563007874
Ni 8.344763962924933 0.41034386019808916 4.071914993016022 0.4121406376652773 -0.3652529719748032 2.580361703769685
Ni 8.44964447957884 8.103473746842681 8.362798952741752 0.9140693399289808 0.2243356928007298 1.1606170500503752
Ni 8.929958229186783 8.620797591964278 10.638685726829817 1.298857553723234 -2.3092291052200746 0.483874930085786
Ni 7.986302980097266 4.204946963847787 8.141912595541578 1.1657875385077212 -0.03652020641322098 -0.16588063398763045
Ni 7.182420295540496 6.933336035749421 11.88812574248178 -0.38175714027741353 0.2426769143120788 -1.2746850702420887
P 1.1863946556587466 7.4365116942577405 0.5830065460074657 0.39452806678983665 -0.2828498869865387 0.08061565407053858
Ni 5.860981523796907 1.0410297021954735 11.583090653305867 2.2043244966951843 1.1983271630066394 -0.027314114433920702
P 2.552228820590025 3.279062877589 9.859925130952158 -0.417276673340262 0.8558881036025582 0.7080185614803677
Ni 4.372588576207081 4.891064341972175 7.9855402971550795 0.31485215092474805 0.17550761555443323 -0.024501070465157804
P 1.4232351137713584 8.731316945961758 7.632264815159672 -0.021366381490918043 0.6028794683471681 -1.0178130953765503
P 4.17763529697777 4.852103413110661 2.0544959871222304 -0.7784667880996012 1.195051577579161 0.6155794324123398
P 4.697968999264635 6.752047879637727 6.366699768435269 0.04245996893642365 -0.580349148455136 -0.4102452204147774
Ni 7.669989287265949 2.1034256743913002 0.6450820631363181 1.2268900622459966 0.30642073232794326 -0.9598452606125146
