# total energy = -340865.4239877895 ev
CRYSTAL
PRIMVEC
9.28607962471120 0.00000000000000 0.00000000000000
0.00000000000000 9.28607962471120 0.00000000000000
0.00000000000000 0.00000000000000 13.59111618207605
PRIMCOORD
 96 1
Ni 1.9043705996501188 -0.16188979454675934 6.86178775392817 1.7016231779315145 1.020119889132856 -2.857804303697723
Ni 4.4434261569499425 3.386735319093196 8.43027064550134 0.5683729499298663 0.40605329382061683 0.5336172916162358
Ni 5.3184812809360835 2.2772995500102198 4.767274463031327 0.18903496061690672 -0.2576757017137562 0.2574322182443825
Ni 0.6619386722017937 3.6412388983391946 8.958855645279298 0.6594583931834772 1.3507740400868673 1.2784332244306111
Ni 2.094976666260961 2.30784146529245 7.921256058145792 0.9927720932475225 -0.8208732780902702 -0.7022569764062422
Ni 3.442776808521065 1.7093907896224534 0.4306735067574926 0.456144296939737 -1.2463903370624534 0.3515078544745688
Ni 2.7049049361203275 2.5253585901239988 11.9367648167164 -0.27004065103701236 -0.8423018802776913 0.08926021711941402
Ni 2.7967628339530495 2.7967999782708146 4.408972016399119 -0.18236551901653109 -0.7550769484207511 1.120229133151632
Ni 2.5488988015075362 3.14005061873672 2.0511575145936494 0.2904238426790547 0.3002634544772958 0.8250307519020694
Ni 3.209807647499297 8.168908367980045 10.579066642379884 0.16637171469143605 0.9191578101954815 -0.03162199778065521
Ni 5.601920283720978 9.180617437023438 4.087433158274771 1.2149673426664818 0.2938482949795714 -0.15006886376635445
Ni 1.5776584666690572 4.7072529599549435 11.319116100409591 0.2335114457627269 -0.9050761352914348 1.0548156407428284
Ni 4.212453503008041 6.235862355015384 11.772801440630413 -0.7061871646985838 -1.8874910536743492 0.9206757895019048
Ni 1.7211469661950602 7.126350943032861 11.971476181667747 -2.1979569026059433 -0.9847901034833105 0.05643957104496731
Ni 5.934036914936839 4.5760127992119335 10.368159348894608 -3.196584426192979 1.903630125328057 0.5368910772715011
Ni 3.8156036120073122 1.3316423640323503 9.515670326558618 0.5846531751471287 0.8854174805202428 1.236268418137103
Ni 0.4402520977011291 9.144884603333555 13.087795721440513 -1.2197315968243443 -1.5133081261997678 1.921839449247232
Ni 5.674983156764635 8.928333230763894 -0.10318784335897602 -0.4573326608208833 -1.4794420695799422 2.4645270785958524
Ni 7.38138382880701 2.1645294012758307 3.4810651712731757 0.4983278722863224 -1.2874495689966086 0.29446201730417026
Ni 2.453047889515082 7.011547142900841 5.682132509326443 0.5649415556508142 -1.4298192643464924 -0.03096096715788861
Ni 4.59564357115071 4.44992641255881 1.4780884798603873 -1.224655259378207 -1.1431258352441476 0.42804805292415316
Ni 7.216481630089513 6.221561792675878 5.868073249626009 0.2875035837084661 0.9360090774248654 -0.6661957119073106
Ni 7.243680556772898 6.502837138950964 2.9148455487357707 -0.7086405113350828 0.238848284594608 0.5148474672079005
Ni 0.3573014072684422 7.447287134601473 6.866462366318889 -1.6917460280271184 -0.6891147825973294 -1.486077315508273
P 7.043286962430991 1.1184246939820945 5.962653825950901 -0.6098767256006078 -1.8775655670305211 -0.24570798782891876
P 2.4049552840889126 0.003550068170385124 8.89348257462093 -0.5965157309126694 0.3207494902457896 0.13014692803144684
P 1.008106070220192 1.7849701901946862 0.6991647074658269 -0.21077903716221766 -0.8976523320235379 0.5248706557718573
P 0.19581091413765606 3.809029067762916 6.530449296169484 -1.1953917345273994 -2.8457430016578154 -1.3793924751545084
P 0.4095894633861627 5.874782442022302 10.085232937694869 -0.7615183331707208 1.071024132181891 -0.7396716696092746
P 2.8882678607670043 3.438635217090273 10.05912512534583 -0.03309729677460106 -0.11496584941563427 -1.3717267310791343
P 7.013450789186295 9.661887076224456 2.3219470199636896 -0.3458863945227334 -1.0409154857219687 1.4875826964092058
P 4.056010922661511 0.3987925388198358 12.230958028102194 -0.44318927944096576 1.267025496814302 -1.1760403265839812
Ni 0.3678076775482583 2.6137249220868157 2.8244780666533673 0.5987088819092463 -1.8992451088864837 0.22653809976868727
Ni 5.98866692028964 0.9997114544053133 8.411500693126767 0.12376390732323846 -0.11565721905570403 -1.415960246976213
Ni 2.9632993826522043 5.617298031275667 9.552841573953948 1.1394126480586182 -1.0176506016567572 1.067015268132814
Ni 0.3154416183632315 0.35880946656969914 8.256983117048406 -0.37798147528506515 -0.8472324848100893 0.51435870049694
Ni 5.103963559764054 6.635720935755074 1.0526662510269147 0.5135179497631995 1.1319844739153473 0.07112365541970331
Ni 8.809564274710466 5.316698353683365 12.765088674522458 -0.06084207098803715 0.7713618016237037 -0.29091363783127966
Ni 6.579679446327205 2.2768352460381576 10.182980067109224 1.8095406051407996 -0.1351613505269027 -1.4465543177129863
Ni 8.088017329967423 4.418140162631453 4.326297122525837 -0.5054462284986585 0.11114056213227311 3.565077502371634
Ni 7.147476773761676 3.088215723295732 6.176359943779766 0.5277888578599168 2.6951316351244294 0.8820231101267132
Ni 3.2373315869631245 4.9707640362589425 3.782258229341772 0.8868297874867371 0.3573871960734813 -0.27535666393328706
Ni 5.443499768453465 -0.19298887459546393 10.45046744262996 1.0051848650895785 0.2660803808376837 0.7591097237292281
Ni 6.031095017256654 2.6592267113488797 0.692112858738151 -0.0378828910887025 -0.6706768876071159 0.9139220157178389
Ni 1.5145502707864067 8.744710295892864 4.38575774640397 0.6390785439755445 -2.860747445486447 0.06728731239274863
Ni 6.490978815504504 1.260761719657384 12.338925416549573 1.7833536623327866 1.1568485841468785 -0.3568205249367339
Ni 9.012251530674359 4.572679096692529 2.4383953847647533 0.26045737822395143 3.32359769369145 -3.3175437741878864
Ni 7.6099699603325135 7.138023544890497 10.325673678235056 0.12783036408312823 -1.4711548898704856 -0.7584085838971455
Ni 5.0896722835039885 7.271483078619963 5.400878521034072 -0.8223894576244805 -1.5101454122010702 -0.5157075012153505
Ni 7.905174425769456 7.468812266746261 0.8131141882892531 0.7640804374709422 0.9488195989259723 -0.17514663267058866
Ni 3.453223647892457 0.5990681999528389 3.3199563360074245 -0.4706512323066604 1.0578611124373718 -0.6472924472449045
Ni 9.546368247975462 0.20387401691648263 2.6628798550010626 -1.465611077234121 1.4571907143809097 -2.1310426572818977
Ni 1.3381054753234516 5.290660186930136 7.180933589380511 2.350966079947545 1.554004832588182 0.353433610742372
Ni 6.581583092612659 6.82028176464967 12.515650651611656 -0.3996880137242213 0.16934211017366965 -0.21729395546259997
Ni 1.9972685383802593 8.806982744625802 1.2557323790320096 0.5891045260502628 0.5887630835504442 0.008515750780495011
Ni 6.414572953862001 8.49009528369357 6.900535777612623 -0.44408582311330613 0.2889953377626442 -1.1260007455280865
P 4.103453502526794 3.3427378747006125 6.299537001743951 -1.0722083822979793 3.4416007872715113 -1.2866859513577065
P 4.6576188653415285 2.4586938258153546 2.772614384366111 -0.5472976173168058 0.8125974112347232 -1.8080305962541765
P 4.97232409760507 6.985871133245819 10.09371391404855 0.6696764713670595 0.6117410325028562 0.4303882710215556
P 8.004164032613048 7.992500716834854 8.10605368206614 0.5329346637269144 -0.8129396250654902 1.1378049372518662
P 3.3585334958301574 4.8930024070180185 13.331484732569246 -0.03861282727619156 0.009742424098744512 -0.7290658690689702
P 7.525698789403283 8.766811164963007 11.935011604917896 1.2029674899921283 -1.3097988832260863 0.4442963964622155
P 5.070292235710126 5.990812004640566 3.317346947684437 0.10275285228921015 1.0185119212157878 -0.2359388242572969
P 3.5534297311428515 8.85521464124359 5.204975674709948 0.7310787857339408 -0.03429003153112159 1.6148466464659026
Ni 7.780434520635312 9.380333147566134 9.750198620318569 -0.6766207638953767 0.8584694911764892 0.9152003682096304
Ni 8.222665481865368 2.2435446512413213 8.255284693118604 -1.0130408707988876 0.44989137405148977 -0.8245936643646508
Ni 5.474747425773229 6.528095275031131 8.239070269806259 2.052485685512601 0.4999728640889131 -2.1668324132869974
Ni 4.300411247475443 1.4690484815243428 6.861800754439388 -0.6463074576238159 -3.251914309113535 0.31319456071666707
Ni 8.030907941403813 4.266953503248664 10.079266631653873 2.1870171157649883 0.6862336043947924 -0.052915874162425
Ni 2.286892070073018 5.625135482324072 1.537032797721587 -0.4164732036023602 -0.09366734504817417 -0.3214776266610657
Ni 8.017099541274693 0.785785256493691 0.6445709178228471 -0.2365705443040248 1.0770538833157386 -0.8090683150355421
Ni 1.78567593223222 7.260414071926008 8.691803786884357 -1.2175479589094644 0.027829620617758524 -0.13231565354799146
Ni 5.459583258045688 4.7004741219628405 4.997507945049707 -0.18170963060008705 -0.08337213376975319 1.4174473730447006
Ni 5.71808913753086 4.612897106752529 12.760766933150506 -0.05261196976876101 -0.1622263250644948 1.5892865386086112
Ni 0.06425316947775513 2.4779995849736873 11.953454687296137 0.6970114117365867 -0.10001899829781484 -0.4289798207098032
Ni 6.414767961530267 4.155334828364989 2.893507995395695 -0.4839885728455148 -0.14037117686261633 -1.6272223944224364
Ni 3.480348285940312 7.849095792023822 13.18168355623909 0.16963521593405625 0.6900288097711665 1.303532076380768
Ni 0.6564348129169721 7.236084543789966 2.5182435960561227 -0.34258869760806804 -1.209459268364059 0.9783628598007279
Ni 5.0171758613062485 2.672682240459233 11.594376853030587 -3.0975625017011104 0.5318715125697228 0.4913864079714827
Ni 1.483878350391999 3.777762838284269 0.038224288803966215 0.13173175602006346 0.7120024858287802 -0.19245504204204922
Ni 8.482257832645164 3.2914322857877747 0.38482256090843797 -1.3861915003542127 -0.20392164792075204 1.0852670152541504
Ni 1.3260242859704017 0.39740984159103554 11.32520498269921 1.9504319161729442 0.6258419906806125 -3.0664644947447255
Ni 3.2438597008103147 7.2799334109114895 2.901417877863741 -0.16260479144983606 -0.13822096328883293 1.3881851337454738
Ni 8.369905557485632 9.14283237977704 4.63018035780856 -1.090325146503348 0.061266045899333196 0.7534571534291411
Ni 1.0933987098879592 4.825669044989605 4.331679334169978 -0.5754496542709897 0.5336712847826228 0.871633539362273
Ni 8.36958983078463 5.236188044927836 7.576516859145456 -1.7408402144506083 0.5416165077716284 1.6933874202852837
Ni 3.649289929214747 5.54018642759563 7.371767164937664 0.2729495971536912 -0.6158290865293008 -1.9790148700169592
Ni 3.957216323486185 8.220065379621822 7.543993294510465 0.6094306392021246 -0.0640351240040381 0.1286232922980688
P 7.060772650018841 5.450872915529807 0.8957510092368263 0.39835335407319783 -0.8335143638930482 -0.4122815341185157
P 9.362039571066896 1.5728947079157025 9.985447513843162 0.04778523780407899 1.3440387782455627 0.17226725424026462
P 0.7500069210145467 6.964615297404825 0.40803218786386714 0.47339408515912024 -0.17296813696203114 -1.347778447793653
P 0.9231728018268007 1.3417549045438582 4.501418651668415 -0.6476444312676846 2.1493118879047306 0.3820844417098452
P 4.178624315603613 8.70192932790708 1.68822038571232 0.9753994062970297 0.2786358489051911 -1.8704711220775851
P 7.360564438699756 3.3786564299793196 11.994934675552201 -0.33670010003777495 0.3392838016045512 0.49835769708299327
P 6.334443374363562 4.608514077256265 8.295433057582795 1.0962826496383635 -1.8034134091971392 -0.6073287623677734
P 8.802720434162273 6.911554639477594 4.362109816498914 0.7699273831700223 -0.5162338060324657 1.3461493968306621
