# total energy = -340894.3797288458 ev
CRYSTAL
PRIMVEC
9.07797790253416 0.00000000000000 0.00000000000000
0.00000000000000 9.07797790253416 0.00000000000000
0.00000000000000 0.00000000000000 13.28653827643242
PRIMCOORD
 96 1
Ni 6.3494826771602595 2.0935541756725 11.502701205093842 -0.17878860029855015 -0.6573614014451324 -0.5691589361662713
Ni 4.631094092432207 0.16143277245398904 6.258025681430375 0.4598749676267628 0.37167070257568896 -0.8282315182275543
Ni 2.7526153681753875 1.722854949834271 4.897086106058771 0.2989053977875046 -0.9163681632654863 0.5548283784762121
Ni 3.2546638556434275 4.292621687990469 5.116380093785143 0.6869396293228814 -0.0015622022807973096 -1.222468021918901
Ni 5.150181944340026 4.6738332121884545 2.4450017338669148 -0.5175044452147733 0.06801776280086996 0.5547671862209735
Ni 7.392288149683561 6.073049173401231 2.4378137909988187 0.2047549424553248 -0.5142355446555144 0.4054076898168179
Ni 5.109539837469013 4.523483742901501 11.522165297419535 -0.5061242284022897 0.11072558608204157 0.7983974655852573
Ni 5.517758345795045 8.00133876216581 12.523891104539064 -0.3436253664026986 -0.41471534037098895 -0.3384427937604946
Ni 1.7458494677490064 6.598473453854051 0.3613670646000338 1.4583880771231206 0.6827849837245596 -0.3451520874598701
Ni 2.5370950958446565 1.4778947953095058 0.3231297140636507 1.4407310261629898 0.6611257535835711 0.9644719607512486
Ni 0.6600479686960705 9.174295203241645 4.774783049364624 -0.04808528554300105 0.09976008820947335 0.16856512279832905
Ni 8.75035363726527 2.107234688304757 1.2291146277020246 -0.15954132203316396 1.0289523998228214 0.19461913957290353
Ni 7.061295998996953 0.6199251221585462 4.746017660925451 -0.9331908912497798 -0.06767066387409636 0.6812734321760396
Ni 0.8700815112093254 7.744195961355386 2.5333576923604495 -0.1604769464735559 -1.3333694714571747 0.4061085725385845
Ni 7.72011208609767 3.6859313497513435 3.8379094082660523 -0.05819589161444171 1.3964985387071756 -0.3845766120040796
Ni 7.408229078802502 3.862597876849122 12.619461332036483 1.5134227974007612 0.1643037764188138 1.3143024275233945
Ni 8.019549185749293 8.793582967825857 7.1986866548913735 -0.977921144277619 0.3522298202422579 -0.9553003215543094
Ni 6.91603927528843 0.6376153776107553 0.27228486787784595 -0.478616252790008 0.024282526696448502 0.17787740133819044
Ni 2.0353280256902195 6.621958182573127 9.18051997265899 -1.1147043466786608 -0.8066864450669268 0.45988859447351765
Ni 9.541862526718806 4.900392305594716 1.1610960630041407 -1.2736913388702515 -1.6557678101602968 0.5806039447784194
Ni 6.396924189447037 1.9622049140426887 7.0559091269359175 -0.3042736040779534 -0.06303779308777531 -0.25747284167433077
Ni 3.426682458077824 4.3020900188965365 13.850950758746205 -0.5532708041811052 0.023088763498663463 0.08234754915998076
Ni 6.277276441276403 5.76167453286612 4.674137324446703 -0.8079809955086343 -0.3264357419972894 0.24323381525681337
Ni 5.185195704938973 3.1231421124343113 9.340077234887481 1.3895886989612196 -1.5430773870424004 -0.1258873814241445
P 0.23469931615167922 5.3584579903399385 12.271672198918909 0.23889585000309183 0.8988280974991939 1.1638142168314345
P 4.039119156301169 6.147942490731105 12.68174806151472 0.34123321202143814 0.22631749911744894 0.3188931537633411
P 2.5874234050903318 8.521552283328042 1.4181653321939138 -0.89249392775105 0.1737458956683201 0.3364352764121625
P 6.389307766024036 7.719821590806209 5.79948067945424 0.33196798466942823 0.7040819454301229 0.3756924221405723
P 4.748381566359718 1.126177621172703 12.71549635200024 -0.20032210349495178 -0.8495212808442659 -0.568238224124215
P 4.013092593781805 6.178680523758857 8.044082420910987 0.25397382738213675 -0.36937265057013163 1.1651694453077481
P 4.8200249676163684 0.8547397286290241 3.9148915683010896 0.49258145672084847 1.0790824837099933 0.10775493348949185
P 0.17044538887157673 5.5681411229078694 3.406974168147745 0.7003988401515809 0.48928864490218954 1.0874848488410755
Ni 1.5142974865207537 1.0151448739894686 2.6360759196233894 0.293173894620366 0.6445449664067545 0.41197968660738077
Ni 1.7423635242514706 6.479061733107728 4.834492540928927 -0.4985518153716704 0.26780790505175167 -0.6149304859744312
Ni 6.075164342242185 5.435602646178638 9.085374594525332 -0.5363912548169472 1.410871519599396 0.07599023948338526
Ni 8.623715846143847 2.1978238293514 10.23105988231745 0.10992134501319134 0.9424221800400608 0.7129998167450431
Ni 2.1959719218683342 5.125299207030791 7.062273697212277 -0.4414740965220719 0.8829721043035439 0.8725995028199681
Ni 0.4785274468375307 9.056599220310517 9.075954376901914 1.1566840335445565 0.3438444243920401 0.8232600331548918
Ni 1.4956694759557958 1.1563346636175322 11.478240593755011 -0.6543221003981763 -0.5480026138036304 -0.9448385027910374
Ni 4.036159735519407 6.917945650638646 1.5079156680864627 0.8737757825162565 -0.19087818447323254 0.25349714485603436
Ni 5.770679886901422 7.86394356728246 8.175818404397555 -0.5439793515768503 -0.3297254684921547 -0.5216192387140952
Ni 5.318996020590489 2.6886156242753136 4.996615239700137 -0.3961609744075693 0.4034852759831245 -0.21553480667964814
Ni 0.8250420318638183 7.489322655009503 6.884632195292532 0.40044494649490386 -0.22562844347022432 0.15976577933914418
Ni 4.911703466005991 4.395593190835651 6.925248883825541 1.1921110068935985 1.217390607395994 0.14474745155344104
Ni 8.269783645409651 7.150414507630573 9.170713940976597 -1.1938866107367825 0.17296170920412793 0.7596170023829498
Ni 4.573103969874239 0.18315728126636727 10.313502446034175 -0.1812838559165781 -0.04722088066017674 0.5642453009147379
Ni 8.167284197413093 7.432421889794515 4.42424419675381 0.5083762576612599 -0.6503515457862025 0.4043895329649487
Ni 7.375439422778804 6.154660194346149 6.95069264016641 -0.13418510265656244 -0.3568315806803274 0.5629152692494047
Ni 2.2571574926323765 5.543294697510068 2.591845288105045 0.8462114997447426 -0.6738190327805235 0.5463378245066978
Ni 2.3760880805522153 5.272761879358847 11.621521949481595 -0.427543859594225 -0.5215577893485405 -0.7502841550177982
Ni 1.1587130938163719 3.457529426839874 3.86259606125355 -0.04256538416603636 0.08870640149847303 -0.5434376201407672
Ni 3.7826118139408167 2.7288219882091327 2.956347886257289 -0.4172995561583975 0.007299876095522912 -0.7958124784669004
Ni 0.9232212701976747 3.304683513641925 8.329636569024114 0.6801202924082028 -0.3879177605621706 -0.3083230915569787
Ni 3.326606830169397 2.8728441069289445 7.257054421328241 -0.20304284486022453 -1.0280854238368358 0.3917163083726544
Ni 3.8442240496641924 6.754859778416685 5.964366714685476 1.0152345360160968 0.5493267319316927 -0.09478063271701095
Ni 0.9374827734128544 7.403308814803376 11.42359298264442 -0.9594243710250123 -0.06833195160717909 0.10331309566805434
P 0.21933483862673242 5.696458339933052 8.070589208459047 0.6256825822846128 -0.8826990531478152 -1.7468910486303786
P 8.36168909324573 1.6456830600619974 8.145299150636186 0.6630234848269162 -0.4538506158095539 -0.9326851552579549
P 1.7784666421933988 3.3504456000249423 10.460398652543882 0.5895236158655525 -0.8763458572362778 -0.5158630529566083
P 4.111379860052175 5.993253748027948 3.896051133054251 -0.4645633742413677 0.30090160228192697 -0.7976238206440263
P 6.967266304342065 4.150950765535923 10.554333936229044 0.48303829311710356 -0.9828350366394687 -1.4418358291913942
P 6.2756605612176495 7.5410398948674775 10.289307819446588 -0.27918143699601594 0.8867968773662728 -0.4254661511295898
P 2.5216988453972062 8.587667196069068 5.888726279777876 -0.9757398203555842 0.23502042620808558 0.30775873441307644
P 6.986157576264909 3.913289305209123 1.6145937092911344 0.8798646690228138 0.6163193959021579 -0.34802323836007804
Ni 5.354164106813027 2.8403903360859992 0.5860488321852262 -0.25266127921830034 0.07830397521822643 -0.2412144708339394
Ni 1.3363600425228321 1.1675732002059425 6.992957889478461 -0.15758188431394796 -0.2959601991162516 0.29435788762613824
Ni 6.6710791207636655 0.8349733396406523 9.264131779923845 -0.12195410780800932 -0.032375331006911985 -0.0522828685641164
Ni 2.708668877364003 1.5811840273797244 9.301918862758464 -0.38416215017448035 -0.11849623116639593 -0.257837166992285
Ni 6.424285214711552 2.071821496680049 2.7193690898654244 -0.44085446066020206 -0.8548352368580117 -0.422815343770304
Ni 4.219598434099377 6.727998041934369 10.49637830998694 -0.09801610893517312 0.6953011139136993 0.1447042570203314
Ni 8.393344002037155 7.191065692479443 0.41170989861028195 -1.2449967991490365 -0.766445338158693 0.18598049006129908
Ni 7.637802060857674 3.6871750327179122 8.24784489631982 -0.5534829201919114 1.2481803390833406 -0.08117923988349246
Ni 3.036819620981006 8.58547032542739 12.464260591382125 0.8630774222621459 -1.3240569358069971 -0.3845100204322023
Ni 0.19388109651021934 4.84932868014253 10.019325126753575 -0.6054600845901509 0.21932718384254485 1.618184452589884
Ni 8.487128591289874 2.4641807776878637 5.8019916481298095 0.21222425424917643 -0.6221912813019026 0.3902875463459278
Ni 3.6149415629004813 2.5256931556547997 11.40499129821525 0.4600485170901496 0.5313760609905429 0.5067682897441917
Ni 1.1017578607342353 3.2067321325523084 12.616364833789062 -0.7018342870465267 0.9674364426962114 0.12971138315592498
Ni 3.1823668399809897 8.323044141503514 8.161773864853187 0.680528326479899 1.083052524101335 -0.7989435678967144
Ni 5.77964892902529 7.862536480714444 3.510927908197181 -0.518779455272455 0.2971791591250172 0.13801296104308491
Ni 3.292918454337741 8.369641401849483 3.7981160923247788 -0.37271996977580973 -0.6847559914080014 -0.34013766496441417
Ni 3.5840945941384317 4.5771164360875485 9.514489700083077 -1.8221305259906684 0.2927506910400184 -0.473203566414869
Ni 7.467980329064954 6.360748447682244 11.635911452184576 0.01539653706072832 -1.0731244663543453 -0.7382724752689027
Ni 0.6734152910922206 -0.1434393125413172 0.30979416459000414 0.08058505794291927 1.125293435048417 -0.4043813054348326
Ni 4.608281134074634 0.4028152959048504 1.7242475116377136 0.2606530391745253 -0.08325026347990823 -0.4943771151686905
Ni 6.158037202109386 5.7609846065489005 0.4264007901781528 -0.9269317977139456 -0.08170168804586574 -0.834025242091196
Ni 7.865859020610533 -0.2468311257613329 11.113139756861914 0.4506706754196754 0.044265654686594734 0.6000504835388053
Ni -0.011417372752216005 4.87106135913498 5.773558513680245 0.07524590511819298 0.2620802585393551 -0.19251109209096523
Ni 7.9357866840519895 9.064660464648568 2.413685433649598 0.016296166056862255 -0.876864191633593 -0.13685956416493203
P 8.602582313690036 1.700023835520982 3.5198833333542625 0.2218358091970115 -0.23081358721558956 0.9436046303839362
P 1.8948281623793768 2.9727290973023504 1.7258679306853963 0.008658704116262506 1.7824974849800783 -0.44570407544301954
P 4.645764104651004 1.320936558141807 8.224313869913667 0.052906875301360505 -1.2279555273960336 0.23942601147494896
P 8.549094868149718 1.4592213948552575 12.371096028017119 0.0017398655092421647 0.41502824362571755 0.24603966013672465
P 6.295813672062779 7.786463026263009 1.379129119606012 0.7674640092311944 -0.06104930190283679 -0.5334013189506878
P 1.5061726963376947 3.218615205568648 6.118264765517187 0.38558756976709724 -0.33018029664138615 -0.7301758143036973
P 6.818432857357425 4.069149107055984 5.950934030848747 0.9191997191770105 -0.43277785429965465 0.5301208484272031
P 2.3749260993863706 8.551636701950004 10.320025880923055 0.4590077345304611 0.27256753122392413 -1.049609928172173
