# total energy = -340895.24411069945 ev
CRYSTAL
PRIMVEC
9.04519326046905 0.00000000000000 0.00000000000000
0.00000000000000 9.04519326046905 0.00000000000000
0.00000000000000 0.00000000000000 13.23855463884954
PRIMCOORD
 96 1
Ni 6.305910719881205 2.0519653968123213 11.439289425432062 1.2802329966435113 0.34500887701378646 0.3567580471299146
Ni 4.672394051507203 0.45651451955759165 6.095321436006144 -0.34931881724305003 -0.49765450036838166 -0.061238020874875176
Ni 2.7472060827738978 1.4866679565544512 4.744208363024994 -0.19517038409068324 -0.27166044602862244 0.9783926845973988
Ni 3.6083808382353006 4.48116962178271 5.10607036272028 -0.15937548587926098 0.3076587185001024 -1.5654470129868525
Ni 5.0467565082234085 4.346622372733382 2.810822735682384 0.2768702723643361 0.5701791499006696 -0.3587133710840726
Ni 7.088410384772453 5.848965649126656 2.481805641583596 -0.25745844349662755 1.0440437469383053 -0.0926263053781695
Ni 5.3003656355407225 4.758667104376613 11.411912339133062 -1.045085300828942 -0.6141056760802908 -0.6636366929308829
Ni 5.565018943771597 8.088437901252762 12.294195861996577 -0.40690869984237665 -0.852044818597068 1.024570725815358
Ni 1.8300054005486945 6.393649094051187 0.40426857903767094 -0.3234108391280366 0.188831586356849 -0.6524009721160635
Ni 2.847472049544439 1.6262081522575753 0.4693225131477663 -0.453830818315212 0.27486146946442336 -0.21498047683807492
Ni 0.5701727993998927 -0.1382802002884977 4.683297127406634 0.5319249915154775 0.7509824666364033 0.3304780303874631
Ni 8.607731488827278 2.159946913393892 1.2792282089562956 -0.11447245471898351 0.7547311350455582 0.8248744288298633
Ni 6.865383055709646 0.6023592149304559 4.801173180844344 -0.04132971198672237 0.27034841208541827 0.046485545156048975
Ni 0.8677442792922954 7.461678373109838 2.3905921041810254 -0.4070323699044345 -0.5179253348022758 0.5414750970977579
Ni 7.677921807262596 3.798709793831667 3.8721187729129802 -0.3736406818178662 -0.3129755027273255 -0.5934383775389264
Ni 7.549579560757661 4.008558276382551 12.491834238228693 1.1946872522612069 -0.7682574516667673 0.39522997795286774
Ni 7.989130724962841 8.919202717130714 6.851573759230748 0.3433978237729247 -0.07530426915995418 0.6583888142683822
Ni 6.775998456374825 0.7554952405526421 0.5075321228391326 -0.4252411796029773 0.13585040617412736 -1.0792349501274574
Ni 1.9388914364516057 6.438368529298237 9.161595804863412 -0.7478197526377056 0.2908146503595701 0.5489649777168998
Ni 0.05169780181118864 4.601090793405969 1.3993945053156382 -0.3398067639875567 0.9908921026159904 -0.49099945694570923
Ni 6.422557531561214 1.878930850639976 6.971912818780466 0.2573154901608601 0.9038672025849982 0.7286971728756417
Ni 3.351678254839004 4.429657246432396 0.5529389927704015 0.17366053504336545 -0.8060791505002312 -0.2040005807878035
Ni 5.893142372780902 5.546494388070554 4.715016810967387 0.28734983173942125 1.1656720959757796 0.6806635665061826
Ni 5.427215425165445 3.057257215742829 9.262871215196567 0.09510433460501687 0.2533449355488863 -0.13227914388310122
P 0.4276856797478426 5.440719898633053 12.196323253350302 -1.126749450768653 1.1812797206060495 2.1660834509361147
P 3.9395072713914536 6.181114189115924 12.537772061001588 0.4370618263869892 0.4830583477217616 0.5386260576847369
P 2.4651950487665077 8.523412197691963 1.3615584621039853 -0.8903007767544732 -0.15391574831627042 0.496791381037138
P 6.307556945046044 7.853389510409345 5.869882658432643 -0.268744300823092 -0.6642409021737851 -0.04101860850420677
P 4.786833836043142 1.1736590454047384 12.678921396577378 -0.6297570094643025 -0.03206654151724155 0.5190458215599641
P 3.9243023015997283 6.110697359949603 8.2436742207391 1.0779887364251823 1.0089031944814302 0.64505995836996
P 4.763488192359356 1.052200190935201 3.7526272479673572 -0.2751301497447778 -1.0424170099681596 0.753320884961593
P 0.00547324641342844 5.54454062633646 3.3367907713290688 1.5431090116112844 0.2366703031066827 1.5709820838724686
Ni 1.3808753767305226 1.0382886837729914 2.4983800536278298 0.05344346453112087 0.1398916661230365 0.25219359555326243
Ni 1.5559631817623099 6.602945819816052 4.74187832125322 1.1985657613800067 -0.6927600926594004 -0.7944348813930834
Ni 6.247695856359762 5.697295849324362 9.12235685218436 -1.3575740937278362 0.49916759457879833 0.40831252216843866
Ni 8.629078144810903 2.434577069739148 10.238909974755618 -0.03579592665268674 0.28303243531099 0.32244847521476727
Ni 2.3570778542867354 5.332277077197598 6.951379325666726 -1.0854688468523113 -0.32188103274707147 -0.08707349388074036
Ni 0.4835370342826247 9.134288366552155 8.925539779496022 0.6736989622628913 0.09575353815324154 0.43059164528161326
Ni 1.369577930406986 1.2080669603885126 11.388519660444569 0.9931269054837799 -0.3154504466303793 -0.5882439778221804
Ni 3.9382771251144315 6.64808133395092 1.5493077285958898 0.9172161130880785 1.0620293848824485 0.017789462772937106
Ni 5.548828047919612 8.07146007359121 8.25631759181279 -0.299208273739904 -0.06074256929569539 -0.5079815933260026
Ni 5.336094148733653 2.8312992440788793 4.874886078417628 0.017494300130021484 -0.028328157520731857 -0.028149980071654746
Ni 0.8853218032638959 7.4382603678803445 6.822422910542601 -0.47637527927463125 0.38999701168870254 0.7223146663880656
Ni 5.043608780985145 4.688132687698519 7.02232529863603 0.9213051955557876 -0.33889813613035824 0.30613559698735665
Ni 8.226494685268888 7.186523595558205 9.188138924348134 0.09373007996530955 0.3532070965538626 0.33283753175857517
Ni 4.55695929571779 0.48026086530073114 10.541556712560059 -0.10598575740421103 -0.46605024319953925 -0.8593716912757845
Ni 8.15536328583871 7.106600268324601 4.5507931875042145 -1.0862270651745745 0.003509298704839117 0.18300906613780096
Ni 7.350576264869644 6.2444124512232975 6.940510621501504 -0.5600050375811452 -0.198475022983884 -0.4559571206295953
Ni 2.348086932232616 5.027336478394238 2.7930570716919445 -0.29057913730999635 0.7066931578007247 -0.3862421726319606
Ni 2.4698714136578355 5.12098136373257 11.390969098766757 -0.06301671004185276 -0.34430028098253607 -0.372974508988777
Ni 1.0934372267950923 3.2358726461278415 3.7079467070511245 -0.6988489791659578 -0.02169779668840779 0.7696041955026487
Ni 3.4857099278751678 2.5878840495130677 2.91961741513384 -0.6976775845656759 0.8963958339086174 -1.1377514583061115
Ni 0.9932526667634721 3.396768543007804 8.405025995357018 0.695524542778415 0.23797436663008692 -1.231789042209511
Ni 3.6635474716438288 2.655777269772849 7.01345558217097 0.45622065870362716 0.06438145159986332 -0.4339374218253946
Ni 4.1989686387178375 6.977154508247631 6.167590720742568 0.15931095118991273 0.05368283423543658 -0.7328173656916024
Ni 0.8922431851107898 7.488804907556825 11.434417684367324 0.21970976399294417 -0.4135490879770298 -0.8652754583547292
P 0.15644837537693326 5.6673019886287275 7.9221230291186515 1.1353824438533027 -0.7077745637903616 0.45324203569127747
P 8.50731175377211 1.8205622188339048 7.977672274200106 -0.07477616457062605 -1.1938984378113244 0.6275453465249644
P 1.9364763698636278 3.194228576573347 10.43285429407938 -0.4568302672631681 -0.6076370376368115 -0.5279770626113229
P 3.9418680668201516 6.2661932764811645 3.709231124487427 0.22474629797558715 -1.0137173280406218 0.9127022843781248
P 7.030240747217077 3.9736800113516795 10.305222095241696 0.32225538536735465 0.872865097776529 0.8368452280384943
P 6.389877248481199 7.892754191274063 10.282120671774672 -0.04238412139316571 -1.3360351912147959 -0.05099166055651864
P 2.592189561482646 8.553867363241482 5.740753480118143 -1.0355426514458295 0.008035982930599064 0.8132689833804511
P 6.9374642004272316 3.9052350343058806 1.4557641494215479 -1.000548651869148 -1.1818739025466225 0.5206540465873484
Ni 4.9716633141657605 2.727107663453723 1.0789848170787215 1.1880394079273862 0.019803922099804604 -1.3338358695706318
Ni 1.4751715159802194 1.2704245224016932 6.82656651355366 -0.2840086831813302 -0.45974924068217593 0.16680725956695788
Ni 6.965070130114529 0.7563952372773753 9.49302344295357 0.09276540205919508 0.2046248446353637 -1.3198727225223204
Ni 2.644805450404995 1.4447253956239146 8.869090537689834 0.4560041718174469 0.6903663956162432 1.9895954737462835
Ni 6.476358340794517 1.6745999359492663 2.6861293201197345 0.7103042721907509 1.6766220279014865 -0.0852310413553629
Ni 4.045236534862888 6.948508381340793 10.429968877444306 0.7444117553974212 0.3078816331441859 -0.36852135831342986
Ni 8.247741844127166 6.9947112282748405 0.39066732200268117 -0.11154293977701435 -0.1880592269671987 0.2191559483720032
Ni 7.621253671780643 3.9226289408552493 8.19238797521912 0.46210154296443634 -0.18318904335909095 -1.1017732404392895
Ni 3.058858214941601 8.488705791332146 12.598960079532276 0.8108228358328036 -0.652703848068463 -1.5265701334159967
Ni 0.25751212818889596 4.943695576749927 10.17664919630982 -0.8688906865098133 -0.3077988436223925 -0.7222498745884013
Ni 8.590400898630405 2.3570778542867354 5.830061195310649 -0.04823518085730402 0.40602038370015237 -0.39368988715925746
Ni 3.864034179218843 2.705507742060123 11.31701831261196 -0.5671390775227653 0.524758041453393 0.22500006585760604
Ni 1.0035913226063884 3.2883257215723494 12.698236502165273 0.41386301967302275 0.3649596091041005 -0.9002625159528753
Ni 2.958863603967462 8.276089479657962 8.004135795984551 0.5863403330415644 -0.05666274279936693 -0.40466078434846436
Ni 5.639515155077161 7.857559344480723 3.5351572856148623 -0.054284986595809735 -0.19802173749654928 0.002449489981757072
Ni 3.0277970214467844 8.310253174424975 3.561740203949724 0.5832493528210665 -0.1535074571342582 -0.0786562163513226
Ni 3.393448957098486 4.120329728920537 8.940803543043636 -0.7327754567100735 0.22832270247293582 0.8960847304261019
Ni 7.249713315347018 6.155281117298451 11.48682915192305 0.8633461025425003 0.8055664725298707 -0.7775159941505577
Ni 0.6002562075083404 8.963958333150618 0.08553315606455464 0.27943751887088003 0.3533099406803141 1.6618721232858218
Ni 4.555810556179687 0.19010101672738858 1.6982811563012692 0.1675302537759115 0.004889981102449642 -0.732164562598952
Ni 5.9062669481335455 5.470849437226889 0.32290435252517247 -0.5793942407410344 1.237496119896617 0.4676828937069558
Ni 7.877576357061978 8.766872618223841 11.734297497567788 0.04329172080909963 -0.18903547483753894 -1.0465996805909394
Ni 0.12690496530332565 4.756975653245708 5.817828476008847 -0.14407845051087445 0.22588066869034648 -0.11274518761523164
Ni 7.987204098808387 -0.1757933301024322 2.4815541852122633 0.2707173653890628 -0.8754310587314923 -0.12511347937259742
P 8.574870301882996 1.5701369995277077 3.759431946821798 -0.2246977041258388 0.039326565513764525 -0.8445117434448165
P 1.683138598342716 3.1992667491932116 1.5440262402785856 1.4149796282304985 -0.8490751944457829 0.37589425373873325
P 4.824868873505489 1.2587471779631938 8.399041695527032 -0.3265051617826441 -1.4897858747081116 -1.0338817188036389
P 8.499080627947917 1.686666223695942 12.4382839808474 -0.7232600610204705 -0.3614271704708098 -0.6961176962777237
P 6.2992353672897154 7.791900286944651 1.2420832185061466 0.4817280589461123 -1.2814843525521091 0.739168761830927
P 1.9325145752361585 3.3450209926339416 5.875760224982711 -0.9422717705051256 -0.5427711902013621 0.02362663828000447
P 6.904141708629066 4.020932100698483 5.952477935741486 0.17637741975389623 -0.07230199199852064 0.5342148159909187
P 2.524278250836437 8.61714753496243 10.224956859704626 -1.521232266142851 -0.2007226813674801 -0.20097953457329257
