# total energy = -340893.23491000757 ev
CRYSTAL
PRIMVEC
9.05719327189649 0.00000000000000 0.00000000000000
0.00000000000000 9.05719327189649 0.00000000000000
0.00000000000000 0.00000000000000 13.25611786854910
PRIMCOORD
 96 1
Ni 6.408000534478412 2.01110450072121 11.460576684662739 -0.6164428088538997 0.10343265196505413 0.2410460635768752
Ni 4.785748516494771 0.1385243382009524 5.909510726058073 -1.2866373575079584 -0.7710851509235495 0.7945384968504833
Ni 2.527672467097996 1.4558623186760702 4.605878090582804 1.2955842822886008 0.026811977986521567 1.3833843699227206
Ni 3.2768110447000707 4.133467564737515 4.824590290240377 -0.023974508537726452 0.38182861694529724 -0.010444078151459433
Ni 5.017186978549441 4.403616471233998 2.786834092323453 -0.09524111729319726 0.31173828788611474 -0.6172496210259112
Ni 7.286838121066628 6.175873725728006 2.6663227002867216 0.03923606268248726 -0.36276671521783976 -0.6167497985713571
Ni 5.117748996480525 4.435778564872949 11.54838526861663 0.9816194190648126 0.5556994682272559 -0.08444839755306746
Ni 5.529425606497779 7.99030127252924 12.378178153133621 0.5097438274327479 -0.6313297532680612 -0.12423133387796023
Ni 1.9928542560908278 6.361509960936103 0.5944054861552008 -1.5872034308273373 0.5184318421250491 -1.4377017524183628
Ni 2.623986661340917 1.6317167850500172 0.39846035345911307 0.7477109949739832 -1.42200465339808 0.204127593283971
Ni 0.46844256943210316 9.338328647002168 4.696483535847794 -0.8905630292769242 -1.2693376898872462 1.8947361652725372
Ni 8.524603223514605 2.0781549032019644 1.2795450297211743 0.4384095986641353 1.078552579348452 0.13707090884478976
Ni 6.9321946576684885 0.9011318680560504 4.912174255798819 -0.15886075102637157 -1.0421434445917988 -1.3028260514526788
Ni 0.8588836838858859 7.6775926144108375 2.767360220869466 0.5650973645023881 -2.9451616473674695 -0.2450130186444232
Ni 7.609247033278895 3.87748410866382 3.7247698656179944 0.6550216975683621 0.06893796062229418 0.28665486255492567
Ni 7.645285605678047 3.899619889247768 12.811547646979276 -0.2240538998942528 -0.6336874548669603 -1.0352634296425136
Ni 7.9325707220210235 9.02101893465437 6.964194627546209 0.3107895508196002 -0.33875672545648755 0.06979310953373787
Ni 6.964637524301755 0.5002940013386369 0.301116356330597 -0.5467759404853808 0.2925771415766316 0.11639358300109631
Ni 1.7544055263716838 6.618815767241081 9.012914558031408 1.225097489121948 -0.15093224020791426 0.9139610964858904
Ni 0.02691707296130678 4.766538209367705 1.3877567531682988 0.35514416567557544 0.06938918922709984 0.6265156197088694
Ni 6.229854598183131 1.861262293691411 6.900153930420628 1.3112003915593031 1.6089937872295514 1.0198170131804567
Ni 3.3501924253429287 4.3507134047893015 0.3061204556647341 -0.8319282503528511 -1.4501728883021798 1.34508161768778
Ni 5.8773033464522975 5.560265349905447 4.7427340937659315 1.0543811243085712 0.7494284918857222 0.8059984178609666
Ni 5.507489084167861 3.002550172415899 9.06200182891145 -0.5074249494915841 -0.8363153236769532 0.35085145183749256
P 9.265780528148888 5.5077517427754445 12.391779340409773 0.813454874139012 0.3869006321515659 1.2021066846537296
P 4.045911676478505 6.008840965691525 12.666022098307215 0.6582358336302858 2.7885107595082235 -1.298497342170338
P 2.519448535522618 8.361084654503728 1.4236676191410047 -0.7472613090310743 0.9112976907211144 0.4028322157801578
P 6.48690680307389 7.753799839383561 5.971496346009145 -0.9187317784016563 0.09334647137364568 -1.5622459895510514
P 4.677868286324804 1.1595743521283302 12.529324596007973 0.581988740941088 -1.7276864506774696 1.0458440333718375
P 3.9012139552799994 6.139119635053023 8.282077851061896 0.4075419625510014 -0.12322757520379422 0.44596632796547064
P 4.804315762892927 1.0976503210921396 4.031317820809554 -1.2124690017246602 0.28851377014053536 -1.6631353062689616
P 0.30416863049458653 5.516491934372625 3.6131136915341777 -0.4827626708582137 0.7493055931546128 -0.484668886741991
Ni 1.2305284049493799 0.794695354508457 2.6481612161513155 1.4156974802331297 2.463337172052809 -2.101276738873375
Ni 1.8735800766677484 6.537436884856969 4.937890344919932 -0.2641461399294483 -0.38099429396945994 -1.3217041193041044
Ni 5.926819022578501 5.601883153417411 9.342991290146447 -0.3016924736143385 0.5319923544183032 -0.4970086392542666
Ni 8.466347355791221 2.3113595179627997 10.285276327694838 1.3713534069001156 0.6920101018672534 -0.7525243572022265
Ni 2.3720789422814517 5.419697708881362 6.864084563564035 -0.8680285956198341 -1.896449805529534 1.4182924946538156
Ni 0.5217160750854261 9.221128564859663 9.201959920822075 -0.5489379811337063 -0.5613340408052139 0.3651940937124098
Ni 1.6371420438756246 1.2334991643730848 11.47717308578468 -1.058703405833009 -0.5516813482067983 -0.13264064098757802
Ni 4.127000728674938 6.761792621700244 1.5754897286403826 0.5504323062910456 0.4152796975148912 0.5529681853390219
Ni 5.652639665034614 7.899285536404817 8.136392895786612 -0.1957951621588757 -0.6326834390824781 0.13405449061596914
Ni 5.284881385644022 2.962182261588299 5.001016265515652 0.7954972612193267 0.4813189964331517 -0.31491334317998665
Ni 0.692224985935377 7.566143850055079 6.876757388520279 -0.3611854867736489 -0.6789013323994373 0.6834028198142166
Ni 5.070452332728736 4.492983798165999 7.221575608556115 1.0471612095213645 0.9891386102599933 -0.6781968501332448
Ni 8.356882116782389 7.049159252783506 9.064958096825771 -0.6596111167112575 0.7971556227583562 0.6607267183729395
Ni 4.748659309665285 0.21838976357378023 10.387056538133509 -0.15034474313556045 0.16786578273845926 -0.21393223807921866
Ni 8.237780024033244 7.2711148333850675 4.597115256002211 -0.3870335581850044 -0.16909785537334748 0.9903763393218362
Ni 7.3657625040488375 6.183318738673998 7.089411231536034 -0.5716431360407058 -0.6466884951123184 -1.0062526442324604
Ni 2.3810727352928507 5.354232315239474 2.692118492709447 -0.6990322988213574 -1.0552370445509633 0.12554542470369345
Ni 2.382712087291907 5.294536353771062 11.372927507312069 -0.5351828363311428 0.11175582711876882 0.4381463177004196
Ni 1.09657251508171 3.366993519034918 3.7970824974437867 -0.30182411409619636 -0.254266161811575 -0.6722969397090423
Ni 3.5764773443729387 2.44520672151009 2.6119858801323526 -0.2417163501710224 0.16082121718685205 0.06743617926578709
Ni 0.9874695638074743 3.485932582303494 8.17042167697808 1.066773841545969 -0.799854509746758 -0.1857406061363511
Ni 3.7431659310615526 2.669073369911658 7.024403226159077 -1.1207245847308118 -1.0043970790809607 -0.09072626014197924
Ni 4.186415917149036 6.690059650249809 6.185185426226515 0.7388558585761984 1.3705815617310977 -0.5578016021719232
Ni 0.5866344142480703 7.256279150653273 11.139487405523745 0.3485788537532319 -0.3281537531296606 0.8342658973470923
P 0.3068033680444517 5.568670425348125 7.851532390107433 -0.05155550347978863 -0.018878839182373937 0.534455471246815
P 8.57110285425028 1.7059948278360046 8.042499689330143 -0.20149349809523362 1.0328152252123373 -0.07271542538685541
P 1.8266728722306518 3.1125044998664406 10.383941769335301 -0.9913435883311121 1.0293568343500916 0.12408066723270887
P 3.983435156647052 6.099431013727794 3.9535844587548366 -0.08591752589942624 -0.06056130652282474 -0.41527455530856866
P 6.980849900425022 3.9309306067104135 10.385584744211704 -0.1916240615003216 0.29945201431959395 0.13578124349908874
P 6.608137336263801 7.779821155921074 10.268798575805977 -1.669132661502977 -0.6736953627184655 -0.34151860447234084
P 2.21980035023648 8.480005603385573 5.778501141192024 1.7251456865334869 1.1289752547753782 -0.18882747259179095
P 6.862182552957395 3.9756369131598266 1.5737797305330794 -0.14082471946026712 0.5180423199961142 0.46175907202335315
Ni 5.113763831399946 2.989978788025343 0.6139173978213213 1.051919550141956 -1.3520323379740005 -0.34686932726129294
Ni 1.5092001304022844 0.996010497150626 7.214005606341687 -0.5564605147629965 1.934806036710229 -1.6644745939056755
Ni 6.924577558048562 0.8105871059866053 9.146642206626282 -0.6339155117173663 -0.5701562670825342 0.24402931457491522
Ni 2.9553803093712188 1.645538062124937 9.335859656090882 0.3115058601603345 -0.13396553044658865 -0.6239216337294481
Ni 6.278980814994641 2.0720050689071607 2.719347133122508 0.359881937470877 -0.38690371747535945 -0.7131191159317267
Ni 3.9718147775598163 6.890105880101548 10.385320274165446 0.06453803178238562 0.3431556258551316 0.2071041594137917
Ni 8.133993645264235 7.259258967270343 0.024927207579026386 -0.7857895470132596 -0.7003723577890196 0.48244205429400144
Ni 7.695471514113257 4.017091687191221 8.182577336193186 -0.3926411341797689 -0.9340954053419204 -0.09536118781082932
Ni 3.140772000358462 8.317012351589861 12.58754604639657 -0.3463867311979196 0.11731815169789471 -0.8627714609859528
Ni 9.302281017409651 4.714097059784621 10.219724890715982 0.14577640703858766 -0.3114097009021024 -0.40021277587943976
Ni 8.632519682458032 2.309557136483174 5.837053179138442 0.4428432089554567 1.005821727342629 0.45963251259865356
Ni 3.6199156437512583 2.7175655831876218 11.64976786826658 -0.4155818021363423 0.5858083717974943 -0.8265441032228023
Ni 1.1309355067083458 3.522007383476106 12.647145095895976 -0.5993262037782711 -0.604670755919636 -0.7241650893332431
Ni 3.012975001978961 8.625871702528157 8.125775148004877 1.1843501320012573 -1.6438337777268721 -0.10380083393775028
Ni 5.665899396120906 8.179361126829289 3.561428817597068 0.6312996713610741 -0.9456373445432487 0.7699335538176095
Ni 3.2079763751264205 8.11639551855613 3.647394262701192 -0.011987254268863226 1.0110099564117878 -0.032821160295078956
Ni 3.429442867286276 4.2165310850875075 9.468553878922814 0.6593406366586902 0.5032049978729657 -1.0517642555110145
Ni 7.481486263672854 5.897808832230553 11.218890914034958 -1.2726844948722922 0.7590850411388799 0.6717418385365205
Ni 0.5560147606391703 -0.13033210680235152 0.13671833384398058 1.2101020441543804 0.9260234269670633 0.4645026962067613
Ni 4.71122592948793 0.3106354665571637 1.5807918096362268 -0.7888134214412479 0.41195500401703244 -0.49617354494748095
Ni 6.124003179326914 5.826945351343153 0.41802660828542326 -0.37392041784181407 -1.2258058280428823 -0.6022400349909564
Ni 8.046184155591007 -0.08090247401311507 11.283859067761112 0.10820050566734268 -0.3306785764340434 -0.1646105090259552
Ni 0.0950923788579885 4.825102021665497 5.778898751980745 0.5909348943907823 -0.0437851155057504 -0.28512222796048314
Ni 7.989757840927342 8.855951585578083 2.5134264076542596 -1.3364805062823304 0.025830073689226483 -0.2590520132359926
P 8.427546339415759 1.7267539150284792 3.520493926464822 -0.2797427088161246 0.5651102200181944 0.09613586119332476
P 1.749070839479726 3.216680337950142 1.4401707311712875 -0.18361147560849023 0.5526799646746418 2.0639000979971294
P 4.830210278723331 0.884464820825862 8.097181588551715 -0.9351130479731572 0.8715741468792474 1.3184267341044134
P 8.50614466343683 1.652983075070929 12.342532662926507 0.5792386889997767 0.6582036948407696 1.623409191323933
P 6.192285360105303 7.716094743405257 1.4479925233612616 1.380969589833641 0.44581746109243225 -0.25723064375653765
P 1.7378942628673726 3.1669020032163546 6.068040592963537 0.610770955280103 -0.5429997612724002 -0.36374039198501873
P 7.115521308568523 4.162586441405842 5.952474428504069 -1.9295782126523866 -0.9123127622491901 0.42151616534290626
P 2.1476145191177967 8.46389285638932 10.315990176114733 2.2284319312663494 0.1651427273803414 0.26384120709451975
