# total energy = -381165.9051529481 ev
CRYSTAL
PRIMVEC
9.27569844742584 0.00000000000000 0.00000000000000
0.00000000000000 9.27569844742584 0.00000000000000
0.00000000000000 0.00000000000000 13.57592227977462
PRIMCOORD
 96 1
Ni 2.527822650524015 5.246687588835733 5.915721465153287 -0.2879879795440524 -0.09695861420493625 1.9059700863151434
Ni 4.533757396596324 3.00297958557028 11.173201329277473 1.5263155942030293 2.4107120896579257 -0.19094888981016794
Ni 7.7539923941186135 8.506010380140182 3.595772785045619 1.3333113645257295 0.6440852531615165 0.3191860024134116
Ni 6.01064339891939 8.111867396421253 5.580002396459586 0.05361315733976573 -0.261448281382311 0.02159649522385313
Ni 2.4744502809410647 2.34527690262821 11.858418516893492 -0.41446337226118296 2.3431509547785003 -0.9866127585143459
Ni 6.899626350054245 7.465981953459837 1.0775087418999896 0.21849466063892048 -0.8550362971252242 -0.5200153845620851
Ni 5.155535298969267 1.275204488273346 6.198196168904329 1.972969692264144 -1.716717867481108 -2.4846323339861596
Ni 8.405016574088885 0.2083479586133739 1.5396861919345373 0.8692768662046383 -0.01889246602912875 0.8617116522628708
Ni 8.371392166765599 6.061975114816514 2.3426203425572063 0.050694441031073983 0.41387510385788073 0.1946224820070132
Ni 2.0851677632738324 8.144425098408767 8.830811951614708 0.3638321803678766 1.256128904506456 -0.7103053006320154
Ni 0.43594206419366877 4.050224505739597 2.477605873595239 -1.633192495962942 -1.804162885768654 -0.016761792839371133
Ni 7.055244744995703 0.19039020617809554 7.325065540754904 0.10669152522198398 -0.07340319548249938 0.09027708841970258
Ni 7.197663820869291 1.7369951416774438 9.849983042486187 -0.38539088037525887 0.2969662717832628 -0.5049289225426078
Ni 4.675888925814181 8.473480505248386 8.014899243550179 -0.06164708338783577 0.3987145940673585 -0.8481902207376683
Ni 2.781948964299491 4.273676084337662 4.00286093369155 0.06437270984911495 -1.1916464085523542 0.3416836692952954
Ni 6.920190573788239 4.475506009564533 8.951420149866232 2.2341400373947202 -0.23847418908464088 0.3330889856477489
Ni 3.9516794841112923 8.21008776859954 10.160654942326074 0.4223934257415371 1.0417963456650252 1.2362650757029934
Ni 5.7733432023534155 4.326584668992016 13.179396722479654 0.8470357954182509 -0.5223864558974229 -0.6741465913232713
Ni 8.592098138586369 8.325458907437346 8.940532334882487 1.785893398035505 -0.34628568684368105 -0.27453879601768205
Ni 1.0510294051866687 4.545092300251237 11.061254778352428 1.4030754205937448 -0.8383750344194594 -0.08303866168973441
Ni 0.9249828648624155 0.903827779129389 8.248730328850247 0.05977274918325835 0.9363302082097099 0.5491485544826156
Ni 4.373436222478891 3.3966402329634686 6.058744389003906 -0.05047409749015178 1.5694936722524002 -0.16485990603259995
Ni 9.194730999106824 1.4037100162890208 3.749927474752426 1.1829643073973242 -0.25494827548026416 0.9504453074548536
Ni 1.1983831527005282 8.242376475328467 4.640222937235209 -0.3799702235803198 0.14591138995455516 0.15832184780376607
P 2.1040994640591646 1.3318697308493355 10.123253470544292 -1.6265217688109859 -1.4963463015344487 -1.705715345723017
Ni 0.695760874182745 3.3517644032724165 13.272107329706209 0.5964162292203277 0.6955273709918925 0.3867530508301081
P 5.164495623789761 1.4644009120452326 3.9966425053689205 0.024137002257519722 -2.037738352000097 0.00355814966490355
Ni 2.569247920346305 4.008762133123019 1.797696240702085 1.993932153448424 -0.7119919443058189 -2.227924395502311
P 1.9107753544227637 2.327634523944378 3.3462203182359676 -0.8683474124118334 1.407196384740654 -0.6193710382442881
P 7.63112649083468 3.4214434509448397 0.8887612619389847 0.5260502779022552 -0.006509776094059756 -0.7154431360792131
P 4.92615654898373 5.666876734144673 6.87549840292891 1.023037319889967 -1.3315540155149905 1.4412709578268599
Ni 1.1193170980733005 1.5862557641848256 1.5467320125697839 0.6466427294760476 -0.020444641007597047 -0.8829173398062085
Ni 0.18730881911249664 6.503016030515178 11.59725936846077 -1.5425605953069819 0.9559220142987085 0.7286537212322161
Ni 4.744918674586568 6.192892324460893 0.4620290388573965 -1.2313424415903955 -0.0826751077027286 1.7301932762597234
Ni 1.081926757129805 8.686673161225883 10.97253550422138 -0.5263883779679643 1.0658934958235449 -1.732803717299377
Ni 2.8033201738092433 3.236124269176025 9.135916577171717 -2.1990737898192063 -0.09515729933013935 0.3978609878178116
Ni 1.1705838840804201 7.037296268258998 6.888789551412645 0.6633834392694962 -0.5619297654076839 -0.11041448259952596
Ni 9.28497427051324 3.3017776636682252 5.830261671500419 -0.22039110633068498 0.6140509115829554 -0.7034507396040272
Ni 3.0485232655585115 6.703445325257686 4.090316857677099 -1.049691689252702 -0.6874350809020612 -1.5659864304300901
Ni 4.09955267074518 8.715557686578908 4.191933063102573 1.212258428375751 1.746363972482315 0.8664473671756432
Ni 2.4780678033841217 6.942025568226589 11.424124744336057 0.9164409254849508 -0.897418361635861 -0.09830792914397908
Ni 4.260903447404099 0.5290496713191012 0.9800888625084617 -1.2311388102200216 -0.9072698005086439 -1.1408223839219516
Ni 4.273601878749087 1.3878114689367134 9.793588650308498 -0.9439473584353355 -1.8491283947357509 0.8285583054393536
Ni 7.5384437107038424 6.380057370245525 10.301233719602987 0.16869084974291593 1.1372112695319254 0.6554724119525357
Ni 0.3406880604186892 3.6816453472849373 8.678218361977558 -0.0019980042666352684 0.8537288911677104 -0.2112868300365716
Ni 5.639689661630314 0.4973694504164929 11.681755417032011 -1.8764944454535295 -0.9462412966758348 -1.3416949606037345
Ni 7.145673530373559 2.3749313109627064 5.250882059729965 -0.21436495474126308 -1.3278505985214744 0.29463145300249904
Ni 8.464455250537886 7.993759926504724 6.209545913676957 -1.0767872599179131 -2.081102320808029 -0.589644714824449
Ni 0.2155867137789169 8.368813522562599 13.104539052294516 -1.0086116313829403 -2.0287441189212867 1.8624523655381666
Ni 1.7802013456255463 0.5957104066762144 12.834798955112891 1.6120145763337463 -0.6111537925408185 1.6363163863039045
Ni 2.643314373443256 7.889974135183273 0.2585823593694364 -0.11882841769483406 -0.9498459833079576 0.9452365095604044
Ni 0.4426224223051809 5.462375407729085 4.354938624386726 0.1830419762582654 0.7723542474439601 0.8626436771588368
Ni 6.498137013066338 8.786266336792817 9.517481713627093 -1.4725103754571156 -0.27326095774652287 1.516303718492982
Ni 1.7180912679878273 5.833523934688172 13.350358050428962 0.21826711800914667 -0.982647603219011 -0.31254072918275205
Ni 1.447611897630019 6.047486473647141 1.9982266405590265 0.23893287388861434 1.9926882537389938 0.7195435314008318
Ni 5.943283275889953 0.06220097948372397 2.4786781443501553 0.23048577156252564 1.430629933173246 -0.05494370322573119
P 2.989808093598123 5.095447323620229 10.265406333868865 0.3303250497493666 0.351134273185234 0.11551169461677525
Ni 7.177387143791027 4.585543621723473 6.306233012881301 -0.3457735230939529 0.6952095826411575 0.4506303091000433
P 7.031517508048678 7.417655563900023 12.404347176903956 3.067245338774808 0.47482747517153717 0.7308448153462639
Ni 5.494673390156584 3.4185308815932505 3.7292649286135693 -1.3247675887207766 1.556260718501894 0.5862565150785065
P 2.2964125225512233 9.0201252491886 6.663646085395058 -0.45710948906648374 0.015138912523967476 0.4844791393286882
P 3.092861104732391 2.4014319817827428 0.40009056164325846 0.1235258231705034 -0.47744820062383586 0.560694350338686
P 4.2811430216880755 5.388624328383579 2.7506852222627627 -1.7960675103550292 -1.464508845308878 -0.8097144332599733
Ni 9.217335876526645 2.539806853078963 10.822412960683797 0.7758501764123605 -1.8442355854198238 -0.3051174401354874
Ni 7.944366831609137 -0.05064345906308511 11.59765265808022 -0.26048334636588044 -0.5086385101837111 -2.1312701999116714
Ni 7.321058438971826 6.540703193812976 4.365650201097604 -0.02468079057613169 -1.5446185062772755 1.1075235126595053
Ni 0.8886545914054075 6.276540574182659 9.293343733334703 -0.7558428800524983 -1.1117804881636466 -0.2576435629242401
Ni 3.3145503006017885 6.062633689415121 8.288291183259577 -0.9912327737848607 -0.2850180982824511 -0.13790806003410444
Ni 7.959866523922851 2.449906782519708 7.620667213124959 -0.623333622436462 -0.07342273586652516 -0.04064914097992999
Ni 6.750630803893151 6.869433951202576 8.09089689708981 0.627016727715004 -0.21341416079221956 -2.569566155816078
Ni 2.582530720701325 8.657732981681427 2.5268459194643893 0.18782782768268297 0.47005807880735173 -0.5648824202781045
Ni 3.7392567111152646 7.306402835228158 6.188095860729343 -0.4372914258992921 1.1089841563654321 -0.15184935270554492
Ni 8.937998214032634 1.367460586269874 13.012250489352986 -1.4787463290644987 1.0837624056841657 0.7023942733150548
Ni 9.018381417857077 0.8325551664423065 6.200884266350478 0.8317935245471997 1.1413867410658536 -1.1166594135225028
Ni 5.077053613352071 2.611424521752922 1.5985924432855074 0.033410200029329554 0.016574359418913394 -1.1250360676219722
Ni 5.191209635676952 6.27611389204835 9.620645105574367 -0.600813844067391 -0.1815949593990937 0.864383285557763
Ni 6.153387124242995 4.796018498019393 1.834120981424241 1.2377429458001008 0.9927438111127483 0.7775597029042995
Ni 6.574976900036299 2.438980009601961 11.98214984285419 1.994331959990004 0.35448570615597014 1.4030808199103835
Ni 7.631581000064704 4.153824783089609 3.868567369766984 1.623812854520255 2.25790911478986 0.5810212348214961
Ni 3.4793701885266133 1.5023663463001884 7.444777706524378 -1.887912200372168 -1.1637589381134668 1.9220348530874898
Ni 2.465638367297721 1.1327761367011873 4.894432732297833 0.5036706246554745 -0.043134626405945065 1.266234111261258
Ni 6.721783381334414 0.2554991171641231 0.07903637239179744 -0.6780418126126194 0.9223050975752116 -0.13377141215791155
Ni 2.0639635163383745 2.9731396632643445 6.7090988635372835 -0.7593403516827955 1.208887197910673 -0.016324448191636403
Ni 5.1710628183786955 5.488801872960545 4.784291232314887 0.3501644530727969 0.48598194912645976 0.18672662419870423
Ni 3.4340398496055364 4.21742824819741 12.771495095068964 -0.666510157823936 1.7010117695997609 1.1090543474817351
Ni 8.74289317027042 5.336355766930689 0.022503772305386787 -1.2311611788175247 0.021613464504717614 0.8217058012938945
Ni 4.84641336836075 3.8914894760779655 8.591169641159318 -0.08236169022736785 -0.20620144509386423 -1.1640407310199437
Ni 7.382092535575199 2.2592911768663146 2.7691076871964952 -0.9634867140198439 -1.0066647920692147 -1.8112269917042871
P 8.658929546797207 5.842410053920092 7.389320159902456 0.12613626421015695 -0.11240117401225158 0.743157828385662
Ni 8.008805109588414 4.294861779875976 11.557006546937975 -0.5803234374235231 0.5850529816887086 0.26287550074714083
P 5.575724444278206 1.3946383830856621 8.306237804856568 2.253470876512848 0.5710944626260874 -1.1423457625450133
Ni 5.310430189422113 7.170550953943507 2.8091434573727083 0.4514008687174807 -0.03224908984169284 0.6232516042456169
P 5.972807824444442 4.999425292003494 11.124341587049772 -0.09063987107576002 -1.146579855231019 -0.013436585120880085
P 0.5914946016752671 8.113165994221324 2.4730171855116994 -1.6446107651022128 -0.42694890632270344 0.03966106603504783
P 3.7956993369255274 8.94658751091025 12.488490748929465 -0.34417969624427175 1.3912465462796169 -0.5189524905152095
Ni 5.034357572825424 7.337346565664155 12.17924545152994 -0.819467398881679 -1.5866010213566482 -1.6946524030406365
