# total energy = -340859.2871394908 ev
CRYSTAL
PRIMVEC
9.33423332156604 0.00000000000000 0.00000000000000
0.00000000000000 9.33423332156604 0.00000000000000
0.00000000000000 0.00000000000000 13.66159398487492
PRIMCOORD
 96 1
Ni 3.0310963130931845 6.379341878116339 13.535484269378724 -0.24885476098801657 1.2974604162653913 -0.3969135363028777
Ni 1.9019994251629693 7.708396716272995 1.7111283512573863 0.026413199886206124 0.6737143888818591 -2.555480624257289
Ni 8.227193414694508 5.806163935272306 2.7977171397883294 0.056307930563109475 0.9957347754202722 -1.1785119280529253
Ni 6.626204351724718 3.298139399547683 1.5895126228706669 3.5449023129753403 0.7984571151785991 -0.673978184066207
Ni 6.176144948862328 2.132667003633505 7.962386810588727 1.2039671349012362 -0.4610566466396898 0.05032445928616494
Ni 2.682789389710696 1.05505774773807 7.299730905328922 -0.04552240991183128 -1.0405190216144984 1.467066835844041
Ni 1.597927434378889 2.1324803189633283 9.533852626393395 1.1723662201665035 -0.24319344893718114 0.6016831340462218
Ni 3.7431396478482797 6.852195479207324 7.881428203096476 0.3503542004860999 -1.953920646052493 1.3787872374703416
Ni 7.3873364205028205 7.626703504603599 9.58139561134734 2.2991195275898986 -0.6829793591235528 -0.45789110442751463
Ni 5.425495224314656 0.7634572263451554 1.6801573644750443 0.831445911399794 0.5176684815964633 0.42323057693085175
Ni 7.653362075504855 0.7026288268380761 0.39047058956528485 -0.5107375588045848 -1.346586741478397 -0.10806166609663324
Ni 7.967375024975854 0.3619358377287508 2.840409123587726 0.04924331040684422 0.34949648047149484 -0.39172016502739637
Ni 4.83886665098438 6.335480314858284 5.0259228236548985 -0.2615300424628399 -0.24081517851299172 0.7000823373524265
Ni 5.991317791153722 7.262668397758708 6.961962331577918 0.9740794019340256 -1.65547470439991 -0.3199208236969071
Ni 2.922343158481651 7.48982630442992 4.311175361452291 2.189766139265035 1.0869058364091537 2.1161305160567556
Ni 0.8102170691077061 5.335195849350106 1.7783301654043038 2.6319933119030474 -0.2865592175173258 0.5123226439035177
Ni 4.641764976211644 2.1440921054483297 11.823358088559242 -0.36062575761543697 -1.733343648963247 1.0531418525848315
Ni 0.9347301435755707 7.378506235603455 3.6935758013396724 -3.1974750563280483 -0.8787642368697832 2.027223825622018
Ni 1.6742907987147362 5.432318549009621 6.359212603554518 -0.3975483416733992 -0.5324582383111282 -1.4558082322110864
Ni 8.884454132986201 3.5812000307033567 6.186598356968882 0.7740941129532024 -0.44402694485091276 1.0614154054475333
Ni 6.644574123270122 0.8564784638008843 11.069716742171986 0.460003265674511 -0.4539125793957408 -0.3763585949696615
Ni 2.7348837469235505 4.619586837394633 10.15519614756641 -1.9084630279403263 -1.1702046937388104 -0.08486440204456352
Ni 3.746920012419362 8.700299040090233 9.46618690084109 0.14433658926826756 -0.19133944038036724 -0.6606801814057202
Ni 8.706478302673085 2.471854380877854 10.35436815533141 -1.860873708197137 -2.044887818560685 1.6179625663870651
P 3.706717468696773 2.0761202170369324 3.7264453712177135 -0.4814951169996998 0.873401172785657 1.263644753267527
P 5.817355681249408 9.052675689282577 9.021475080355916 1.1220625868159448 0.20033881566550013 1.7184073393683887
P 5.747199582196942 8.321357162331719 2.9428299341868605 -0.2233000524473638 0.09356192981856144 0.3552961178724075
P 7.535928083730098 4.1443623409924015 11.355804465254579 -0.08348294831600461 -0.7221030645978919 -0.9615046505928087
P 0.5616622989641732 4.387640468933385 8.307602235833087 -1.283671590011415 0.2996965262302322 0.06595085296951222
P 4.5159208400454185 4.3076367535290885 6.88612635143532 -0.6678808129192174 0.1601930966845499 -0.27879885684561667
P 8.843168818176586 7.419240830636047 5.948900233819485 -0.619496765188875 0.23649906763614104 0.23908919696082048
P 6.6063411028178995 4.483027001160255 3.505072822475283 0.6601073396213857 -1.7364919647842416 2.1793092055977694
Ni 7.731872313547737 8.826731232967514 7.738418411507488 1.2196143545201898 0.609373303601628 -1.2834507322498605
Ni 1.875014156088903 4.350368874532573 13.2715280139456 -0.8972036745218935 -0.5654169526253359 -0.03064240747620529
Ni 0.8094161918726472 0.6748193449451791 0.6069398654455196 1.2710724131901656 -1.450846774440753 -0.700980937907296
Ni 5.74075896107584 7.329100137641147 10.832223038736432 -1.7711437505301562 -2.5738097615837803 -1.390380855845212
Ni 5.945346691122667 6.13755722753677 2.4861096222925596 -2.610090855403002 0.41218820307376103 -0.4962290807757647
Ni 5.008507010774099 0.5826699248991761 4.511180916269629 0.6395138317407502 -2.574319611340663 -0.39226189646347925
Ni 1.5301048937036332 6.289621225629336 8.494438120592797 -0.1050547609495094 0.2956452389789941 0.7793705308607932
Ni 6.34801619046066 5.653651893971314 8.697941212705897 -2.032709788437254 -0.8821622068077387 0.6176059759240654
Ni 1.6306345885938758 7.8807346695467695 6.392847580580284 -0.004020948233935011 0.7337216226734268 0.8231990980099694
Ni 4.568229884628977 8.086330496812552 0.8895729887064885 -0.9087042189623253 -0.3263843199340637 1.2698681084694194
Ni 7.887296635703486 2.6508196399429074 12.933485947152786 0.7865426231292003 0.25280783209849367 -0.6181795890393483
Ni 0.7001608554983378 1.4917971993833403 5.854757954919344 -2.059414808532266 0.19441396554063292 1.6107169405682453
Ni 6.48988720556157 4.143680941946256 5.954228214306332 -0.31100012416850953 -0.17971291188503244 0.04179996675492156
Ni 7.621756360843912 6.21897974643441 11.827032976291674 0.8860126909020805 0.5190378511401642 0.2537524553999501
Ni 5.523878045497865 0.0682817849638907 7.004736456632193 -1.126161696585983 1.45999064572355 -1.752422519971569
Ni 3.377741742911099 6.118384711909606 2.6731639281163764 0.6168883810317505 -1.2393303448918787 -0.1121458634683359
Ni 4.360841884529496 2.0496763335063792 6.199016621229047 0.8535555988146398 2.328462242418074 -0.512907055652078
Ni 5.6442803235284345 3.4030188472530467 10.311866589895592 1.6352120974961324 1.1033287578518676 -0.48222428185624056
Ni 5.435492188402628 6.518515299733193 13.137289601584872 0.7769521512272877 -0.9742130992984125 -0.3488542189018057
Ni 3.405753777671138 1.7930315831807322 0.4807774319166423 -0.5198868294040208 -0.27615267747202116 -0.9345651458894872
Ni 7.816589816873998 3.685323405494504 8.652392953452795 0.3109440741195935 1.2689623088256985 -0.461664712537334
Ni 4.132937239177577 2.801987551618625 8.6405758138306 -0.601963641401118 1.7369989863276474 -1.2542167750854079
Ni 6.475885855298305 2.2279321908247605 3.9177084829306676 1.0061469718925315 0.8822881908626418 0.46574248215113334
Ni 0.5141305150904413 4.067121558706723 11.171413216250835 0.571047668548552 1.5312125172840145 0.6045578844908556
P 3.790193518966359 1.4279323737158343 10.034427034158945 -1.3110826350345162 -1.2026419883319093 1.4221802597439956
P 0.9561802121788926 0.7565004221110144 3.8975978768358646 -3.1139378577353405 -1.3866764104104314 -0.19367580182302774
P 1.1525071455703944 5.9503405060498995 11.9395776965545 0.6460804292146743 1.7836650229256186 -0.0013657699992750672
P 9.018633739675824 7.932651676322956 2.123639866407103 0.3865825866905149 0.6379644849757594 0.509320109631768
P 7.3956532225592 1.921974684871894 6.16635147106485 0.4955048010152304 -0.2919379653307359 -0.4628047396790481
P 7.008347871576763 8.236564985137386 12.625581320089976 0.14722470944934002 0.5479547912848305 -0.6842150313028669
P 3.2240442539544847 4.689453575208325 1.164323351769239 0.48933286787656366 -1.3037763311810902 0.4145109376696668
P 1.1396165690946818 9.300499588942365 8.20804983519122 -0.9250494930895683 -1.1732154555406762 0.9299613285688887
Ni 7.074406242118847 7.675810907093624 1.1203488442857272 -2.4657673787608565 1.5192692288792091 1.0985233660434242
Ni 2.1551811748568355 9.21202972374555 11.131904206077952 3.1885800678312637 2.937546039803741 0.9260738205890245
Ni 8.332847603781106 5.4884452950982965 5.030048554865807 1.5453026768284934 -0.7886303588961644 0.877518023167508
Ni 8.937033870341516 7.091506557907049 0.25866747872701357 2.533758659199165 -1.099336863083655 -1.8015043650998845
Ni 1.9410165212299342 3.396120848690012 4.78478223518744 0.7914562583807337 -2.1516042834833335 0.6438728800403943
Ni 4.56562563348001 2.9170506480821365 2.0853601747873367 -1.7839149341528953 2.0679734967355548 -0.2678179323540807
Ni 4.542523405545622 4.203905416545314 4.249028968173763 -0.4283131336600817 -0.8874962174261425 0.1735839161691591
Ni 8.30649706258564 6.153201402897591 7.7541428612764856 1.3743947648296007 -0.008736865652365599 -1.0146958899038074
Ni 0.9430842825659854 7.759492310500404 10.193257418122071 0.8096928359934185 -4.093272337420719 -2.3287602332744672
Ni 8.870331437687321 4.816315142827015 -0.12358151796368211 0.16235925109793328 -1.2960319113489809 -1.1149388312869701
Ni 4.269039697970022 4.11257927589479 12.945193876242929 0.35309088269097255 0.7789493841629745 0.41023030801644195
Ni 2.6083395432441616 0.7032299514760455 5.053410274491741 2.512291490464325 -0.98499733439811 1.987533449010932
Ni 2.183519907789684 3.3448945751934795 7.594889636535408 0.011830159865708659 0.6973523400157733 -1.8897865345767453
Ni 3.2839980357817855 6.840471681920216 10.897389056555072 -0.5523480352565197 -0.15735819833891607 0.8372056967017065
Ni 8.891286791914675 -0.021627419039989985 10.1090056930479 -1.3113348602546384 2.391553514451604 0.2804906427257427
Ni 1.661082858299723 1.9788108327072407 2.4395373976235373 0.731878655927417 2.3391608597825004 -0.7183063165596211
Ni 0.4799616199079694 8.413028669622069 12.27185494073225 -1.544481980699411 -2.0664478041196475 1.9266196442446948
Ni 8.92812901157408 3.410168870120821 3.30717120389084 -0.28312730901764144 0.27722714148312255 0.2508581645712905
Ni 4.946649045310994 8.7576859077026 12.113517404298392 -2.5778849600944187 2.4688984681906705 1.9559831850084766
Ni 2.3292832982637814 2.6137067275117465 11.888988951206622 -0.4497916152488318 -1.5146538415943849 -0.5974356716237775
Ni 8.972980003584071 1.5121738311331454 8.348517914995751 -0.5243353520936777 0.354227567398577 -2.568052033164397
Ni 2.971357218636587 9.419921772454508 2.95800833129559 1.0848188719731382 -0.41286877408055345 -2.471031198262957
Ni 7.942321942238118 -0.06744357079479657 5.127291666137586 -0.17598352674958723 1.2004290398409907 1.1062423319542367
Ni 6.936884979833059 7.147595967061688 4.54916097899376 -0.418826277215569 1.6841039381008285 -0.5009961631471049
P 4.609048487763149 5.309816068439561 9.98900292021151 1.6723072025762167 1.0757878721191214 -0.13933116563387618
P 0.48131041664999724 1.0835831653410952 12.159733994670727 -0.6258774719042383 2.993863483448547 -1.500891754813286
P 8.978524538288324 2.1228287215151846 1.5573393868123857 -1.3685663310732818 1.0564845438048194 0.34064442939750367
P 5.800227362760681 2.2017216631319285 -0.07039878912369636 -0.41218486063965143 -0.5637552486521968 0.19053648486309765
P 7.035706509991184 5.411689892955077 0.6089205897960961 -1.3261945509752904 0.3119036098193854 0.17883899392051136
P 3.0027762486273537 9.134900952261976 13.491944737176723 -0.6132307296745052 -0.7664882755814864 -0.056006597272606776
P 3.9131440427448436 8.063554967050974 6.261778140495808 -0.09945901202928678 1.0032688790137883 -1.7098964736839004
P 1.491582512012637 5.179790195661374 4.042684535380571 -0.5905466578134281 1.971768215756875 -1.065277459506101
