# total energy = -381173.7186999167 ev
CRYSTAL
PRIMVEC
9.14616038557373 0.00000000000000 0.00000000000000
0.00000000000000 9.14616038557373 0.00000000000000
0.00000000000000 0.00000000000000 13.38633023234839
PRIMCOORD
 96 1
Ni 4.629164366875202 5.069917828106098 11.636429170716875 0.18872977067166208 -0.6510693977888335 0.07196106371933413
Ni 8.835437723438451 7.566170192087987 0.36057730608467997 0.020087771888810568 1.3810742337323052 -1.5415794623406356
Ni 4.5569005549394195 1.2607524561812178 2.8630014989862342 -1.1569452576257429 -0.5928642502030113 -0.210221879107167
Ni 5.8745604200390575 5.029811915520551 2.257805564610395 1.2434867902624132 -0.39122137101410687 -0.7254290436473313
Ni 0.04987401170558367 2.0500752297377147 2.105629921558893 0.7919337122377845 1.4734513992141463 -1.976042674762513
Ni 6.646606096930993 2.3270118151830417 2.3983619257123703 0.1288210101311717 -0.870281653320069 -3.342752669353346
Ni 3.6137210740821115 7.888837578657085 7.079065820070084 0.8249903855824372 -0.7984558296270184 -0.9398875865436652
Ni 2.2999574732382193 4.3790900540099775 10.824936104775576 0.47278781903368894 1.8270613876333823 1.597809488477958
Ni 7.011803128545196 2.3179662627207596 12.601409439085907 0.9137782910511231 -0.17005122042555226 -0.8306938637251178
Ni 1.731102891899418 3.95491858126656 1.8734839119662314 -0.24329346485015518 -0.4391436486166824 -0.9660416192312138
Ni 9.030653367275601 3.053848022084019 8.6062587282227 0.7051854629069468 -1.0165941353677845 -1.102963661202965
Ni 1.8520791531922396 3.3726282905575955 6.3929501477217565 -0.6926168822133169 -0.8315238158255809 0.7525539248885813
Ni 5.411106189130321 6.516931837264432 6.224522692566889 -0.2794164358249575 1.4385653859702385 -0.7045313742627157
Ni 3.1415688447996346 3.855197996336067 13.23177103332016 0.7391103977891658 -0.5963347252501149 0.7551836492019446
Ni 1.7921535113996512 5.69450910985455 12.846633543183946 -0.7984352608017281 0.7592760741037633 0.9252860345804065
Ni 1.303172347303627 5.8147902629702894 6.7540323218508425 -0.4232694005885872 -0.9582866578761432 0.9798751826801964
Ni 3.7951260159798825 8.585948764827611 0.6730202001385245 0.8437319278559986 -0.8831317698098597 -0.8612398548327749
Ni 4.4490124489282215 4.072657101839819 9.126746585060957 0.6037037640206764 0.11148611839714993 2.353601974908495
Ni 3.84152448680006 5.650077063482695 1.4340776801364414 -1.5777854799475473 0.6932090072713609 -1.0751618084993484
Ni 5.130913570644982 1.4778091306350802 0.3663741424351291 -0.37201214507550767 -0.16375921676925348 0.3263550093580251
Ni 9.056235177424238 5.997960413791438 4.511889556625338 1.0645837758731858 -0.4285514749231329 -2.492383695796805
Ni 7.260084794006369 2.1621156924909513 6.830053376406953 -1.1039144551520086 1.006287354125138 -0.21328200608972947
Ni 6.126601157352604 8.894357287606317 1.8198846692011053 -0.16706745520688002 1.193766025998518 -0.1364417599012231
Ni 6.870705314757917 4.426558625576451 11.19569766027052 0.5998676781040378 -0.8583113683320703 -0.9152921565924881
P 5.564871434828887 8.07654422494971 8.124109745814566 1.716770317985598 0.3609767131969525 -2.2272109143750547
Ni 4.3518527888606595 2.8238495309121294 7.2323801600695665 -1.1296437415973126 0.02366340505521086 -0.7960269084705517
P 0.1668415109718954 8.957968831969481 10.56269831342745 -0.4137187807856746 -0.11143238234107906 -0.32103745379985354
Ni 3.2828678741118593 2.253559002418042 4.876934761979811 0.8371051665681002 0.21644960518443368 -0.43454060262703226
P 1.6014011937521813 1.873289098753444 8.014944835835994 0.5807085886770837 -1.0272287322634954 -0.29491890233593077
P 7.931751362431631 0.8068486457791703 0.588064261658852 -0.6887885096061621 -0.32327739887396584 1.638963079898132
P 4.866351739983748 4.191968761971735 5.711049940621018 -0.08089539009448649 0.6650207177626031 -1.2416363673172357
Ni 8.319173563391987 1.8124762794190548 10.373991077206236 -1.905485947589873 -0.17942443411033618 1.066909338682569
Ni 6.579711081047143 8.805484048702382 9.988759381619708 -0.984777247967504 -0.6027714820143941 -0.910854946756741
Ni 2.0110394178984645 5.884776681010107 3.0960840753859102 0.9673307703562823 0.3094222381584284 0.7593544927501824
Ni 3.3090716231557793 6.920304941656758 11.414710698396457 0.10047254089546567 -0.23292420580068915 -0.6976570157403855
Ni 6.867485866358803 3.5758925553925285 9.05771319691656 -0.2710143278041913 -0.7323771928303903 0.5077756479627835
Ni 5.6751283963382955 3.7554865575657983 0.3182049749954396 -2.5283644847667874 -0.6492076619897464 0.057670615238591
Ni 0.03056555285510546 5.090386934689098 10.017459117788963 -0.9253919640306515 -1.1780036209579388 0.10565922730272771
Ni 5.336208283049811 7.255877560302983 12.312746561616423 1.1480525831218034 0.37342213804915686 -0.10120170575200636
Ni 8.598570465937772 4.071065669960712 5.761288884119568 0.009913659569286153 0.39677623939406503 1.4811834777510813
Ni 3.7744556938719382 4.06963886896565 3.1871780019924154 0.7408590050491564 -1.3800712463890876 -0.9719304739118231
Ni 2.207380039443259 8.533358343535276 8.698838905865728 -3.152140336946991 0.07723953850945407 -1.0008535847040763
Ni 8.06097746024718 6.969099706455821 8.674315306455094 -0.17970391302396793 -0.1586686896202235 0.7722966547331475
Ni 2.8402028653939895 4.843294270057143 5.031974982413706 0.052267441945148686 1.158892868270417 0.848381767923184
Ni 0.7482016371860026 3.2982151309689964 12.926348731854834 0.13693772570103513 0.20966189283863892 0.2551706759037154
Ni 3.8529206024401033 2.745238283780368 11.33878384929066 1.6328541387869169 -0.49373742470216264 0.5886692382850571
Ni 4.171737455554579 8.219425539980818 9.61396894254576 1.2559175598265984 -0.7312045126785278 0.35443042743800246
Ni 8.33164892593855 0.2516776347526238 2.9226646459803716 -1.518540578243301 -1.199673906842521 0.0963196950693567
Ni 7.294648133495715 9.069460525109232 12.01623902252217 0.20774230721842285 -0.09182643518469347 1.990516700008972
Ni 0.6343767585729163 7.7214537003838615 2.9106026898759665 -0.3061906185950081 -0.3035287554921289 0.9217865060675803
Ni 3.679125265849327 5.210988203412704 7.314906878393545 -0.3393444796391575 1.128880381068727 -0.12758662350343836
Ni 0.1766507678129441 7.996442153701317 7.223330949143196 1.6837578676153198 1.2948499752257376 -1.7912176384618956
Ni 7.413136639207403 7.036058745461244 2.0419506956100655 0.3273734233202104 -1.4537073838179997 0.3741523313469621
Ni 1.1156577703757202 6.946161136612138 10.768954287271901 -1.2121555842492997 0.729595259209879 -0.8738652569062693
Ni 6.528959037959983 5.076402455705449 4.411920196136732 1.15555943302181 -0.5011414304757176 1.1365980614279585
Ni 2.5874853122238113 0.09440758045593348 10.774951424531274 -1.6889193572116012 0.843908819753495 1.8915909347753357
P 2.6754164966245964 6.128210881552161 9.287636689574606 0.3881270483594993 0.29225009725451606 0.19123762469518032
Ni 7.20300360804368 8.940646004503797 6.191833401307595 1.1374532103394022 -0.9732659048937947 1.2242287133637497
P 4.2115689833333825 8.57857695968646 4.901645857675051 -0.2779359946246891 -0.6903165162149143 -0.27608145791445354
Ni 0.1116737017282241 1.6491624424458469 5.849370980164063 1.347950197484827 -0.48510880249288707 1.3930375767417686
P 8.82342881506335 5.100191618450034 12.44445401270095 -0.6034037162817544 0.5575468058486398 -0.5167236011846907
P 8.66855688397759 4.996117461252558 7.8295841796410155 -0.5837538032613109 0.9105947511168188 -0.32051783385095767
P 0.02729305672668847 8.844949730072196 4.998602472985623 0.2174111977667546 -1.1932309794306546 -0.1419385213497362
Ni 7.582752180575467 6.900430335488367 11.128109365441631 0.9638350984981982 -0.8418110566842018 0.4027820792685127
Ni 5.686570242779463 2.7573203614372686 4.254764468842851 -1.270594702222799 1.9300217279477085 2.6196934114897723
Ni 2.7855819965317585 1.441416559100784 13.078069810743166 -0.7528835403138583 0.11483369471314417 0.04208098833045011
Ni 5.954296644878464 6.338709759124875 9.360216958654163 -0.9016797080153761 -1.0489746085810192 0.4682534214984452
Ni 6.466609663707835 0.675341495603567 4.197859803772499 -0.6310782993788873 -1.086573906991032 -0.16854506819367102
Ni 5.624092822284169 1.4101183988116759 8.512889236952276 0.23465918621392487 -1.0223405509332586 0.5339613052192159
Ni 0.20894768879859546 1.0143457535661198 12.438390108471937 1.3157337606532824 -0.18675824876758804 0.6978249087768176
Ni 2.381861338050891 0.5339665531614768 6.241858324656887 -0.773131749039933 0.5685107610593112 0.35237045958518026
Ni 4.767582355716629 0.21774812416685382 11.632104866162614 0.12417528382904419 1.4947164792405097 0.2921338833916259
Ni 8.03871570626013 2.507108856168673 4.159280385328464 -1.2211356762607228 -1.9445291775352638 1.1032086873342355
Ni 1.8329362398418294 7.38236895621133 5.2456210537197565 0.5848238963970379 1.3112145326266902 -1.0485773731426005
Ni 1.1278130173144183 3.199345138939406 4.056874487755983 1.1426180423697934 1.4363236411239133 0.5923592855421347
Ni 5.206085861532236 0.9415789028179768 6.1389310959515955 -1.2730431637632915 -0.47162413774289097 -0.044618152930007024
Ni 6.423183694960702 4.712778563649903 7.197066835441792 0.0640592923737542 -0.28398605747351086 -0.26399007396755825
Ni 7.910212155102335 3.8195188252993018 1.0642545206805576 0.48333911218697406 0.647459054729756 -0.2472884449421612
Ni 6.7554179651248925 7.465233167847603 4.200429874795654 -0.28095446973603877 0.5104120571443661 0.16363940336193752
Ni 1.4562424848251103 0.9711392926643818 3.7514256624260076 0.6106832806623032 -1.3079183783739217 0.36700517877921957
Ni 1.5170278656788256 0.1521847892117271 1.3725404849122513 -0.2711541958161653 1.856774084206467 -0.20974313969853556
Ni 4.587695676416167 6.295219767256169 3.81288237144022 -0.7936468382741493 1.1395378607825728 0.5178962813365532
Ni 2.0487398903449003 4.0264598465445856 8.6665511310403 -0.16384457739420816 -0.025478860997394832 -0.8406993116772618
Ni 7.946376072631012 0.5574246249059259 8.444271084482082 1.3351494461757327 -0.21239060462371162 -0.8904193046102084
Ni 7.755449977939272 6.4973133235823335 6.143308448235163 -0.1862885082200211 0.08834387595273172 1.960063268615121
Ni 3.293020111961336 1.7347247713484206 9.417804841893306 0.31049515950763296 0.19915559399067637 -2.213333385062014
Ni 1.7609102280718916 8.250302976899588 12.5923465089192 -0.0666015991796337 -0.13250128719623633 1.3667495895795172
Ni 6.753607025400391 5.522881413237041 13.08241972454606 1.0999973794857896 2.4853414442380424 1.8128706979552973
P 8.529013917428518 4.1918407157285875 3.2071102289702216 0.18437535035770827 2.5480591349822372 -1.4434132009808431
Ni 3.1729767590114397 8.278015842380594 2.892919503697427 0.1913623231985027 -0.2535058866067828 1.677398501056195
P 1.9454888875676524 7.2181862340167715 1.2156664593532929 0.31985320368376524 -1.1284528066130048 -0.5226348244628031
Ni 0.2505627178212263 5.682728855485067 1.534086369114014 -0.9188770457302691 -0.6716672765448432 0.04434947264965265
P 3.039735496857223 2.337045152949597 1.8724668589492386 -0.19478394728554196 -1.0061068626832157 -1.26216354073631
P 5.452126717738343 6.972154523970889 1.0755207608454096 0.5654773735496261 0.059584030211219954 -0.18036880030147645
P 5.840115980632634 2.235385582051456 10.537130222519151 0.29671276101155997 0.004994882111430107 0.498001085074523
Ni 1.3808964168935867 2.2595588835254805 10.815096665605784 0.6919098288439632 0.13771831262080153 -0.5156619926893958
