# total energy = -340859.5328952946 ev
CRYSTAL
PRIMVEC
9.34480568467264 0.00000000000000 0.00000000000000
0.00000000000000 9.34480568467264 0.00000000000000
0.00000000000000 0.00000000000000 13.67706770695441
PRIMCOORD
 96 1
Ni 1.2606609739860393 1.9629791694635588 4.542167890463406 -1.0081933128985991 -0.2484233298775528 -1.2184802409157465
Ni 3.6162527979920496 2.3496298381537213 0.2282590204134405 -1.0316158055875975 -2.4551608068896043 -0.06753979472318691
Ni 7.907125788223084 4.819293701813174 7.192742514479278 -0.8478454358037398 0.8242730478004386 -0.48456141462984936
Ni 8.61244366623757 6.5040499797717 4.167539313934639 -0.6858397113904834 -0.13909359570177335 1.3911771264942623
Ni 7.092950271974556 4.631790181239215 9.609849323545555 0.5044985198734085 0.4871605428155933 -0.4553914779341125
Ni 3.5169175164719313 7.173296908899295 9.738495521718168 -1.43768066937244 -0.6360996638528787 -2.7605852367425485
Ni 0.9583191397149277 6.9516194349369 5.639656413724398 0.5358729204196319 0.12892745380204892 0.04966240022213383
Ni 8.563757230045677 1.102668348900372 10.653464109130947 0.06431897379304406 -1.0499788814758175 0.35665777410662447
Ni 3.8955129628977154 1.3978987862536274 4.828825403332507 -0.7423291618367795 -0.32431972409555115 -2.3584716442959706
Ni 4.719537904049555 5.05536217610868 7.941356744924528 0.1716188220229883 -0.03434299625624408 0.6009912501855198
Ni 6.97767275242308 2.9047299691845847 8.088904681002196 -2.042483837104882 0.4621542505792427 -0.5117978817482992
Ni 1.2446533223168048 4.112695585457365 13.16806153512919 -0.9077266855404045 0.5292932103195852 -0.3958190176871183
Ni 7.861681999508846 0.581979529315386 1.7298477675087647 -0.07438792799327189 -0.380976296247331 1.8602509870114738
Ni 5.240333254416227 0.9369756041559482 6.471591732656744 -0.42008688909554753 0.06629563790344066 0.2192999301490352
Ni 2.7244593279988267 3.217220262132164 8.840774641652676 1.0058515521392999 -0.7689138543038435 -0.5051706062397687
Ni 2.2610410828563814 6.619981635701953 12.127866013843724 -1.5869676606674477 -0.17688032753224375 -1.3870944717844562
Ni 5.97150820900326 6.22315447391909 3.8531305324361584 -0.9601815609060109 1.2760487833588345 -0.7033417248299887
Ni 6.466708137348898 1.8063321963570913 3.8739199210342594 0.6751534353212308 -0.8847176262397408 -2.018645082814072
Ni 0.9584219325744499 7.539445074517478 9.984259231627702 -0.5079229721739252 -0.6069991469424966 -1.6269166902565595
Ni 4.766953446705536 9.296829180131166 3.304379262201604 1.3310315673526172 -1.590403940042506 -1.441155258184602
Ni 5.859426612902386 1.773700135861489 0.7994864166228012 0.6774663997251236 -1.6305501732440888 -0.6688151518080289
Ni -0.23581616454940663 3.4713615900927612 3.215109270589794 0.7816392722903119 -1.5341600299481126 -0.8256347040346554
Ni 4.932253709622693 4.078652459344685 10.362183721024968 -1.7848628998884617 0.5088071745510915 -1.1181871630209388
Ni 7.458846127846639 0.9239405350879885 6.207556124726862 1.3550598119464146 0.15749395258583196 -0.37503062018685734
P 2.5106875594142335 9.019428631502311 10.420037411325161 0.5559110700174296 0.4000227713558207 -1.106056698305992
P 4.9921726019187425 7.937664612306596 5.005300184560272 0.06649772661191773 0.8002594584946605 0.07391175968780174
P 7.232057045324367 3.140994684393725 2.0187760680927664 -0.37685790320358326 -1.4183878825810992 -0.3688530306212357
P 8.26405997570591 4.45087474848009 12.573697335202457 0.023986335612268365 -1.1059870214103211 1.304579800918992
P 3.698748740161345 3.3510378756192853 6.937091065964245 0.5972821767650488 0.26262918906428967 -1.068912999376159
P 2.3151475061867184 8.01838504144778 4.115142055513994 -1.3312953625369652 0.525623731887798 1.036597575072905
P 8.236128352332097 8.335444944241393 11.087013552737856 -1.3340729252821024 -1.2786774792309334 0.1076340916409114
P 5.7738095057257794 1.072419213784603 12.20016303538733 -0.9780651260546511 0.01510754506539979 0.4932473724396214
Ni 1.238326889053482 5.529573671500961 3.305528673267171 0.9670502630013862 3.7053867156480638 -3.8288109802436963
Ni 7.182174474039851 5.703648706699151 0.2049484033154221 0.6559367531834639 -0.5911426395262143 0.3657327398246991
Ni 5.48645673933409 7.305955766515438 0.06054499425859344 -0.8938843803406733 -0.4679685432681747 -0.5145564183300428
Ni 1.0375163655741002 3.644184421365863 6.885760984321549 -0.7635849858917624 -0.6756974807501589 -0.40637622437767434
Ni 3.355205658832641 7.2483170067397005 2.560853278302705 0.8985756151687556 -1.4059118616012753 -1.6633682482153742
Ni 5.584025852631509 5.406558653069085 1.641658035402479 -0.04181642181515379 1.9568689300475397 -0.7085456376284313
Ni 1.0562059763963239 8.099385814751297 0.8073500703762518 0.5505125247096777 -0.2589597106325024 -0.6550576930126203
Ni 4.046936189779371 1.6405179691423233 10.700294666968192 -0.1902696043549562 -0.5169367456367613 -0.6798084175947389
Ni 1.6952878736568497 2.222587208589656 12.104026480759437 -0.27719654535550325 -0.5763117451609688 -0.5709265695896555
Ni 3.4308705482464137 0.7583197453452303 8.203970073470838 0.611570825473579 -0.7474284307365578 1.9842249534629892
Ni 1.6740377861519815 5.797349070556369 0.8908431032829126 -0.49962447961055884 0.7986869718012181 0.8971231989929453
Ni 7.168521713334218 9.28643775651401 13.30100260586875 0.22483500103465148 -2.6200729063163783 -0.7464781510081466
Ni 6.812372489505924 6.211454777544378 11.561293265209638 -0.5870859529583372 0.9921653129014589 0.8841057036873547
Ni 7.519736879905444 9.480491985681159 8.717106421322564 0.23144299326947237 -0.49593957455980403 -0.042649716349726544
Ni 4.906247116163569 3.3567195173092412 1.998862287761687 0.02885857610290514 -1.3312177152214943 1.3573131267569656
Ni 8.869248263740333 1.96635264421697 8.159888757385541 2.7572014078719804 0.3330578752994974 -0.12424341806281827
Ni 0.3625709741068095 6.0840009765422245 7.867528109774038 0.20302793246188908 0.7485324624340141 0.3718599357683596
Ni 0.7646443096474709 8.791247172973783 11.886232707925899 0.17297867848499243 0.9443687622434704 1.6365976649897493
Ni 6.431141807954205 2.270974611008393 10.598865214555444 0.8207766046114058 0.0635144756138777 -0.9599900137204951
Ni 4.653171096019839 7.394226798428801 11.526307248230975 -0.6687107650196806 -0.9856701920954184 3.904715344881495
Ni 0.13969736505179273 2.1769845581834306 1.1625180896363785 -0.6619245953357826 1.4745441180576928 -0.5789306708410545
Ni 1.3700232317122807 1.551789041763817 9.828490670229879 0.5213865538779987 -0.9223914866414309 -0.6880444323512861
Ni 3.004588559807726 8.681763432777197 6.072850754725685 -0.4848817740837456 1.3405569903445493 -1.3680238283062505
Ni 2.378598734928168 1.6633566735670806 6.464466318530771 -0.7329441210774538 0.6189401213544566 1.4631456464127641
P 0.5282889498258431 9.359663651715481 8.261891980850532 -0.28807925370627807 -0.15050749396566984 0.26973288998860645
P 1.2663893397030508 0.7935403169397108 13.732322378904566 1.979749434190139e-05 0.03712004478074898 -1.4400627964513715
P 5.615368329980378 1.3695653362471363 8.56825862281221 -0.7543207869810169 -1.3539820055012037 1.4039956184151692
P 8.001583081318602 7.184295744868173 6.4306558780728285 1.996223263475446 0.2718450512356028 -0.19386349235380163
P 8.33229574481785 0.7375200774611776 4.10589630504024 1.81517569193939 0.5052418257973363 0.4859130435617374
P 4.202938371312472 4.950158356790384 3.0941491748678214 -2.0337778246904525 1.2688152417248728 1.884063001829407
P 3.8511344820003455 7.268118649405847 7.204545938194053 0.07812142689377513 -3.2522791486521214 2.397972273493754
P 3.6489689617363523 3.348253123606774 12.034697369414397 -0.8988859473203229 1.38087137369288 -0.9839028157823506
Ni 7.004585792007082 6.993820576173482 8.405118878906103 2.212109539957242 -1.1479541098707262 1.239783116158581
Ni 8.897394817638602 5.632048807639213 11.015810807907888 2.90612561651093 1.7038788067349107 -1.9852449100870715
Ni 3.567949498822013 6.124277087864116 4.918684117685217 0.6803671183116863 1.1641841985763435 -1.8604116809590543
Ni 8.69716367209471 3.3526358373445855 10.812693051972504 0.9648175170161255 -0.6149628818742634 -0.9831003744857135
Ni 1.6128012762929658 0.5507688137228136 2.0921122319980894 1.9974617638682375 2.194216975947537 1.6398372549729696
Ni 5.618097013160422 8.667428501276552 10.136430042942246 1.6708648137027353 1.8062655339339537 -0.5067754888330434
Ni 8.908524480883237 6.935714576127188 13.11736035889066 0.2604170119043192 0.3908925269197784 -0.8799042640114976
Ni 7.810061294417865 5.125831353713874 2.681457336938514 -1.5354232129312524 0.20285772543261194 -1.7089868173854372
Ni 0.4174193749867892 8.401680924995354 3.1968233553613308 -1.8344054867032793 -0.4391853004878952 0.8408587200732616
Ni 0.5938539735512858 -0.005020963947390378 6.099438595081381 -0.5764127895152074 0.31358845372097605 -0.36559390025398975
Ni 3.2802883538517578 3.552595983531556 4.667873278373141 0.002771392097550066 1.2589267789665672 -0.16018409782348544
Ni 2.9442024272411214 9.537121506472495 12.397509439500814 1.5449085267138685 -0.5923762548229992 0.5805592075834131
Ni 5.52410696033546 8.463207123822114 7.81422814315068 -1.585812978237714 0.8545863540719992 -0.5386065173007111
Ni 1.9953028513805944 3.494658189982663 2.0061792703985875 0.6206581324868278 -0.223930229832195 0.5166508389652263
Ni 3.72299851020318 9.202128922094959 0.8803124420651307 0.7569844498561092 -0.15300789179002036 1.433189980590938
Ni 8.483578799618337 3.378735878857821 5.419906773118317 -0.7453918599225033 -0.7289519691989252 0.34829089019916787
Ni 2.541431969216791 5.360638279278881 6.719639313008756 0.04068153687976219 0.13239947151104942 1.4665521009911517
Ni 5.647841528783991 3.0288383298495614 5.419168533490839 -0.4807924345057204 1.8950367272320914 2.311109867182555
Ni 7.17930561877864 8.262443324369789 4.48077158443186 -0.6997020711948724 1.0643210091301025 0.661213428201371
Ni 3.583003980339314 4.538678540122897 0.3666574575130887 0.17742900094686218 2.3644453453809025 -0.7454309406905549
Ni 5.616452327408067 4.110920072429254 12.544824689923745 1.2199874215888924 -0.02553542526694312 1.5982684303922474
Ni 7.652919046624609 2.1315407694691935 12.97037311113766 0.9672631503431407 2.010272285369344 -0.6542966464768796
Ni 5.952884011818914 6.43596372754634 6.358646676535883 -0.5062898074458765 0.07840836200657464 -0.7780865219420471
Ni 2.3906815683247356 4.856186993576243 10.437079532953407 -0.17238449654441926 0.42981465790627266 1.0345234661526956
P 8.97705928376833 6.713896930083627 1.7776361679006494 0.7492487717747484 -0.1124749646729805 -0.36478168876533956
P 6.263234344327349 8.208860210142474 1.746780554913699 -0.055048861345027775 1.204542547788732 0.9102448239765678
P 6.826913006725613 4.836600281434553 5.087472796462343 1.4275500086963415 -1.7004504977796522 0.688318511948279
P 1.2364672727766706 4.26797821697381 4.675136061138658 -0.7011218343605344 -3.4987201579923224 4.413306546767038
P 0.8767371195148392 4.309805565993947 8.940507077402767 -1.3782714741761877 -0.08300060936294737 1.358065431541958
P 3.2349193235808102 7.20183594462483 0.09074740534730681 1.1312257413724518 0.46244529945710033 1.261921342818517
P 5.573484912127775 6.202969694231089 9.826384351090214 -1.1829689353830144 0.060008005122516014 -0.15254509322098891
P 3.6765641721153655 1.6691224185057365 2.4822372993401034 -0.9213252501604455 -0.5386630815702594 0.2008502080842799
