# total energy = -381162.6824442659 ev
CRYSTAL
PRIMVEC
9.33106420106142 0.00000000000000 0.00000000000000
0.00000000000000 9.33106420106142 0.00000000000000
0.00000000000000 0.00000000000000 13.65695565668589
PRIMCOORD
 96 1
Ni 1.52951073031458 5.177480974255103 5.473857969914732 -0.3360233856857245 -1.9332800869840059 1.4881120865501147
Ni 5.003279335463021 2.834488061183348 9.547209039212689 -1.9883639153320274 -0.08200816354269103 -1.2982816266151058
Ni 3.7221335427310027 3.499018465053705 6.86552928577752 1.454084307541444 1.4394210491023145 -0.2002603970190809
Ni 0.8148865079292896 0.7328337943014481 9.569305932502287 -0.524510187108645 -1.8963107088485083 -0.5764351581127105
Ni 2.3568308813790377 2.518472907668353 3.9057660881772795 1.7536731045492187 1.3741255703286142 -0.3955773339899574
Ni 0.6117380415695396 5.066683917154178 9.233140345703694 -1.2121049335170222 -0.6782575281678512 -0.0005910966167796272
Ni 8.29180765279206 3.9897484658954414 6.5110906758257565 0.14160376371813677 0.509616043605632 -1.889958027157603
Ni 5.929378132853098 4.638294756677212 5.746792532817527 -0.44679602295561766 -0.6401257542931363 -0.47195375316816784
Ni 3.8179915659411936 3.6087517808282445 2.3460059137234217 -0.8117371201169568 0.03933916391925483 -1.118249640827758
Ni 7.975325946063739 4.973886483023413 0.30570992613902526 -2.5846562173799814 -4.291332898575003 -0.4665456947787191
Ni 1.9498565133937866 5.1431706509470265 3.2227275183342354 -0.368163717863695 -0.14071081959022216 -0.9118584483205909
Ni 8.34025453846395 9.128673482601192 7.940850462918145 0.9664414257727936 -0.47940789545336787 0.8845255648335928
Ni 5.307714638223238 7.056188122616503 13.678943644519974 -0.34834874002029687 0.508584259907008 1.0085185574485018
Ni 1.2987441799387176 0.7632465320653902 4.6044285920282215 -3.2523064023456305 -0.4311614017421542 1.707979716277162
Ni 5.221113030765455 1.5636251012730595 2.4573236442104203 1.1731046409944248 1.7351251663437022 0.2134000197248325
Ni 8.041455198520724 8.501868571560465 4.607529304683994 2.362370208019428 0.39074366004673994 0.5032692754519977
Ni 1.3341462377659798 0.41786838551643946 13.500733380518986 1.1395224341636052 -0.30681462533225223 1.318734238042503
Ni 8.97970304158584 8.288187199856642 10.748270039770679 -1.3751612106819802 -0.45353437012071574 -1.7767171308528757
Ni 6.895143284440246 2.300405935759255 4.607091677769893 2.893007591071734 -0.8552723243954302 0.19827936203331015
Ni 4.367078042705887 0.4811115397957845 9.811935064880206 -0.14444560404230608 -0.3305423079664953 1.403849579755608
Ni 3.9851109269549703 6.560242056849769 4.881911115654529 1.139931496676566 -0.6496133820685974 -0.8271639961949884
Ni 3.256821360951328 9.13490663353124 4.697282945651013 2.8271683239794214 -0.5428254404780651 0.14829968768107363
Ni 2.2167062892883687 0.8193588870322434 11.37515146553839 0.6029877117902582 -1.231485137815847 -0.5094455794660387
Ni 2.770588933086065 7.430186509483793 2.8903578084792714 2.0064410845487126 -0.9150818403538951 0.260130591012152
P 2.67474024094014 2.03099944825564 0.8865098910264165 0.023305764605475992 -0.015257954600335013 0.7112807771714073
Ni 5.96321257188358 8.882053454036473 4.272824029443115 -1.2889369521754124 0.870705371121049 0.7575886590990114
P 0.2375119767341461 5.986446921907272 13.38167273290361 3.421685793515139 1.7950637516808634 -1.238391378017377
Ni 0.18914067268281642 3.2985125560942397 3.9916687989214963 -0.5376832341554934 0.1775642409731458 0.8752050587636152
P 3.6181761557374528 3.52369913003871 11.0692222593891 -1.5004307560164676 0.3650681096575068 0.07701739519631896
P 8.785784863998554 0.949295823156701 6.087683370560697 -0.16257393821190066 -0.09390157254616731 -0.0597264693263552
P 8.895695469994159 6.955813864301305 8.597286168537275 0.7664980457734992 1.0527014226133031 1.0685314476670242
Ni 8.036201809338662 5.883982505196369 10.451804399000517 -0.3534032717250688 0.4609057228841223 0.189129577213242
Ni 3.4551531319366884 5.711917680121325 12.177648186334565 0.008553803107282043 0.6819756004493868 0.8500936084079683
Ni 3.76694131333894 3.40222733541686 13.218895116093055 0.4001682957947495 1.610766048638626 1.746397911044044
Ni 8.851643515591812 8.50053422937035 0.5474572729437549 1.1998849944120624 -0.30144487637990663 0.36199769826229916
Ni 8.562343199071927 6.80191662135322 6.471908603864118 1.2922863282636197 0.6490263992168758 -0.7663136976768351
Ni 2.382799233232825 8.618534868085046 8.633026010890987 0.629064097162336 -0.35261420016487016 0.2672494614451204
Ni 1.6764749925126243 6.3923108932448045 7.716644583828087 0.10784517921045299 0.62785645000748 -0.9334544293238118
Ni 1.3775170244768693 2.9668025524829207 10.056995872605984 -0.5588686099838568 -0.1118859249387299 2.576596580300298
Ni 0.879259654091313 3.3003787689475486 1.7016567356487426 0.5660828683441089 -0.390377792066889 -0.34233981482205555
Ni 8.78134327740768 2.450888009185786 13.543097345395516 -1.2005604232125322 0.30505907609372623 2.5304064548974807
Ni 4.71985758943106 8.843338868394587 2.4957405689022023 -0.5043553094273249 -2.9716900326753013 -1.3728127650544615
Ni 9.129979831598508 2.848251380976498 8.271430474646785 0.8818832421147392 -1.1066747915059651 -0.9830890616318037
Ni 4.355656820043639 1.664549892379983 11.8219526820261 0.701578719392295 -0.8960803595507276 0.32215356968216774
Ni 2.1113679047833704 5.175932017586858 0.7893968396723755 0.14223316977201955 -0.6848824896835365 -0.7425626180038244
Ni 1.2021116783944035 7.435691837401053 11.953564544186401 1.4140090367871132 -0.5213078781212634 1.3959210689371506
Ni 7.376971449971701 5.569926875177347 7.962784062583079 -1.1245547571101793 0.7553669688573442 -0.12642114244042743
Ni 1.3969536313440774 2.9965033300433253 6.6675035737001025 -1.2885150341466456 1.0300572028512258 -0.6108627436629609
Ni 6.640283926128172 1.3475549771170012 9.24020022892776 1.292465277043645 -2.2575663867384606 -1.1172816204875338
Ni 5.678372504083105 4.862305616524097 0.9152001143267547 -0.8765276342297806 -0.06057287648705053 -0.07494842848243222
Ni 7.241568376399902 7.2906870986989825 1.8041659414681253 -0.9407874726501152 1.0870498181861858 -1.1215054287608943
Ni 2.9106575387911344 4.243712042037928 9.085276568910356 1.1940228792043306 -0.2902770326885452 -1.5580237239395878
Ni 2.4934563243697525 6.190517297416556 10.005632096244375 -0.09270575246585325 1.9015963827274798 0.6334655686641413
Ni 1.8129324763465418 7.290743085084581 4.939215980634647 -1.952424778233257 0.6232822003732362 0.7305812772722321
Ni 4.367731217204545 7.518402391059685 9.52632798359702 -1.832265043321509 -0.6912233442999 0.9697411795699881
Ni 6.534395008831447 0.3082059858303254 6.626232276449184 -0.0360779766694798 -2.165175080189232 -1.6013280431541774
P 7.704118563156681 4.364539993225388 4.196290640328933 0.7484455591471626 1.0429674831549909 1.021187411165422
Ni 2.9328094853599063 1.5456441404314318 6.253793110420834 -0.07941186357042453 -1.8867472335297892 -1.2319399659650783
P 8.657118818827199 2.012337319722555 10.106324543851063 -2.3929421672690143 0.27001545422603174 2.082261888333769
Ni 4.963995554900877 5.1144496351346085 10.429175635047725 0.880261133130284 -0.5519253458968042 -1.174146451995378
P 3.5192202191907698 4.450087190421049 4.592738634715097 0.41465749054986006 -1.510174722777109 0.3584254075300085
P 4.932017997659436 6.527210089346209 2.2512806817151887 -0.28134142076181223 0.19583707114040466 -0.28448973658280685
P 4.209280414894387 7.945438547218004 6.465612934803483 0.43593671164361053 1.0377597137018062 0.7157665808569028
Ni 7.521929533352439 6.807552584170212 12.706568367006406 1.6843001132720345 0.5377513683892674 0.01643757673073298
Ni 6.869781451763783 8.955479598749896 13.318782292853541 -1.3184812414914326 1.2723139989067507 1.1019886988842054
Ni 3.884410081390443 0.06887258535135019 0.30097907655588824 -0.24006878726527042 0.037595955975903 -0.8585432818372182
Ni 9.085825235489228 5.798108720751378 1.843334016833364 2.4817796950287128 0.834489326211808 2.1956107709712707
Ni 6.196022625333816 7.955991980903463 8.533507411169031 1.783967898878018 0.5877708948405038 -0.9233471656864808
Ni 5.856409210288735 6.978712296011401 11.263273871195398 -0.7933107950909692 0.551653066072024 -0.14640067088614786
Ni 1.5976088373318074 2.634010145416682 12.73344463141333 -0.4243384652830498 0.748880332691736 -0.3904664951259534
Ni 1.8544930365897223 7.4630691799590885 0.9389691343329185 -1.237033835548218 1.0367222735762274 -2.017403239987171
Ni 2.4682904440428874 0.39701998862570353 2.4218012156541198 -0.5727919049331683 1.0400999317992088 -0.8304125850392731
Ni 7.341522736823106 3.7347304794908354 9.309523504683185 -0.4787067556212853 0.043824710494434205 1.0441723020963696
Ni 6.5759928933316925 6.306138514743284 3.672286997419133 -0.35037862596613206 -0.6888484163098202 0.8486905574128545
Ni 6.4868625674576785 2.5360339706179866 11.215515618066382 1.1202059932231805 0.2104566208257924 2.588903165581793
Ni 7.676311991642384 3.1287151796359662 2.087192983481612 1.18406833909478 -0.6925716307976781 -0.5842058031970648
Ni 8.994819365697639 0.9055014061281105 12.025045162000248 -0.6928338833201294 -0.6278078561577316 -1.5696888189823417
Ni 1.2266337152868771 4.841180087024645 11.67632836065673 0.8924921279788371 1.246243012851312 0.530420381945493
Ni 9.202136951571681 1.143661891828781 2.7793955915408275 -0.9029128090915288 -0.6990904057528025 -1.3250956614841565
Ni 4.376147837172966 0.45959130627785755 7.6236269365806315 0.8813471671056112 -0.5084683031544339 -0.8831050303369823
Ni 1.1714124769574787 8.686390367431343 6.640708489552298 -0.5326757536385729 0.9064177369209938 0.21648277241521424
Ni 5.86708394780966 2.5287277472972836 0.41966088296204224 0.8581727858716769 -0.6093576198723442 -0.7817161482748344
Ni 6.259333896382307 7.033793568376801 5.798101255899965 0.0881495005537385 1.0325416598359765 1.5564738629539645
Ni 4.725969436525644 5.97951394115723 7.520981497222959 -1.2127315113574275 1.6683163362492688 -0.0073474415040067015
Ni 2.5353994582478614 1.7720437527305526 8.524194075924596 1.2192479723197067 0.24123118300448776 -0.4222530435089309
Ni 4.796017735974579 1.9452936229674471 4.783225779971577 -1.920356179833486 0.0059436191779446024 0.5505078967239874
Ni 5.944877030599824 3.9595344798003773 3.1958092641381133 -2.384001670246275 0.40364982658544674 0.2915805819913172
Ni 6.6656830830617 9.09823555096373 11.139678326346484 -0.07790056913222068 0.9130208440598082 -1.5895889003403785
P 6.553868939955721 4.6645523715232615 12.376998909537832 -0.7812443508447384 -0.2174821602140061 -1.0830936617519153
Ni 8.619626602604232 3.7313059789050143 11.692716508828058 -0.9034558260791924 -0.17584957227488426 -1.1703556174943779
P 4.020522315846499 7.943889590549757 12.211216690033451 -0.7149235161303171 0.24221385863273123 -0.6390587464812026
Ni 9.010504884729697 6.333935755193314 4.088837836661136 0.3430155007328415 -0.30179017553446735 0.30978424948353744
P 0.7893035290297101 8.384474452023094 3.2915450504064125 -0.6635713869105863 -0.38202530633713566 -0.36610683533466626
P 5.643875559489698 4.251036927487164 8.028787345672468 -0.43677206306071226 -1.6761715706276294 -0.023100076352573117
P 7.161302561579104 0.39928557102962003 1.7204215058887598 -0.1161876376378773 0.5160474010532725 0.30152380924695815
Ni 6.4369227115031435 2.3762861503747787 7.032826870118788 -0.3662901549900659 2.6822442376388 0.4652894537741148
