# total energy = -381181.1395851193 ev
CRYSTAL
PRIMVEC
9.10176198118296 0.00000000000000 0.00000000000000
0.00000000000000 9.10176198118296 0.00000000000000
0.00000000000000 0.00000000000000 13.32134867967192
PRIMCOORD
 96 1
Ni 8.106474981099733 6.23988568596334 7.656964454296729 -1.791473463226444 -0.17817899173900928 0.7039541616030071
Ni 7.849068057675936 1.0276344078768016 0.6286395688392378 -0.5211662103370766 0.38870786056363377 -1.1621769383383274
Ni 6.634110291679367 1.5114203489943396 7.697088660697545 -0.7296986175569627 -0.3313946286644615 0.8914899119665679
Ni 4.0169715209454635 8.442739568133154 11.914667561004494 -1.0778637808115434 0.14725813379043673 -1.8600751235552417
Ni -0.09913911926767181 4.635336110970193 8.950347550220853 3.292192182796975 -1.1470279985120309 -0.4884031569734428
Ni 6.493369750082458 8.556365961542959 2.2851438201269905 -1.2524152031002946 1.0329116415808857 0.3720288572460561
Ni 0.023512581071415274 7.544887180732996 6.225345621603186 0.9440532878855805 1.2940575612314293 -1.2185527460248948
Ni 5.132128469596751 5.273970324362723 3.93423377631128 -0.617209254706279 1.1959332088531662 0.8809005664864957
Ni 7.665257979583096 8.445834167120605 9.29383802588997 -0.28636047124295844 1.4702879138845002 -0.38145760675912366
Ni 1.3466784617212328 3.278882357153307 5.235636434493764 0.44256013049739906 -0.021673885429007837 -0.40727431071191145
Ni 2.807629541934944 3.1411453969265706 1.4799755825771501 0.7994367054830489 -0.21213349430758305 0.19887045865008976
Ni 2.21856352291199 0.4925491173090599 1.958744632630327 0.9244226581388466 -0.6783716851482123 0.4719326701222453
Ni 4.521427562946826 0.05094620109516504 7.4728631198286 -0.27573410187736386 -0.35941142559236167 -0.579609184965318
Ni 3.296039178010202 6.441771862847582 8.023008185351154 -0.22173090818803104 1.2088028657269827 -0.7386136606584054
Ni 0.6507832449467925 2.1072398752193178 1.3638798812105946 0.20026836743888088 0.35587230209085163 -0.9020540606356594
Ni 3.939524630403648 6.369767825818988 10.42895058712945 0.3271034574882754 -0.0027058289669372754 0.44199448780191625
Ni 4.522446960260339 1.7335488439611995 11.561638439044646 -1.1247910414907016 -0.0683769459125016 -0.10119347822189023
Ni 5.463086729542867 3.2988971311927298 2.7904763617827393 0.13221358075248843 -0.449268138645194 -0.19045909465794295
Ni 3.477619324479731 3.4183577538700516 4.022874013425939 -0.7005266239786967 -0.6267989552772432 -2.2213215454738133
Ni 5.882796268096722 0.018952598445789504 12.99738674103409 0.7394875786229264 -0.4801843686080763 0.2614241130125949
Ni 1.2091417402525082 0.07741867508045955 13.193756340135113 -0.696074244634298 0.38073898342554424 -0.7969879868322403
Ni 1.7230363091655954 6.80931010317771 2.0879350385946625 -0.873392945255541 -1.0568722661615413 0.06216876021926067
Ni -0.2860756525140089 8.803333164264973 2.1386627974083607 1.5948529769527953 -0.7365668054317056 -0.149196231353414
Ni 1.0090577121903699 0.932821355958351 5.561196439559126 -0.39255217401038844 -0.952436112632637 -0.17204356826523273
P 6.809838005357922 1.7674620081589674 3.658721628458551 -1.0200044466009144 -0.3876089710725002 0.7063424593295254
Ni 0.8375604973628932 4.047180268120019 3.0299409823125325 1.4334110954628088 -1.3287535699517181 -3.1190895771396088
P 4.384000062618835 3.441995029077138 12.910611454897456 -1.5299519054040362 0.5688766290391623 0.5784100224508941
Ni 0.8970741867724324 7.127125419188889 8.494504017607648 1.2343177221686354 0.5707980144315911 0.9054779987155437
P 6.909074513476082 0.6999609737382467 11.17920880635167 0.28778511950462693 -0.1360499237794431 -0.809833989556973
P 6.521985688954647 5.003283930578071 9.515478666428221 1.0796296144627149 1.6881547111314348 1.0995330382548612
P 8.321167336734984 6.896413962912717 3.183469499136995 -0.5605331421704733 1.084736853782293 0.8885547405976438
Ni 0.8398514107897793 5.087538938892278 11.677307267786167 0.7810227217522355 -0.9329142405496255 -0.8891077848876365
Ni 5.5380124320860835 3.1322438739567864 9.786115910699543 -0.04454461937959425 -1.0672348403427878 -1.2717645541611837
Ni 5.0442418583531525 1.8129435115127637 0.7730007912514637 -0.8839059289717229 0.04720185449678322 2.097947931610458
Ni 8.298740595837694 6.419681887134222 10.142768444003227 -0.7140588541371767 -0.5067248381007661 0.7062943797004094
Ni 2.9037259422570134 7.623371672111779 0.3327230915451359 -0.6121760631577456 -0.02300648819750231 0.45514593758220967
Ni 8.155278627484176 2.3047390029507624 9.22310186427006 0.4291608263723577 -0.9741629627867675 0.3544713079782669
Ni 7.881761585802178 3.8740556582956116 4.151145141455768 -0.8985984979868912 1.1013850038619355 1.9506769423042145
Ni 4.047362303354574 5.209074763243538 1.6745466735607624 -0.027269120128598202 0.04369975488079571 1.166814437110339
Ni 8.073135227890816 3.9222767919294745 10.868554756467923 -1.6471255611042666 -0.35489168334513715 -0.0012176744571849997
Ni 8.73992119030742 8.266547664606481 11.5736272795925 -1.5685451922962017 0.694696647560481 0.40486698682199956
Ni 1.311745900209952 2.9144478175723574 10.11921581518021 -2.2889631558821866 -0.7406641154295308 -0.4115533977032396
Ni 3.9434383879466 7.371225566966649 3.0492166932996585 0.2767059788723299 0.5791517857129251 -0.012504303114597819
Ni 7.564501477256396 5.681483502201331 12.344347169354977 -0.7117325199968452 1.2173039612194583 -0.13612577132270104
Ni 5.631460219745365 1.0864135851149077 5.533568041834401 0.12380170253970936 1.3672512118062838 -0.5428148989551039
Ni 2.2470884441669026 0.49558273449293433 7.3672653904388845 -0.1449423411730665 -2.3410264522363295 1.4097008963300623
Ni 8.925424196081629 1.63807136343662 11.605611780480146 -0.6179620737119036 0.13095219754156154 0.44118330475453044
Ni 5.891078871269016 3.891385412625335 5.666275368530357 -0.4174170555728682 -1.2139332449750126 0.23365002822312017
Ni 8.269533042453197 5.502069575023017 1.5871988866114501 1.5016887967932848 -1.6568666996514303 0.12292984145771732
Ni 5.74190099655044 8.133507213431287 4.557712646250858 -0.34835619621946456 -1.7422640913813285 0.49812655490879365
Ni 3.251067373313162 1.7970336320125764 9.28107644577143 0.2287245658970448 -0.699875363547943 -0.611394704907031
Ni 6.54774367464431 2.5782014340623913 12.560179975734721 1.2945195884695124 -0.6847122826542594 -1.748657653612498
Ni 8.038776077368386 8.99099328756867 4.497234170098172 -1.4290780153050937 -1.749801023188322 0.29162609051727195
Ni 1.622070466319155 7.193049479383315 11.217574552386678 1.2653627643998981 0.5829557328400476 -0.3562975625537283
Ni 3.019727895477773 3.9288664674203986 8.10714578093907 -0.35106485339987925 -0.03262447090324059 -0.1346792686841616
Ni 3.30773494183042 2.0525200837118085 6.009060457665571 0.41382188202244213 0.8445623941770939 0.49987824749257787
P 4.313579732130878 8.822437762131619 1.3381428295729056 0.7410870618995624 0.231856169547491 -0.21427985122662452
Ni 5.076616824818923 6.670617457969556 13.300926853951394 1.1101450094427525 0.22642625678117134 0.026135006524154993
P 2.259566959495711 1.4894486961834401 3.829194895091651 0.4595931747202858 0.5744032152843462 0.4819841408209764
Ni 7.7121320524812464 3.1011977647032745 2.0989254158809763 -0.1135910805552947 -0.7861572147653235 -2.0399266179006674
P 8.715282721310276 0.325475358681292 7.334641035701773 0.20102504309924735 0.5233233658893954 0.4589601691219773
P 1.2273998742784669 4.592676153752013 0.7886276059619166 0.46989507086692617 0.1053003013014122 -0.12977643206590553
P 4.9426844009944055 7.028489627344764 6.379220915549477 -0.17471725844265396 -0.034780340903978815 0.35914171687074276
Ni 5.2105037398348015 5.132610862968324 7.84012011572134 -0.35685677749130795 -1.2757700757761512 -1.4315411321336056
Ni 6.225814362332168 4.362319666183225 0.6955211343674279 -0.6614790231579318 0.43221915358270724 -0.2821754866273334
Ni 1.4597860547125532 5.47847780862457 6.761436656841848 -1.4891443844693706 -1.6279926969295575 1.5020328103962646
Ni 0.7893138787961924 0.3255581847130149 9.426612705622713 0.1739757522909391 0.46002460583074967 -0.03942658142673855
Ni 3.081155685378668 5.426661479108228 12.87590916795789 -0.7910448818749279 -1.435429154334102 -1.0885559704180672
Ni 5.277793064288397 0.4796610227025009 9.622955909614728 1.3826888865175928 -0.564451246277957 0.8952321526178195
Ni 2.4702727434941867 6.9895340871497975 5.587932864634525 1.8405715063046753 0.39175101826533176 -0.9682987906965066
Ni 7.292285987501474 3.9873907953301266 7.641818212605504 -0.9305768506657005 -1.4577990373888698 -0.7300048359434718
Ni 7.53318231515105 7.548555190709297 0.4568638401028904 -0.8459379343683818 0.45132142162979694 -0.30537017957624185
Ni 8.529497560922506 3.813146668813201 13.12396585155872 0.7494935407957026 -1.8425240020453557 1.473464511840269
Ni 1.2349270312273541 8.143482744284952 3.9039412929288297 0.06178566584822908 0.4354217196804049 0.6295173826496706
Ni 6.756346951683665 8.279244622216755 6.994120464884434 0.6914362316416544 -0.03538352170561648 -1.0269615946450377
Ni 1.8801418183490812 2.86248585986837 12.560220023486321 0.3542288529501577 -0.18733134766223866 -0.26882940433773056
Ni 7.134097368672381 6.0869032748425465 5.579566525254336 -0.5932653422961719 -0.05162852280956915 -1.1332304305073064
Ni 5.41603972317189 4.747488018980094 11.601975626669892 0.34802889478703286 1.0209246444223383 -0.395870439750344
Ni 6.143698268023992 7.424425364265616 11.248639775339818 0.5335399014110811 0.13915915883238614 -0.5123262434479434
Ni -0.11750465408201848 1.6710925549850637 3.586946045649325 1.6304031061432631 1.4333653298265379 -0.7630468540001053
Ni 0.5231428690047005 5.618262665240061 4.4535930429657355 -0.30740237951492216 2.335234271034585 1.5575269868088273
Ni 3.4736964651750513 9.07639511786058 5.066428312740828 -0.5697862853376251 -0.6949714984884224 -0.0953061662031778
Ni 1.1320043096094377 2.4367236497655314 7.631054469186212 -1.1279406428632768 0.7882014988888619 0.10481256303171625
Ni 3.0923235470186734 8.506133338567253 9.528067313073937 -0.10097056357780675 -0.04347658312639609 0.1510353414446818
Ni 7.844699212046594 2.067847450461417 5.798982695226313 0.9875622669118089 0.2563425847246295 0.1673191662063699
Ni 3.201171515521385 3.81443001721682 10.445988174907711 2.303689406348768 1.6082864767498817 2.21886048552783
Ni 6.265379720562897 6.171531455387592 2.1370909231579702 -0.9454475971299459 1.2265141669638167 1.069334917404926
Ni 0.44417234354965174 6.674904387743347 0.0754627064851562 1.8430963296090581 0.5146505207057459 -0.9108595747424313
P 2.0775954372718863 5.506365606558537 9.61891927828845 -0.8624690992541855 0.08467002664557031 0.25504237785596723
Ni 3.5310466658218935 4.558635564890055 5.887996104571811 0.24026521954679267 1.5555438949405274 0.8705886430375266
P 2.676791717097877 5.615723273718006 3.623180159087681 0.7139197574561511 -0.7559446957376852 0.9790015218259913
Ni 5.631587644409553 7.1591454169472755 8.763128862360954 -0.10026453864971764 0.523026403474267 0.8366917331797655
P 4.805966838081183 2.702267548173978 7.434644822333585 0.46775179927167837 0.42350697052069003 0.25561059165461136
P 8.916249620260011 4.160924984432285 6.268999491202041 -1.5978046033819515 0.5358986314512448 0.33927583118475113
P 1.9696758484654098 0.8962741419165592 11.205265329826005 0.855343801063314 -0.1928191102496873 0.1757554698991812
Ni 4.576429509067897 0.9162834548989458 3.166924316668207 0.039848756565821694 0.587307324940524 -0.15347274724158086
