# total energy = -340872.90190220234 ev
CRYSTAL
PRIMVEC
9.19337260366387 0.00000000000000 0.00000000000000

0.00000000000000 9.19337260366387 0.00000000000000

0.00000000000000 0.00000000000000 13.45543008580368

PRIMCOORD
 96 1
Ni 3.1007774020344083 8.76204690605887 5.210817241965838 -2.1191600469116985 -3.1753154895118736 0.6896814537340766
Ni 8.432970142542601 8.551104977329137 12.26467764586147 -0.14906587642313684 -1.2646575108027576 1.2610985898069054
Ni 3.3177042161685026 7.069979143649035 12.56925499138376 0.3297884605196062 -0.3299949201034575 0.8739444468836368
Ni 4.017264692296651 6.198070515945542 6.395096436938592 0.2547022209077291 0.24180428189913838 -1.0603877355139673
Ni 8.7129267175558 6.094130248078103 9.050996437911618 -0.8874216554344652 -0.6026886924926008 0.11888369641280169
Ni 0.9015057706693912 4.815902142315422 0.7181568297317439 -2.361173873718482 2.4925896411600235 1.897511928245461
Ni 5.619963682024781 4.157960062847091 2.5180352697712847 0.7403558401604926 1.5722912896021954 -2.0824632057112975
Ni 5.511095766574028 9.270228949832829 5.3675054030683915 1.0030714182910017 -0.02564881091635583 0.10021440213807258
Ni 8.591767263263833 1.6522420733596195 7.466794513365628 -0.32235205884621904 1.017314044252945 -0.27362065507878686
Ni 2.6623087008430417 1.6162132470928154 0.9881091769461328 -0.9294391375168317 -0.6244852195424019 -0.36056379402925004
Ni 2.242851893685803 3.527055691480488 13.144394204707703 0.2431309711303619 -1.078982210686703 -2.16427802229626
Ni 7.18970443185332 5.6297454302125525 0.3334509700836969 0.1674502924675955 -0.44808697385289925 0.6834480712298552
Ni 2.5511424423030573 4.078106430554806 5.905332395344504 -0.9506882767035949 0.06815583104063101 0.8604518117138408
Ni 6.128872002214937 7.737004275006012 9.239170979999418 0.43691038841078944 -1.1144400372736807 -0.5574218502350013
Ni 0.9322815039714463 2.198043396818132 5.649840303510328 0.005670825132532169 -0.7389687300049789 -0.3739507568591173
Ni 2.8155897981501172 2.7910986541912584 9.258762056492031 -0.9383598370452291 2.81907603388959 0.019865628575675465
Ni 3.7915306274446188 1.6276681890495488 5.631864502540825 -1.0025533410040024 1.6713126998734313 -1.1445574254843514
Ni 1.1336899055670446 7.5880072892172645 2.854542116826425 1.0027757414274536 0.7654680618470882 -0.32543969663260724
Ni 0.14578941817341426 4.945399985335123 6.9322504743581765 1.0342581283064511 -1.3232640075920565 -0.11856642228269902
Ni 1.6782317370126576 5.379281193720383 3.499608878308877 -1.145614663104272 -1.6135677797534793 -0.44488055110045954
Ni 0.12417120307609594 0.4647121019214564 1.1742005008578518 1.7979888957474583 -0.8855848593360425 0.028215543202267535
Ni 5.690210240204075 2.5141483119387753 3.97698117330306 -1.0093299976062036 -0.7177594429172155 0.9607762570672163
Ni 4.117316163657108 0.27688139195980627 3.397509123587296 0.6030437618391744 -0.3216917995544008 -0.9867461987684166
Ni 7.940665052829058 2.1053466233432174 2.058020981124219 -0.47243223546648305 0.13310035423281594 0.44942471882771634
P 6.344015302111788 5.124330591518029 4.456747422458988 -0.43752539628696907 -1.4914887163318313 -0.5123545255827177
P 6.142845928197469 9.107074170614412 3.0618232446836293 1.1429677123997284 -0.3590908090281493 -0.19688453856831253
P 6.8893293768353825 5.695147081159746 10.346485100274434 0.9270413267086163 0.09314541110643314 -2.8595122875277657
P 6.203182030975994 8.71762453083019 12.963727889823808 0.5532132114702923 0.2897730964689332 -1.5404258083521665
P 5.892482818801224 7.436895827786425 7.094819635757457 -0.06790926224746369 0.7710861793648139 -0.8566776893833892
P 6.228289130882766 1.8802101276943857 6.1825144105803815 -1.3531942194925857 -0.906662248831632 1.1903680560605627
P 0.2265265335491996 7.102183527015358 7.250673957987237 -1.130352594738879 -0.865799192068683 2.587477745989176
P 3.319230315979753 2.471252036521345 3.5497706758999876 0.5798655239504981 0.5701457255595729 -0.5377238575854417
Ni 7.3167016775919365 5.917589918707997 6.342647328305076 -0.28768073271627875 -0.4587452248976938 0.1539185765297478
Ni 5.384503029219118 4.032424563313227 9.748606999762861 -1.461919744425463 -0.003585917579045437 0.5690229248090394
Ni 1.0651717013908535 3.0409653214802295 3.1665063370375077 0.6923458879401173 -0.40926228767621775 -0.29001195195261664
Ni 0.4754049133098004 1.5727929494510402 12.371957865906182 1.8232510127483568 -0.1780182977914289 -0.37238649769579096
Ni 6.950446916264246 0.1909509405395918 10.528779561402741 -0.7865228256348583 1.5686040705585953 1.3018847705853323
Ni 5.724299264903567 5.476298852203052 8.135825638570887 1.1464510429626384 0.9293581477672511 -2.0844576104335073
Ni 5.274504328968463 1.3097521795745903 12.264933221612994 -0.7016357978824754 -0.3275402879153778 -0.8657595970799993
Ni 1.8846321397980683 0.7720437818018827 3.418957261296011 -1.2520375080459016 0.06963755779248007 -0.46066506762822595
Ni 6.3108640013927015 3.5004868453689633 11.889580699000886 0.7736847933299257 -0.027666612677333 -0.5686760829925819
Ni 1.408792379975785 6.898182594415105 5.616040870040079 2.5296842320194757 0.5064240190308955 -0.1764077587711994
Ni 3.6228046645779024 4.5142216284228 11.380655830740485 -0.5491315852017511 0.20916387015629784 -0.04614281710464956
Ni 7.609841548564971 1.2242170431657238 4.299345855661536 0.9241434363355311 -1.1631668130554225 0.5396113044161416
Ni 4.164229942794516 8.755924120069157 7.266416688811242 -0.6218742642821161 -0.007228913648271422 1.2507133899178395
Ni 5.685052758311837 5.838959004939184 11.892110715073512 -2.038833641946805 0.7478194955273896 2.4522150939977188
Ni 2.5839719749896504 7.0172367664373345 7.995727837223648 -1.023444839741031 0.48124443444147447 1.112633580192561
Ni 8.42171745477772 3.7665706214955565 12.835013322128919 -0.12633938135989856 -0.5619423638131742 0.8429675388861482
Ni 1.8608213053936227 5.229291323717087 9.587209074001853 0.3778359508461364 -1.2890086859536123 -0.4906919530076194
Ni 8.572985203538627 6.111947003705831 11.677604515880997 0.7886403861984934 -0.5608771557734534 0.3302887971947925
Ni 6.12033135929535 6.79552020530528 2.3455372662265206 -0.5757892969985955 -1.037871299579006 0.25544681238323746
Ni 8.254205017062118 8.88939349994705 8.619386911835756 1.2815314037399606 -1.448637939714892 0.4585943011421263
Ni 7.545267301129903 3.2709283376164486 5.678285516919902 1.255534979676199 2.66408505023127 -0.4683603793899547
Ni 4.022670395242526 1.088780281603447 10.05031785178426 1.7897644509551367 -1.0298494577157942 -0.4723815847342058
Ni 4.920302078800707 3.83936374381772 6.103638953106874 1.718213478190028 1.225051209265045 -0.6120241109609137
Ni 8.92049467863054 6.220244930070454 4.48838181673918 -2.7826535293964985 -0.3674929170489155 -0.29984102222789655
P 1.7795059268965865 5.72755371871792 12.317032982096944 -1.348650051765329 -1.4194026969988587 -1.2866867226886551
P 3.1070105084924062 8.271672424540283 9.817834932285006 0.5475205319608893 -0.4726268679757925 -0.12543563859870654
P 6.649336391457753 3.236958826757596 0.8050332791674862 0.1462057812665224 0.10050750789845916 -0.9547277368802911
P 6.25471088303658 2.246593596235073 9.97259983989049 -0.6153032959328177 -2.3813238663037954 -0.1509291548841207
P 0.2487027863485835 3.7729232417941945 8.910333244164427 0.7386198313059925 0.16323059795929307 0.6282981655305889
P 2.4192175489811274 8.747411057266639 1.4112727518376846 0.11271047772255426 -1.1555854011637388 -0.03948494546849974
P 8.778300788385922 6.531468164469568 1.5833138447763095 0.05147271395799523 -0.2224564735001459 1.008577178600579
P 0.7169570946391646 2.550223105067364 1.0524673801308135 -1.0957473459601839 1.1550899495845592 -0.5035790933829328
Ni 7.433779274557426 8.259316532092571 1.1674038406743743 -0.31320818756342184 0.7417465498604322 -1.8115553215779836
Ni 4.532856594190295 2.2250719115475026 7.687261695194377 -0.17360628476666232 0.178902243058279 2.117485487422753
Ni 4.585672518380852 8.262828400332918 0.8885403576344143 -0.04537020060468316 0.8525037605113576 0.30657294163509136
Ni 8.004411896752003 8.349089813157981 6.18614763133584 -1.0605144908998188 0.2282684521962327 -0.8399122969995921
Ni 8.36786267951083 4.49422604354648 2.783444252366879 -1.0343753706106056 0.5780444115813594 -0.2499721624219114
Ni 6.185015927198702 7.214618470940597 4.675626908881693 -0.004969428190133377 0.17879271406360822 0.18272855878290467
Ni 4.744864954113432 1.6788384995882148 1.7009145446289082 2.3746335987678133 0.45608361890513066 0.598154294957357
Ni 8.153611136732602 8.131510269586546 3.2720241876013945 -0.638687479184713 0.7424800855923471 1.5766444243645685
Ni 0.8264814168762014 3.566127523997436 11.226457234872191 1.5197831924011505 1.4735858679094815 -1.6508703728586795
Ni 6.147332293907651 0.7113656855716805 8.12181861644787 1.3022390686009573 -0.06534767216787456 0.0777218774625113
Ni 2.9330443233822407 4.195248381126794 1.6638045777729291 1.8020905766206576 -0.7285884152119194 2.2229426260170038
Ni 8.325609940158385 2.317924972352485 10.195407654321313 0.6202647537031512 -0.6628375940683552 0.005816863792093207
Ni 3.2623876946968617 6.529914484541247 1.9886716960869615 0.1816227273132356 0.4137195521166229 -0.3267226771100889
Ni 7.408819268608364 3.621462432213791 8.233283659589455 -0.6505369223241312 0.10462512961125851 -0.054701505307938054
Ni 4.640281150181009 3.171621529416903 13.421360175693195 -1.2958575905546457 1.7880274136593721 0.6014599622918222
Ni 4.769769799828353 8.215528499556518 11.32770936066246 1.0554262777436338 0.6429033170382734 -0.43413462543786524
Ni 4.493288319566073 6.256549557507966 9.847396221098712 -2.5608454881136287 0.7326867536510091 0.5415473450965899
Ni 1.17968434746876 7.304033210484088 10.206401088985729 -0.12321600523956842 1.9570057127357197 1.205550420227956
Ni 1.3281940845225895 0.998409431334836 9.247243680266036 0.7027269740641252 -0.48536976946375765 -0.39870250988250044
Ni 2.5401839424535977 0.3608628484403518 11.833552610508818 -0.2535133428059505 -1.2355760200557688 0.19957674068849499
Ni 3.92455872544938 4.652232534245017 4.022958147797297 0.6864444348540178 0.00511469551874603 -0.15961562691452508
Ni 0.9916247225354224 9.016905574537654 6.992746541815711 1.6283626786744667 1.3937130055422384 -0.7118255939312836
Ni 0.9958260937025389 7.49037367478668 0.07474119792459631 0.2653900396388784 -0.35735942815933935 0.32472030196807944
Ni 7.595067799187387 1.4565979162318157 13.012665130216977 -2.2710734200859597 0.11500672995589871 0.9523633504131727
P 4.989555752765453 5.8799890257681575 0.6781132577566685 -0.6550720911903235 0.040282244558814496 -0.20267929087321868
P 3.804640376425599 4.398063368693004 7.994906869072174 -0.541881588507557 0.9696640464751494 -0.2040473748653389
P 3.0951142846625403 6.707318990912904 4.169998783948489 1.508723077932247 1.22198594007616 1.1916510365380446
P 0.36097500758310636 9.201462524603002 4.754301031500583 0.007014226534304049 0.05309919381782468 0.008399279807288761
P 3.047989057960923 2.4016398210346797 11.562358238689008 0.4503500588554631 -0.2808343992184067 -0.560690493683944
P 0.18970339991075655 4.155450272193649 4.849888201244516 0.9949994399161445 -0.11230038676832917 -0.16528413805421213
P 2.3202784756758583 1.666409060161647 7.358303526181511 0.08851845385738304 -0.009246458298932463 -0.6496264946947199
P -0.01795189820137507 0.2538529135429351 10.575739307401934 -0.541569456583777 -0.8457939525913497 0.3465741646183773
