# total energy = -340887.2517099715 ev
CRYSTAL
PRIMVEC
9.10029260576924 0.00000000000000 0.00000000000000

0.00000000000000 9.10029260576924 0.00000000000000

0.00000000000000 0.00000000000000 13.31919810021765

PRIMCOORD
 96 1
Ni 6.667784484637896 2.008052393627991 11.069225697127079 -0.32615626308365764 0.19906534826971523 1.2034912237060822
Ni 4.732843842817712 0.28852205097597805 5.830226302650824 0.5245731791360966 0.4691923883729468 -0.24277487334252382
Ni 2.6247428308955922 1.9326837692226801 4.447133782295881 0.7479999869693118 -1.0357727651787645 2.3472978870673384
Ni 3.6125523060614033 4.540163344805923 4.687145812835377 0.5141265298814759 0.3026988033916658 0.4438127719575776
Ni 3.874158421224342 2.6816196604697518 2.6634263552402064 -0.8136263667198697 1.1405272212790358 -0.606290036690614
Ni 5.174417347046025 4.6387832171411505 2.6107092694737823 -0.029083804739833782 0.2816800350481536 0.27671652039529115
Ni 5.327138459672193 4.619308590694959 11.513820498542373 0.16311592675829972 1.2202815557905435 -1.0808010090629967
Ni 5.526989988356693 8.001204877174498 12.641277605795752 0.21835556395789493 0.698347614049507 -0.5429072015585941
Ni 2.0856414894598765 6.691818357742752 0.2512863832050037 -0.4228428545741299 -0.04379102904302136 -0.03569899606350626
Ni 3.1047286707451094 1.8666520451602635 13.838513937658531 -1.1247966979176565 -0.5809081062823995 -0.024794433335860525
Ni 8.06278655809103 -0.2682238480375519 6.659865409902626 -1.047128813621532 1.323280976872921 -0.1952464887442573
Ni 8.713958004519672 2.6186456347652425 1.211834111433965 -0.5449316881877906 0.011152674182709824 0.7627817732641767
Ni 6.978450277918323 0.8426943872049363 4.632590467937116 -0.9958805569695169 -0.9570612701094743 -0.722627312532478
Ni 0.6283488222863944 7.616016786712824 2.4966707711629557 0.3067894285212716 0.9773385323012715 -0.9774334060079232
Ni 7.6982743327161565 3.8327975907580134 3.561526964713833 0.7266742289083421 0.5352376008284783 0.49001780975873027
Ni 7.85044032748568 4.145438147561254 12.186121004635858 0.12067652664716635 -1.4829279712460137 0.9031431799347801
Ni 8.023582497002154 7.677771373191263 8.66938659077754 -0.4558241945961569 -0.8311749171265943 1.7872421987539155
Ni 6.784550340680463 0.9265827056658195 0.16020610339812724 -0.46335958374125363 -0.03148290109962965 -0.12231509069185385
Ni 1.8548944669506935 6.415487968939655 9.373426187831953 0.9241169539729697 0.48902202150436425 -1.5848660409434123
Ni 9.357376001540763 4.9746568212888445 1.6629683832063755 -1.8158498351882792 -0.8888524743437208 -1.1665465281609328
Ni 6.577791689812477 1.7039206105290436 6.910679487914846 0.04187401452596659 0.6918491508093568 -1.1103612392186166
Ni 3.4133741990390614 4.34224107818058 0.6574351779159832 0.7671950718405239 0.9244828219528208 -0.4226453938513431
Ni 6.0029170976477975 5.683824433297664 4.7368397813562755 -0.22213148606055935 1.0881006280482035 -0.8957998521958315
Ni 5.675433963398884 2.8352508023691065 8.751006206260369 -0.034407273835276225 1.6850573031530334 0.9436210854441685
P 0.38330068974908466 5.537355221778288 12.327090909257368 1.751466840926519 0.0296119093291619 1.1431831708446443
P 4.188464331597515 6.269127960933061 12.616090725601769 0.1708487766261832 -0.3475326718769047 -0.3217884730332652
P 2.319009396275837 8.733250625111227 1.2164424996733818 0.39459054459665593 -0.18348472022263884 -0.3126530863909003
P 6.398115510114524 7.841440137973865 5.637816993362444 -0.36094765973123 -0.30521051406992594 -0.057828480972693955
P 4.5177493238073385 1.1538989178150891 12.516636356423028 2.253243333883074 -0.7576639924216371 -0.8775668741275725
P 4.2339384943786476 6.271102724455876 7.976827923033649 -0.7826291470074069 -0.768900741677721 -0.06367954043683226
P 4.886165574764183 1.1449715306451291 3.6293487163566076 -0.07788848494736264 -1.7340221630875106 1.0112886639944711
P 0.2625889467779807 5.890947095874925 3.687553278640346 -0.8017956926335288 -1.1487871472949829 0.2893869167741081
Ni 0.6920390410289019 0.3086946698747044 4.534654027586052 0.8276314227497101 -0.8610974157176395 0.9444322684915541
Ni 1.8935525104756583 6.710501258721273 4.901918181483043 -1.5053693309686655 0.07893106727926406 -1.2188288825044171
Ni 5.920695952815392 5.559987649802437 9.216432487768175 1.7726851268753472 0.47901143134589763 -0.02770492211443616
Ni 8.976310343686624 2.608089295196278 10.036721954267257 0.044816899204374434 -1.3736427171549246 -0.06343477141587785
Ni 2.2750822832591218 5.567158680475147 6.969976085326409 0.7665587238081056 0.12840294875714658 0.6881038248343117
Ni 0.5710943305638623 9.27765743720962 8.970573519148456 -0.31469711340412254 0.6588814376340846 0.5805095852924003
Ni 1.216599934737643 0.9154894488256753 11.460611086939155 0.4520724408632085 0.7250300084366997 -0.5980936169227505
Ni 4.76200118073061 6.604737656591531 1.301713152600235 -1.0553673994812407 1.2143489923561925 1.4232932903025166
Ni 5.7249395558602325 7.901702276444279 7.922885027836242 -0.0057106772315321 0.18365826968602564 -0.14114790712764078
Ni 5.627584624214734 2.9413784162081225 4.62469232387513 -0.7082088231143029 0.2288873167271542 0.24977213059596337
Ni 0.9999947671337789 8.05497850692709 6.842418192133122 1.498162528807581 -0.21376331660152217 -0.4664099405318032
Ni 5.191425794161882 4.449670033880252 6.977408294400523 -0.12092515232286272 1.7821449867366663 0.3208821591689119
Ni 0.8746628055427068 7.48248819145816 11.328098084353368 0.06360549266578723 0.4419404946355292 -0.04772738798295006
Ni 4.682364519034055 0.04454866301030148 10.361590574414308 0.16374867524629216 0.38298278515439843 0.009552419575125485
Ni 8.25536695288277 7.6498516750898995 4.451569264973393 -0.7304840895727355 -0.818655444503345 0.10518203055599304
Ni 7.313532156598344 6.166922573261479 6.778752544180991 -0.12535310618722928 0.8878417736910194 -0.19414477103964628
Ni 2.151727815278684 5.786266428580274 2.3998664072277354 3.2087681127433645 0.006402818202550264 1.866481541302218
Ni 2.6428979148956637 5.203520083202531 11.610371874339647 -1.232631592715464 -0.6382632471631009 -0.3716976991588824
Ni 1.3969131349268271 3.9152826440796424 4.087116191501274 -1.0059345987714097 0.004074941400322015 -1.188687068813714
Ni 1.405867822974983 1.3507109487271458 2.465609652010552 0.10553067214466341 -0.04503004365644503 -0.3709117129224773
Ni 1.464819519292008 3.5356548324771393 8.379720633005167 -0.09145182545409411 -0.10111968756116134 -0.8668705707559909
Ni 4.11424234407642 2.544869561588008 6.6616772781855405 -1.1409388548951576 -1.2938721846935006 0.22744184252987923
Ni 4.004865925732127 7.046019951452424 5.5859116537077025 2.198037378134892 -0.3961920847558209 1.3855695504994976
Ni 0.44012564765467277 0.2957649739612698 0.41176276529726735 0.15932329248508692 -0.41664135374910827 -0.6108159495854255
P 0.23132034095129067 6.37926880386683 7.778585326104142 0.7067746617709375 -3.373641902733035 -0.1373323900362925
P 8.737145550400465 1.8656692135452222 7.761216507396105 -0.47032341665359645 -0.199190818103986 2.030662676100238
P 2.3052133524943286 3.337859969950041 10.402000424290156 -1.468014287358975 -0.5942367050705056 0.8070949933592553
P 4.09595075568537 6.543265179187779 3.484795116457289 -0.873561095402289 -2.1214820101766563 -0.39767021196324415
P 7.162904111300505 3.8719652506759625 10.154956597556748 -0.504297459606196 1.3359140922558992 -1.113438849702676
P 6.487880797621645 7.747861827812091 10.227425868697686 -1.1047323230676136 0.4021519018836816 0.14661664355169587
P 2.68312120877051 8.76209855307124 5.656330628896152 -1.6130304191927705 1.1398924159085142 -0.3661572289566275
P 6.952714650072606 4.153510107214419 1.4683886541014457 0.9171117262997304 0.10019460464373067 -0.6772748525396077
Ni 5.547993463981839 3.2370469270664346 -0.08722448577638502 -0.29782861978355807 -1.0849294294090732 0.8830240405874018
Ni 1.6330020292696152 1.3669185700825983 7.031098201459984 0.6797544244283519 0.22830264786827778 -1.0162460079997466
Ni 7.115919299925883 0.7617627538526364 9.070320917753161 0.20485135882387298 -0.10946163176795341 0.0834595512772369
Ni 2.8020893356541885 1.434288037176599 9.23638487958279 0.261062358797802 0.10652183241333912 -0.46133895376679906
Ni 6.030864096627357 2.2702773286966966 2.151503038048207 2.443132157859844 -0.3825294996670638 -0.10951202538991463
Ni 4.128993918594774 6.726444971587501 10.377173915688354 0.34730641479871155 0.8617034247327546 0.0421645491831919
Ni 8.585343567340216 7.1589818851330715 0.23266081407069447 0.22371220028411795 0.5529499305065767 0.3048333332361653
Ni 8.017676407019174 4.3120372066035175 7.991625909044934 -0.00044120130247665945 -1.2927923213657606 0.8721927542998527
Ni 2.9185002802802122 8.427781098980695 12.167394422252226 1.3496090732444885 0.7077683931427746 0.1921961319537077
Ni 0.38323698769996156 4.915031703309662 10.15153306743102 -0.73948269352692 -0.15491616455632676 0.6060228990721563
Ni 8.604818193786407 2.2099878893480875 5.677987505539446 0.4060327249953265 1.8282595217065416 0.0019830918682998107
Ni 4.312555923289234 2.542667290746897 10.767719348481277 -0.06768429072085116 -0.022953266362063695 0.9573831722252671
Ni 1.459741555947627 3.2451006861341356 12.800002181537131 -1.3305155469481473 0.6680309653438365 -0.8065198375820756
Ni 3.2661041617592814 8.281330088046783 7.854024932792762 0.22972858168152693 0.2245043571681101 0.21985631687313745
Ni 5.661865426935672 8.040272433872396 3.4065043880557764 -0.05418548490346797 0.49532019580825015 0.9234255843329
Ni 2.951634446116935 8.550944460813763 3.3088882780088738 0.6477282492307425 0.11915931867169158 0.6006225539921914
Ni 3.75277871676672 4.467142595925434 9.276421617456633 -0.10986426652301079 0.12320623504755554 -0.6441932394942905
Ni 7.821992812405868 6.456366483891195 11.280428930965309 -1.4710433039932858 -0.11619380828546441 -0.6897297904735089
Ni 8.06258635165093 9.334261258001822 2.287199323031601 0.05980848751720023 0.3172502188432794 0.6742584343107871
Ni 4.648757137975275 0.3037222699260131 1.5237293542624664 -0.24391978558024444 -0.7252914896282024 -0.5339384224010805
Ni 6.629044538478343 5.8354990122596675 13.505000949445485 -0.3854075925458072 -0.6511994956087946 -1.6902799850045536
Ni 7.989392697208536 9.139423990612581 11.266323477230918 0.4684151438872901 -1.237791539649849 0.18447690893257906
Ni 0.20007357582715707 4.757096122948135 5.904853253198488 -0.7137449224411836 0.6378768103579595 0.3684920477373912
Ni 7.282809568335566 6.33141946468268 2.3625324562952574 0.6916005251336605 -0.493546391737279 1.5324600165378703
P 8.626686197221082 1.8414988360493874 3.595171656972813 0.11363556063998495 0.5619960998692449 -1.5793772499146994
P 2.011019089058579 3.388220989928185 1.9516888205639082 -1.7311633534824764 1.0166334732461524 -0.795835618395352
P 5.051472392238522 0.8892578550260728 8.263750142547364 -1.5020253541970972 -0.02635020785875462 -0.5812616329670763
P 8.560181257936607 1.8180109805084423 12.515650794720168 0.060472346353444235 0.6969229657878384 -1.2557224130966567
P 6.587665507426551 8.131011452701827 1.4128868787590707 -0.5814043291925277 -0.586611327314764 -2.004724873188554
P 2.1298598118440113 3.4521778472477367 6.188632231602617 0.10577029895929525 -0.11794730064146139 -0.5592560752302627
P 6.9393099188785685 4.131032384166711 5.8575171705244164 2.233162503972799 -0.5680631319989314 0.420841764983701
P 2.344563018266915 8.506307524963963 9.890357396114299 0.5827672709783254 -0.27904593985941617 1.6956379068823573
