# total energy = -340877.6303050548 ev
CRYSTAL
PRIMVEC
9.17123713506830 0.00000000000000 0.00000000000000
0.00000000000000 9.17123713506830 0.00000000000000
0.00000000000000 0.00000000000000 13.42303259002856
PRIMCOORD
 96 1
Ni 1.0979346224072408 7.898837812836362 4.2919609351786665 0.3416864975087728 -1.2202108504536082 0.28336179362595065
Ni 5.854880935607842 6.905253523584946 10.092147365439226 0.3961707445995822 0.7831122572914125 0.5002857673436416
Ni 4.628356400985993 3.6205750370531553 0.3614283568557383 0.8993844842232963 -0.1448317837371312 0.6897069076553736
Ni 6.812972538155705 1.3349744106604886 4.649187948422286 0.30232702187454386 0.2753090985248033 -0.047893224136853
Ni 3.1262820544756953 3.086112036966246 2.750325541287373 0.6884079863382918 1.2471045895206587 0.7979143553012517
Ni 4.372992481457888 8.111463768530214 11.596291660112055 0.4868684654964711 0.4256289019596992 0.20298216682561818
Ni 2.5358194820342885 6.380108500162329 2.444925187620442 0.0017982295510033546 0.6188069382107021 -0.036242784382118226
Ni 3.8224247894197005 3.3113759570728885 11.01387959939891 0.2610911551532084 1.8425738814466848 -0.012687108549365245
Ni 0.7527705370243923 2.0588784796230106 12.871801605126935 0.046857069562854785 -0.654501306288518 -0.012840346297777888
Ni 8.131227783994337 4.302273073920133 2.823145162069342 1.3566634089881089 0.497727262587846 1.044555910688033
Ni 1.987544599214678 0.038089063862669775 11.562989064774083 0.43117297170638 0.5185627112759585 -0.9809614737658395
Ni 8.070587565781443 6.448250790138404 4.318511665929774 0.5164358947409429 0.30435202272437256 1.7545495936169009
Ni 7.098142977525297 1.3879474748464655 2.2071489490461875 0.614929714643483 -1.4211338207573525 -1.230719720404732
Ni 0.01756383573797859 6.7217003887826365 2.466871040336963 0.7853334333124474 0.0178982204366595 -1.5871185844230151
Ni 2.3232393825248083 5.083332291083314 8.875081127405846 0.043462699169325145 1.276649650167627 0.5144276060616625
Ni 3.3213084066077587 8.92816241218694 0.24804527250241187 0.8157087031701952 -2.1772363822291405 1.3769522411441317
Ni 4.807599054457381 2.6404357810594683 4.9438240213698466 -0.6858967898806638 0.6424454035652485 0.19043004119222043
Ni 0.04980898746434219 2.542083436819438 4.277732678291872 -0.0060832300796024264 2.146221421904865 0.2692749765155814
Ni 1.2874857461253453 3.6039200708894206 6.55877519995801 0.3433731411825764 -0.029298748964117285 -0.0039528140001609344
Ni 1.4626563704245417 3.2006424430525477 10.535550071724863 0.9368626836744122 -0.9149214035166309 0.16641259523170052
Ni 0.6576547222773036 7.651104362387677 7.520387640341917 -0.990627536100694 0.1277876837706509 0.7249040243817967
Ni 1.0447139348256578 5.004533023859299 3.8432150662900595 0.7083965136450767 -0.12267118847969197 1.6169534083962604
Ni 3.591658127188477 1.6127711755831409 12.542494588299757 1.0565143686014902 0.405789755746585 -1.1004807468801112
Ni 7.379296415143944 3.5562204679061677 0.8797472286728114 -1.0325552866827314 -2.0160513539449663 -2.321072891932538
P 4.017983073290474 5.4467333809907155 10.321117382366772 1.0493952410582055 0.38354302853324274 0.19000735183250503
P 2.5221543390915766 3.144578672039931 8.4098921479253 -1.8863335430311385 -2.7171641894444365 0.005689851295925685
P 4.484331297111932 6.177378309055851 5.803609135862049 0.9607526029181325 -0.496859258160596 0.31247516605213926
P 4.859654994955927 1.5826344912141797 10.591980692212454 0.604842762721126 -0.49457277611926437 0.28351220316088593
P 4.629667887859019 5.149713703579523 2.1809742390069253 -0.8204744999899548 -1.1002781439510019 0.270669799980579
P 4.79707047452568 0.5315924029452525 5.280902744324309 -0.7362492741912869 -0.6325726245362266 0.31786188428534934
P 0.9140256436142081 6.095543362426441 5.879381894917545 -0.5261729195230486 0.33303190715756836 -0.8882117554359283
P 0.16071767210898158 2.289956963907961 1.818283919957283 -0.5776204366700634 -0.3974277569351349 0.5856209383770365
Ni 6.052374350459094 8.025630162623607 4.652490510820723 -1.2385361311253573 -0.5970168389188041 0.5344539285849182
Ni 8.83294663095792 0.4311095803793213 3.6198697689375217 -0.039463348201944935 -1.5351267647367561 -1.0226727374616966
Ni 3.449237989767418 1.561522303929533 7.1291069074603195 0.013166362178628937 -0.3430234711526415 -0.8107649860116747
Ni 6.106530504201856 5.343547794917927 3.7464759426162186 -0.7644126239993804 0.6920589528273178 1.1953313136031092
Ni 5.973987788894423 3.876342491003731 6.638870362952365 1.7612506597861604 0.2561063003441073 0.4188028801768013
Ni 0.9815241127617069 6.620596673480314 0.14751017388629714 -0.7112229273502784 -1.9832404780625328 0.9351667840292281
Ni 4.858536104057261 5.632304187905372 8.301367067744291 -0.2707631310253337 0.6082600159327911 -0.9636602634832306
Ni 7.897287873804605 5.637210799633125 10.871971216995439 -0.6393392538360989 -0.6239231763913449 1.312222147955598
Ni 2.4642838344147218 5.045592651345556 11.892081474658402 -0.21675376668841378 1.8669749359988683 -0.33906062985015156
Ni 7.509757259680911 1.5008545720060154 12.968891070049374 -1.0180753478990014 0.48902484971784166 0.26560884051790384
Ni 2.117051635116718 1.151889008938768 3.9374724532657135 -0.43034276249560083 -0.11935446540163316 -0.056759416278231285
Ni 9.265058627527603 3.6748595881121577 8.765723298916651 -0.7906119081025673 1.069968694334183 -1.4016746835914764
Ni 6.594779641679151 0.48409823566798454 10.961543019052012 0.2444322064402887 -0.8752276844714346 -0.09832772663832097
Ni 6.7484162017974825 6.3550985372061035 6.299898696707046 -1.329115324166511 -0.08348757630169493 0.8270881486517304
Ni 5.817884166056903 8.478304072265479 0.0835747302644653 -0.13999116781537826 0.4340448939375363 0.02484431273718947
Ni 3.62011647520944 4.92920048417377 4.239718818571571 0.17849806564132484 0.7529817564546194 -0.023445632617449943
Ni 4.401322432162611 0.963034899223111 3.0758475886565257 1.2627811197156509 -0.21481875444923004 -0.4362169618881907
Ni 0.736498928562003 6.82988429895192 11.219614287705411 1.2316926258409626 -0.7426744609913403 1.0360337321496351
Ni 4.5831697169062995 2.973287480938565 8.628673837809185 1.7795139768717223 -0.9013040698435122 0.38420045961158344
Ni 0.9202877641519825 1.3264451603673864 7.906903915667312 0.64397212462242 0.002055854087764201 -0.2643459146450802
Ni 2.2066546193786625 9.07666307965566 6.013826724752709 -0.09209048747935752 -0.545904336513705 0.5756072628947765
Ni 8.418801087424997 4.633785773215581 6.160245521450965 -0.3986480024954812 1.1765823151303803 -0.11740402654348167
Ni 3.5618332648732416 7.59747096914675 4.1507367270460165 0.5534381829969048 0.9592353949426576 1.0926597081737957
Ni 3.829651724076652 6.0848221865203795 0.41291568066807804 -0.17184045111549115 0.6191936321261595 -0.32422536460953194
P 7.158058668025122 3.60820303850972 4.677496805282199 -0.4016014286968503 -0.7892528229715118 0.1999464653230879
P 0.49663715072253223 0.655324310987543 9.941688638897839 0.029141397450646585 8.04755289482485e-05 1.1516279591778877
P 7.268471188754861 8.085270716017202 3.014571803728242 1.7948146117845347 0.3046142752468238 -1.7296638861188145
P 0.38076590980520725 5.8633918434271965 9.266161010199893 -1.0993538323645198 0.9517264881601222 -0.0028791213200079443
P 2.9909237694478503 8.533918452671255 8.126760474512865 -2.000221328891245 0.8675130894359963 -0.9379014093515718
P 7.135203945734357 2.9757270299471292 8.456227987985342 -1.1204399636108575 0.5477141360289342 2.0884852435356613
P 2.5675703040931275 3.446165625414526 13.228787414840758 -0.5816146454311208 -0.3305595343576759 -0.6970975436924897
P 8.451120526170044 5.302313913931059 0.8141710507741667 1.4504261419635665 1.784804278736384 -0.14874757385176962
Ni 7.58206329119792 8.764529203875616 6.373953683095984 1.086467720430471 -0.35555708484327797 0.28151779843867647
Ni 5.351251633892342 7.288877190800186 2.366493686995086 -0.7518399295406923 0.9311368369342286 -0.35600779922745135
Ni 7.731233458958466 0.7277303089864815 8.768676437190177 0.038108891056579525 -0.18333353935675523 -0.6503268631958542
Ni 2.70230494501352 6.655043839180199 7.072004952433532 0.8212334896431663 -0.5079628242729252 -0.6403638384458714
Ni 5.925407747171238 4.256004183889272 9.972534259877184 1.4755172806042394 -0.5653876420492971 1.4147016919787634
Ni 3.7064178141966364 4.172124051436892 6.802041340925222 -1.1610325403212391 0.5876911906425041 -1.7277095906059212
Ni 8.468500020046848 7.839564108917738 9.951796259057009 -1.280066646268976 1.5516013653530116 -1.88369687673924
Ni 0.946379933059376 8.663984934022626 1.0713132731322002 1.1400834488733977 1.6597388789929028 2.034612918997238
Ni 7.976756641320445 7.6666954650739925 0.7233152755551918 -0.7144617460025502 -0.02876318817562143 -0.329928071421264
Ni 5.405517842477596 5.432572991256791 12.165199991651473 0.27394307141521207 -0.12998777674576323 -1.5123033390843375
Ni 8.048613282230612 2.363363543849886 6.729637177173658 0.4654966846889144 -0.177926509408571 -1.2411074913969593
Ni 2.387924116199271 1.7044101744311813 1.1037473523381744 -1.1770571978842694 -0.3246205431654216 1.6631746441473292
Ni 0.2732835992568076 4.196730479970649 12.349685841243899 -1.60302805656442 1.3720843715288693 0.5718171997247249
Ni 7.334595806618589 5.548515767821735 8.567183445938042 1.2673486844816755 -0.21162158766817105 -1.1460872318653166
Ni 2.7680993983497726 7.2900969653044685 10.023635474617116 0.20873269615615017 -0.2619470753956005 -0.7552191304255703
Ni 8.353731161801814 2.3589154939658488 10.535375818224251 -1.0362589607865638 -0.018835901759580467 1.2240803607113435
Ni 9.160249732528062 9.004320363191155 12.519742583861984 -1.7223172159457565 -0.6982820509188942 -1.2663744934938643
Ni 2.971682514485561 1.2234796839795812 9.652127011312832 -2.693273498869768 1.167698382377189 -0.24083986110334002
Ni 1.4982407694968392 4.453369201424283 1.4425594390618803 -1.0979523240313025 -0.5657301129903805 -0.2752407071807131
Ni 5.849277309877644 3.149622852320798 2.8166216612806507 -1.1455519281871367 0.624381346974686 -0.2987380189717049
Ni 6.340497928102212 5.81977344085301 0.7824981842287596 -0.3015973427973709 -0.20118342305398257 0.5130116995507422
Ni 5.942181939414338 1.1215138724110751 7.046582283817963 -0.8419858916991693 1.075086989397355 0.6153356918326499
Ni 4.636509630567249 9.010208297264457 9.260724300980806 3.3764438909582046 -1.2707299422490825 0.07751876031276972
Ni 4.848585312048642 8.020448413789627 6.9841784367541395 0.36384503588368305 0.03535755356368749 -0.4453783166724846
P 7.3345499504342175 7.842388849875023 11.923116023117357 -0.10086232013471662 -0.8812867461813209 0.5653830140636069
P 6.845970648429449 7.757408168997728 8.255527391599149 -0.3934428041454579 0.3117213186052502 -0.4574676437368508
P 2.547824631102752 7.31904138887977 12.459540750771682 0.8753007038012152 -0.2041461052267323 -1.1250970027668947
P 5.288492859961483 1.4244489976061934 0.7832621482603891 0.5585441367649026 -0.0014665572431974744 0.2151260012770037
P 7.003743436378091 3.832155471743337 12.069816376787653 0.640019310622259 -0.3274410433333522 -0.30733553083272874
P 2.6574300829875526 3.103179708789325 5.018952042473079 -0.47044708671565433 -0.39020244283128924 -1.2131626853575752
P 0.1422266243230109 0.9323846255891888 5.774159377134974 1.1812578662291786 -1.7078431906992972 -0.4339816447997687
P 2.820687270587029 8.873896203601685 2.362547303768073 -1.1562783134657055 -1.3070819985155553 0.5864884285836545
