# total energy = -340889.7047193545 ev
CRYSTAL
PRIMVEC
9.04791361778491 0.00000000000000 0.00000000000000

0.00000000000000 9.04791361778491 0.00000000000000

0.00000000000000 0.00000000000000 13.24253615675181

PRIMCOORD
 96 1
Ni 6.528775481508172 1.877885443308332 11.506559403843205 -1.485409600017287 1.0197398800856181 0.9781800543659606
Ni 4.598647384418505 0.19430847095272963 5.83941584047344 -0.716006979002483 0.1072643670063185 0.4333113582056215
Ni 2.5267203836119894 1.5439540918868333 4.8445434401997165 0.5945416379054341 -0.7742023563962924 0.8405321899717781
Ni 3.4693953696729443 4.280893702716616 4.948828788869321 -0.9553663989055545 1.0564251513217935 -0.3883962428604859
Ni 5.168086881886829 4.389052463246938 2.598927259002004 -0.03333898047176194 0.6029715138403422 0.4327032923079774
Ni 6.9415594009421975 6.238066013895719 2.5213395893266135 1.469189795724315 -2.1534037985859174 1.02374643014185
Ni 5.3564463495729795 4.766051883944355 11.507260617155996 -1.0827221373451095 -0.7659303461954873 -0.6471451230337628
Ni 5.565082191890922 7.867604321597872 12.38932001008521 -0.39823893998252063 -0.07469851725515522 -0.004935746738720531
Ni 1.855917108812128 6.259455281914264 0.4895961829041759 0.10236975791817854 1.3288121911037953 -1.6801737498084868
Ni 2.941449604494403 1.6154778497914841 0.36139538870723886 0.1189852549876725 -0.6308209319524426 0.3360665802188341
Ni 0.650155935705818 -0.312096021256882 4.276478320824463 -0.39158595344237723 0.5346699012504662 1.4760387003253481
Ni 8.974562276953545 2.3371575434019527 1.934390569240063 -2.3462326790276173 0.5921158020727609 -2.9151316766642825
Ni 6.702079220775177 0.7196203884492924 4.829764577940203 1.2677783158199265 -0.44453062396020865 -0.11367335585645584
Ni 0.9090800824429958 7.411698045405647 2.3797632642871154 -0.5957593123626191 -0.39880663956053247 0.11773878417508109
Ni 7.599424159131857 3.7493197241389895 3.8813342139661366 0.0643991922116762 0.6530581460840882 -0.3940123034956827
Ni 7.6532773415541815 3.953992580250451 12.243758079054945 0.027248294192991778 -0.6501890520664092 0.6463172278158288
Ni 7.765869579804083 9.05008521271953 7.06494580025222 0.07962706490502415 -0.17962215194343903 0.19519403823976705
Ni 6.93449298033201 0.5920873302844064 0.39059662542595736 -0.1351577509824769 0.5126661432858655 0.08720179192848854
Ni 1.9520330961898769 6.2906615363118785 9.27855498668868 1.083042753909322 1.246693470125169 -0.9445361410592702
Ni 0.028929799307315672 4.619349010994828 1.1049610807991193 -0.5810081221953735 0.8377463996965249 0.506107002011109
Ni 6.195595106924888 1.9747976470928625 6.856707161346296 0.44191298383170347 0.6323728498205948 1.8309782061892852
Ni 3.3268907286864486 3.9825568438437444 0.4293054098747463 1.1566650073811626 0.022808770364399426 -0.5423826965136916
Ni 5.86235139694561 5.667586006350351 4.837498734582442 -0.5904798091312347 0.20716200923492065 -0.09425149968641831
Ni 5.206712425529454 2.841117289326196 9.195154032452413 0.6622418694658853 0.9887375181668326 0.8386393438244396
P 0.18653993223838009 5.475598325265117 12.225165521165222 -0.2708729171303206 0.7662581618485513 1.997343236012502
P 3.8824507265183734 5.7396888307326615 12.83969801099853 1.6722318692535911 2.864497656557499 -0.49025075170514276
P 2.5515930984102035 8.33492001698273 1.394227406174279 -0.10010075937834374 0.8340129007960216 -0.783143110529348
P 6.2869066521208055 7.688039426041174 5.767058769715783 -0.9798132190940093 0.9384408267948096 1.5989867966155107
P 4.7497927830013245 0.9498499816357038 12.447718864357162 0.2998873020847997 0.6952275803632865 0.4281686376624174
P 4.124980053606819 6.25991672551365 8.114893756090952 0.39948952456017006 0.1540522738941347 0.6762440972822482
P 4.766893339919704 1.0058022800395443 3.6441341080549 -0.9349420696129318 -0.14417383843815815 1.1057890464669022
P -0.08279564880883976 5.629014750190007 3.4066688982718603 1.1719185911061236 -0.6271601952714037 -0.04864758580437428
Ni 1.7294996584081077 1.0694362571860856 2.6472621188505094 0.7548483773497129 -0.7949709564022115 -0.837708347369738
Ni 1.6744883430304636 6.479545782993409 4.753382090371441 -0.051561931237691844 0.059181909676794854 -0.916651241723544
Ni 6.149378363676695 5.84786568709041 9.123604035597992 -1.0960080558207383 0.04614358843559795 -0.5363866268312568
Ni 8.69163401513464 2.39434035807082 10.373275638746941 0.32873816487822094 1.060563084749567 -1.1438426588055137
Ni 2.479978861368419 5.115898515587774 7.27065554727524 0.0527207274324834 0.27751459081655433 -1.8677820052811962
Ni 0.23629893370537908 9.230410133028156 9.57412861271347 0.9306789234612035 0.4320949693000171 -0.7323761643891258
Ni 1.6844139043740944 1.1652174717564379 11.47346575464497 -0.8058330959276961 0.09241778891178923 -0.5313228391551044
Ni 4.163497022284884 6.731901144374637 1.729395607400403 0.26280659518241833 -0.07991579979003656 -1.14257973293269
Ni 5.708328761801919 8.191212003472348 8.059036460781103 0.23700634628986278 -0.396798093770936 -0.28955866646528194
Ni 5.334468967163062 2.8193027693631207 4.865281258430895 0.07970548355144337 0.3782923216572647 -0.9049491227952673
Ni 0.6040993405303537 7.671020300346214 6.863527478703478 0.9274444756843061 -0.4054015191692309 -0.2451749981435842
Ni 4.815335869941399 4.391251106279301 7.132708340426198 2.3637159234140452 1.8593878676802298 0.4271592225612966
Ni 8.365040521734732 7.186631191784118 9.013452924467973 -0.48772541418012777 0.11596009500810352 1.0197648197862825
Ni 4.571630314070207 0.4241689092596331 10.205929950660227 0.06903951919716497 -1.1528541182755048 1.2595495001522308
Ni 7.975871657092755 7.0988573808501485 4.696399234595642 1.108410029029517 0.537672435522216 -0.5325903930136182
Ni 7.511731779421309 6.349482023362876 7.03552108006478 -1.5308618188128151 0.09026037624915423 -0.8105125036812363
Ni 2.1186956667912265 5.257905521320032 2.4352894059550536 0.4709901037033179 -1.4120187458299618 2.171750676524221
Ni 2.262322249078187 5.2338018791874585 11.583498338105343 -0.18692151381832967 -0.7226543091156716 -0.7788300849762909
Ni 1.0876678033186438 3.143896673832361 3.751636894840998 -0.36015087486154745 1.433517024913054 0.4276994113354828
Ni 3.5551605437625313 2.7614775528205997 2.9936868295275096 0.16343911442567335 -0.3191294381438633 -0.6568844618087138
Ni 1.3409460518986425 3.314051739127094 8.029386447542198 -1.1715082430415824 -0.21024450481498633 1.0804004311904682
Ni 3.6951951043052613 2.626754117627653 6.727261374222391 -2.05246717356984 -1.9960954796483301 0.555867618374004
Ni 3.6103799611555845 6.913628491308845 5.986301481279978 1.41312329174805 -0.25985831118737185 0.17676822743441167
Ni 0.8342194539608326 7.202519328264898 11.043891621732934 -1.5126650932991303 0.969785402544362 1.7669014303140345
P 0.46215476540271916 5.63984510290498 7.9081118312928895 -0.39677443962185216 0.33212045108689253 -0.06544871652211309
P 8.313485509395619 1.934082035382435 8.053103743759207 0.17367904698612668 -0.996566270182632 1.0172608224175061
P 1.9995798827539426 3.4187813403600265 10.367330254645847 -0.7384601657996767 -1.5892605704666825 -0.7818603871621824
P 3.9366296338343822 6.15263561261353 3.8008991658451303 -0.6981714934829588 -0.7252799196639766 0.25437029148960705
P 6.935904454871305 4.099455889021238 10.12552114148899 0.38485660513834363 -0.8202446433673356 0.49438251448532927
P 6.39016144341845 7.7553468561553665 10.212828984866716 -0.35781399919825474 1.2656052194280074 -0.3212989349913563
P 2.3161120961045185 8.628570056552046 5.792457168300747 -0.6339821032892436 0.07385648096983409 0.6148947476404893
P 6.979035859543218 3.808339265291682 1.5399874865148664 0.8494446619700597 -0.060249945929993005 0.10518537299010272
Ni 5.3586359446916285 2.699065044025372 0.6680644713188065 -0.18023201761329607 -0.35888692054745935 -1.0209267013048675
Ni 1.173586791941359 1.0922008080890713 7.258340431919892 0.28956458000255286 -0.7215857586418412 -1.0400685643406409
Ni 6.852166013453526 0.9289764446988247 9.535646026107518 0.7349542095289472 -1.115390317002092 -2.2610242633800737
Ni 2.560215760179101 1.3964188108756714 9.212581219055846 0.024947156863640907 1.098996449025101 -0.10360825831096994
Ni 6.494085780330888 1.80213630969951 2.6705034948061925 0.7435931161508678 0.6239249761635578 -0.7117057805239678
Ni 3.850041099596873 6.828578102402618 10.691666293574256 1.3101171857974534 0.7037456451366266 0.263271707744295
Ni 8.47872755754396 7.412349495193013 0.18213631263405453 -0.24436047266208882 -1.2624980412575935 0.546254263653956
Ni 7.831068846023048 4.177892253002948 8.016792656444478 -0.23372433310448135 -1.2182138746282376 0.3594872731356196
Ni 2.9989943357118065 8.58598152670294 12.419327415915795 0.6707427078480449 -1.5802406263562592 0.3311262054944233
Ni 0.20261717011577082 4.931673944468661 10.08691912242202 -0.9154955308525458 -1.1749836031846925 -0.16318868897776412
Ni 8.390266105167772 2.241910155740693 5.813857293815747 0.8240359920889679 1.102490064000656 -0.24552518239415133
Ni 3.8419341689096416 2.814136410632753 11.421369677065792 -0.13107766737583232 -0.5586976316236314 0.2166234117581366
Ni 0.9796900010625903 3.2064177575921504 12.398536214993706 0.4252663764139579 0.7205238930362301 0.9659842836307171
Ni 3.3169832631702443 8.353377760958123 8.15286061161524 -1.1485781166079703 -0.5653033098656071 -0.5755201024976088
Ni 5.636379751952737 7.892893240426904 3.6971965028186715 -0.7756791980521351 0.09620759497152463 -0.5757733561589955
Ni 3.1543832058262247 8.29776023536168 3.568466405669499 0.2051367512747757 -0.05523732320675003 0.4647268964024255
Ni 3.677786918320625 4.634884278840786 9.638222223876655 0.36334315654660004 -0.27263823656085945 -0.9069934069188057
Ni 7.197009148813419 6.191948797698377 11.426083640110487 1.4077977657700786 0.4384797897804384 -0.28850374283820635
Ni 0.6501206488423356 0.44767357950437714 0.5663948745037554 0.07243928890733331 -0.8073230502096613 -0.4448535545172661
Ni 4.832707864271182 0.18558718692435608 1.6203700567363346 -1.3106411766217234 0.41249339301900567 -0.5983237306556857
Ni 6.118163061365368 5.478493657653414 0.36176092442126134 -0.35472636141186653 0.5445372809628493 0.47334754819190095
Ni 7.908645658201983 8.765962626290454 11.58929805079565 0.18225701846312484 -0.5383728040233502 -1.0475677009311635
Ni 0.10623517407484714 5.073626662718637 5.825722727859538 -0.2586447504952449 -1.4086169192372642 -0.5868177868986152
Ni 7.937788988272935 8.622878918826299 2.384728759333045 -0.06990238141809252 0.824670283238857 0.707970996071884
P 8.518230748816787 1.4758594932795719 3.7345272900089057 -0.3152756116154119 -0.9303282249900043 0.9915675314164599
P 1.914411870969442 3.138856985893981 1.5555480885192203 -2.0490728031763097 -0.31676685144895766 1.3263537022609737
P 4.554167840603291 1.1732791628751025 8.157111321477808 0.038632110549901205 -0.9860615139965664 -1.2333304185547016
P 8.501274958517824 1.6210423167252423 12.425869057530603 0.37014192463598833 0.4443442189810154 0.2425784410610016
P 6.253700808792524 7.683388798392471 1.2794220482300727 0.7943654616077287 0.14172846222145913 -1.1427874780681222
P 1.5539429886264582 3.3258321227819776 5.789239730184252 1.2151470627774557 -0.06173347245405498 1.5395601179177614
P 6.805840695240773 4.216373030026158 6.041231365434202 0.3498649195545071 -1.1887279493539786 0.03141913774122976
P 2.3259471783110155 8.40411846106303 10.195229887902727 0.46082807556865146 1.134439363213743 -0.2925573440822897
