# total energy = -381166.77343133587 ev
CRYSTAL
PRIMVEC
9.27838811466839 0.00000000000000 0.00000000000000

0.00000000000000 9.27838811466839 0.00000000000000

0.00000000000000 0.00000000000000 13.57985887966481

PRIMCOORD
 96 1
Ni 2.047155660173891 4.7346778146267186 4.120278744425017 0.3923588270526598 1.524651319126729 -0.4545553551860623
Ni 7.368097689523196 9.179081265350101 5.946022379644519 -0.4262184559145821 0.4769856591651204 -0.8106485150384685
Ni 1.2911062261747455 4.6100505090186115 7.926780968521345 -0.28041453807216865 -0.44765451430117104 0.08616666579575483
Ni 4.634675350373876 6.062368724096041 12.329017857819283 1.3413424623603223 0.3739109047601173 0.47046534154809944
Ni 2.4886677460406075 1.4227016010585878 5.127714035329638 -0.1744542345892544 2.732211313585546 1.7792630372031808
Ni 3.4830604071437605 4.455444732265494 1.9898291408394897 -1.0478155552759116 -0.7647671791253217 0.6998442531996915
Ni 7.113480170129387 0.9088004610209454 1.500913771444497 0.426452169191943 0.6253683934783036 -0.3147883875663482
Ni 4.71756846743037 3.54188538611602 11.993649601123662 -0.5050060556374464 -0.3109433027886452 0.1576145373240963
Ni 3.8884053371691727 0.278449058587855 3.854860253734424 0.4006107826488068 -0.5692831204489616 -2.1824467227854862
Ni -0.05282000635540697 5.571811080051507 9.748138709803909 1.5491796432853966 1.9920953573500013 1.3549726515492468
Ni 5.603589558439518 0.756971705751487 13.050053439586941 -1.1164079596333287 -0.3110626019753288 -0.3164760596814163
Ni 6.7610034940762045 2.6594086392657688 13.375983720161017 0.4253820760562158 0.33504816625664874 0.38105959998975664
Ni 8.458011353547393 2.8349928509488986 8.161223561372998 -0.313370424172899 -0.8846528344400763 0.17559246195875566
Ni 6.188192941736863 0.7656451427141475 3.59609622281022 -0.13879766172790936 0.9463914491004539 1.571337153219042
Ni 6.453619782976522 6.914106171997538 8.803333464729045 0.2821883421431398 -2.5286761024699356 1.9049894675694288
Ni 2.8951260826080807 5.51664178589235 6.191383779318655 0.01365281489674423 -0.9804238560948149 -1.11834580008599
Ni 6.778511811950126 6.354665776550788 0.3244225425483676 -0.7339514792960455 -0.5638614352127579 -0.710984328976911
Ni 5.994005562413452 8.269326058219336 1.9836367447880565 0.5656923177739096 -1.5519158112696367 -1.467078148697951
Ni 1.5944723953351563 2.6823819275836422 3.2773900950165538 0.10718851946306056 -0.6817925379043032 -1.0858977068596136
Ni 7.304735578892036 8.68638959209995 10.002910250436038 -2.1254654203044363 2.108079363617505 -0.7395600837320747
Ni 8.187379336723597 8.790595166049073 3.4583149467464396 0.9728031063247632 -0.648011070578484 -0.15364886780812892
Ni 5.817901761010694 8.512865182519633 7.621071078589894 -1.4169120693665211 2.0645349033676506 -0.9568542963049909
Ni 4.122035143245119 3.681024090322331 4.336361263398071 0.40990712034906823 -0.4267432180698005 0.4172980134965007
Ni 3.3774537966292084 1.6530004658961996 11.543572635432136 1.2783743461682175 0.42144237468217743 -0.6553217453072844
P 5.112670057268814 1.1183519227860226 9.640830442957572 -0.8842453145890126 -2.3910035554854048 -0.7821475793852981
Ni 0.525012009488633 5.692550741150248 5.701476550262442 -0.06765755124797379 -1.027855567214217 0.1931692945002544
P 0.06833532651903675 7.726577482515661 5.895369804690992 -0.3551184546439626 1.482308335384144 -0.6011925675630485
Ni 7.9480711572831355 4.11032581777777 6.253674236153081 -1.1429872527837541 0.18467874053074002 -0.16032268028387872
P 2.5835392618121147 1.068536258416612 2.3164525169859993 -1.1412077922858281 0.01868832043812265 -0.8408432934542938
P 3.0126461431226934 6.299811947578549 9.232497872044297 0.6807579259922018 0.15178276113366765 -1.9342208536307206
P 0.9104464470256266 4.574569953878246 11.563317044778032 0.3595194119251357 -0.38840961259692464 -0.26570037179044564
Ni 5.503243793836208 2.934466447094261 6.519567780301621 -0.6187202920341667 1.5981897546355122 -1.7816091688378544
Ni 1.4445893179979505 3.0459555555060387 0.6837401739637339 -2.2199429199587315 1.866474342213366 1.0439121064564474
Ni 5.115583471053875 3.2020829878666404 9.491994895608691 0.9609575198400869 -0.20786340617731947 0.03836085916638555
Ni 8.469655730299788 7.93623193438588 0.6630744207042837 1.172870927717064 0.7087703520447277 1.8949616510197815
Ni 0.7820419097235761 6.9940023697783165 3.6520040766422777 -0.5599443595465389 -1.216241581393215 -0.4655249668236886
Ni 3.397077586933046 2.2186202676513926 0.4272400696750551 2.410863270523809 0.2545153017079036 -0.6261731487677861
Ni 4.8796340680153 2.412668471157046 2.2626081766118955 0.319852689463133 -0.35779805835865475 0.7591521469313894
Ni 1.603166244751088 0.840832558660789 13.429420739308483 -0.5632276582835009 -0.4585423648582684 -0.31565999153802415
Ni 1.3212981002403186 6.950653741740714 7.595323552304718 0.7899881584756394 0.5944642477002794 0.41492591371989834
Ni 1.8778065251263072 6.6224122147530755 10.929952949809879 -0.7254907501232021 0.3239371439451518 -0.7874743909148502
Ni 4.881990778529331 8.1314863283121 11.051954471656291 0.7115070342496005 0.49012065388518167 0.17089968446877662
Ni 7.1583411753866235 8.340537684972034 12.442042539420319 -4.5433753132623815 0.19844134153247114 1.8185836891796743
Ni 4.178290008782786 9.385553230187591 1.3286224596095144 -0.6125259902979967 -0.09410571813717342 -0.5605161728896089
Ni 1.5458350862227612 9.087540690816928 4.030135495102131 -0.5931869236497526 -0.7240959266582045 -2.6471203973524733
Ni 7.095749170947055 6.546078917906895 11.159058613969915 1.1105584428310875 -1.1379111238124273 0.04957241161148882
Ni 3.100326908310052 7.9405185495728166 5.408599598567037 -0.3134419008407828 -0.326830920553179 1.467914271446001
Ni 5.894773204352203 5.784471729585291 2.528366256297817 -0.5503163495384715 -0.7599453322566461 0.2868898613838672
Ni 1.361223003161081 5.730619966500908 1.4877551617948976 0.26593305662654204 0.2102229075484315 -0.1530305174978397
Ni 1.5472732363395907 2.687809784476193 10.148404650319948 -0.9223462352257922 0.4057159650858561 0.1103049536048552
Ni 1.2514782316651996 2.310151563796715 7.418133251684664 -0.6065900844295359 -0.08355673897673352 -1.04600524154005
Ni 8.231312503195781 8.08494593485392 7.959861204724783 1.3919379159196867 0.050519091795474286 -0.5712471861538678
Ni -0.055653626004954 4.428871429461622 3.156706104244916 -0.13964509732986916 -0.030542391563231266 -0.2531454179435705
Ni 3.0998258753661245 4.385940328877293 10.327740114211043 -0.2951595575918271 0.6306039308456302 0.6868115883854494
Ni 7.749884792796153 5.744463321173874 4.492380138620821 0.16560706861126964 -0.5251817592543729 -1.7461945367839864
Ni 6.146403082858147 7.558397424337242 4.081833744366412 -0.1117907941217623 0.522378742587939 1.204464643362945
P 6.426415549798814 3.2652595307407912 4.335193114367691 -0.11885284317486629 -0.2420307960876477 0.5934149805001587
Ni 3.4321406146201388 8.901945098643093 9.268240077722046 0.24533646342211293 -0.3057468461893702 0.32900350272446566
P 4.85362674687031 7.927148392680226 13.374734849156338 0.8297181300754097 0.6347608904367971 -0.25719490542259577
Ni 0.48007399361223785 3.0827258065576264 5.303749176662302 0.5170254486958257 1.00563172281901 -0.09628061430130515
P 6.4879962099626765 4.684695139275998 12.220188863204246 1.2941804599625388 0.15368152081827727 0.4761672770288831
P 8.65356265588483 2.2867793048012697 0.9955459647129723 0.6483805381027608 0.9881302236001368 0.04398283333885328
P 9.152981160326604 0.7343788313354849 8.069355459748701 -0.06444058697257289 0.4145826714478666 0.5227448676781061
Ni 4.199593187287567 6.903751491156365 7.389778498413492 -0.3981211834577337 -0.042145265909482255 1.2140134633936446
Ni 8.344017080415977 0.8486542396187724 12.928229134948475 0.9380968131918295 0.7811769879419127 -0.005952103818376846
Ni 6.467908500266313 1.971174942066031 10.947687660347352 1.4254036517773 -0.5190622766201964 1.192017418738528
Ni 3.1274940279363572 1.9685398799164848 8.488959416222784 1.7587800867584804 -0.3303916413212439 2.0650059294667984
Ni 0.8759902259039573 8.497945534856006 9.4392917969402 0.6437250416086204 0.5573169492260208 0.20899417734765297
Ni 7.055907773516947 6.847376006576641 6.330250626760946 0.6398966690014657 0.10467423768163908 0.8225527226752222
Ni 5.475362238345412 5.661616596056634 5.166131200224692 -1.6746751885877609 -1.4795899080117165 -0.03141039599048139
Ni 8.849280969203576 8.140412137424294 11.328575687837594 5.205601241888667 -1.1523026166474089 0.4908660166916385
Ni 6.404008243139822 1.4368047505913693 7.776574075448157 1.144088456267733 -0.32147788377138187 1.8212679208800568
Ni 5.906055723978429 5.142824817782985 7.474951315364858 0.29519426748450456 -1.322926935967612 0.616117564303997
Ni 2.0398628473233873 9.32292411219662 7.365416235434398 -1.3240296821134874 -0.8181304252378104 -0.4840723908085728
Ni 1.9402593537481176 7.771058073871026 12.863955886630396 0.6739565867996522 0.9949729575535833 0.6386805372061776
Ni 8.490875403313915 4.594305084836289 0.6990207509147457 0.49963116447877826 -0.48941514317772483 -0.33416679209295996
Ni 1.6566375939336013 8.345622241514114 1.5773138726832006 0.15435592117748256 0.07665049877520348 0.8874486520176588
Ni 4.111337162053476 0.866312867375871 6.663174956096739 0.7554129916039313 0.23711330418137228 0.7554451303934474
Ni 8.403417319434968 1.8806828253599663 3.7950545491663648 -0.9100789878226649 1.216791283249098 -1.131652287386909
Ni 2.6455838413685027 5.340584376428844 12.72461213005259 -1.8646087497595372 -1.576375486973898 1.5730865318099811
Ni 3.805280260416416 4.181481774203363 8.056848192926209 -0.1152908368552208 2.7516565667943516 0.23975562690022578
Ni 8.41591530786961 3.236700652936909 11.921037865644323 1.205896233603149 0.6719398134799396 -0.0960967804252732
Ni 3.8175370107669453 6.73059821709007 3.617022698768269 -0.34046368084526524 -0.7420383700692381 -0.698159666408417
Ni 5.417650665915214 5.35079060306441 10.31225912408246 -1.0094590669849002 -0.28541173417644394 -1.525604684178934
Ni 0.1243164796151139 6.309906833559908 12.862910212319642 0.12076600103717912 -1.2084172002527898 -0.7200991467939857
Ni 9.160904903550945 1.1760078248891175 10.727789868290166 -0.3326220733136594 -0.09016267432902537 -0.7021998979160616
Ni 0.2079110427931062 0.7397955541626151 5.4768792547589715 -0.15034577157682494 -0.4835483999843027 1.7747432949559563
Ni 3.835249453173577 6.514365388233838 1.0859592151223074 -0.03150912635187477 0.9208758213278527 0.02185334842966559
P 3.1370786025859387 3.054686518473373 6.524904708993238 0.02382692721626864 -0.30766180382389596 -2.3597931913208714
Ni 5.396774293251558 4.1406383108854 0.6971966198633346 -1.2861161948971656 1.8317955598842581 -0.46444021839994204
P 7.85323675506303 6.746928179706975 2.5207208647089936 0.7067008711102087 0.33784938315086976 -0.7883567935198036
Ni 7.050461359848695 3.7144912352991355 2.27893071651852 -0.03504593586053965 -1.5210060090646578 0.9122541410971128
P 5.117485540563231 8.903707992334692 5.37824906406922 1.9171160756296342 -0.9618772034408788 1.0278594238689587
P 1.9203850469723163 0.26402766035180086 11.325601964531504 -2.0005771695687673 -1.6617224850818348 -0.6357870177084664
P 8.268472446537091 5.523906763579302 7.911530082411456 -0.9538489338197637 -0.5464838631662589 -0.9772626847580136
Ni 7.661647324337764 4.0470286558615625 9.809152460470106 -2.2927568185966645 -0.1645356899239618 0.4474634813362874
