# total energy = -340861.5421505453 ev
CRYSTAL
PRIMVEC
9.30790487288095 0.00000000000000 0.00000000000000

0.00000000000000 9.30790487288095 0.00000000000000

0.00000000000000 0.00000000000000 13.62305963890685

PRIMCOORD
 96 1
Ni 6.5570280179276255 2.4162297058814213 4.6110783417998435 1.5913940718699173 2.414622223345609 -1.32968122397231
Ni 2.8483771111438267 0.875532244021264 3.887993755390565 -0.6132790664139374 -0.22820854549257472 -0.06726057291987127
Ni 8.72001755720755 4.193173892502212 12.962681579669704 0.6976932682949597 2.431408441665013 -4.362437527831313
Ni 7.013050199068769 8.613860902666804 6.918729476304789 -2.4819223912541646 -1.707236410353234 0.43650184011846116
Ni 0.8692996709497617 9.251936394300051 5.006706182477364 -1.3542105765722419 0.7246384294252359 -0.597766572600635
Ni 2.341403458985055 0.08184719950663202 13.363540462859447 2.8843748550974 2.324031203229913 -1.5145072887141917
Ni 7.771532747531397 0.4298194982654183 0.7319466425941311 -0.11754877965146207 2.196933346437436 -0.26793954553360955
Ni 6.962415196815226 7.637191757177466 4.2505440946878625 1.4560702276232214 1.4261929804478146 -0.3572110755069332
Ni 9.159992910428638 4.736876537104454 9.631284709436864 -0.9619944457450335 -0.80834454949564 1.2384461425147122
Ni 5.6370347049239165 6.293716698304376 2.5290526818585617 0.6432095354247827 -0.6358500097359178 0.8960309943700311
Ni 1.4843967379390168 0.719635076880756 10.568170008118832 2.232248219688646 0.7110876873239947 -0.34107148963259326
Ni 4.134906408291334 1.8879037200517623 1.3545719430066703 -0.7619351089931652 -0.19749106180405987 0.2967734390461663
Ni 5.6004825626721395 4.42943644070105 5.798410504845019 -1.8935375169787456 0.3048862979612878 0.5562049471087647
Ni 1.6518273299494448 2.5790994245271004 2.266795017061618 -0.22466119446094854 0.34541948218864377 -0.5263228148373517
Ni 4.940207718028836 3.104567883575171 10.857646778998502 -0.7507322982988103 -0.5868560963357183 -0.04480918589489057
Ni 7.00666497635812 4.905945320364261 8.032864275798152 2.005910665966539 -1.404617568269884 -0.007364410784871188
Ni 8.745214055571584 2.2736419118516373 3.8073184211015287 1.1384248302240523 -0.781129422533429 -0.12335407347932949
Ni 0.42031240427612265 1.315132488677863 12.886787716089795 -0.3892591050814135 1.111087832971996 -0.06057930424495373
Ni 5.555534690267295 3.128759128217994 7.900679926992409 -0.9381767745001455 -0.3580217443336866 0.4295907148209247
Ni 3.313306957203471 3.4226934547188455 12.843235098618369 -0.5554575274197788 -0.6568047576107141 0.28877113756698014
Ni 6.106069337011834 6.600309775368612 12.36723163818721 0.9095128309065497 4.187604826856717 0.12087861535564344
Ni 1.4622253086434398 5.099196040362066 8.229799064526095 1.762291956566481 -0.4147906736936147 -1.698558680073578
Ni 6.892149823283609 0.7865133038461845 9.224432466329649 0.9935495948434954 0.8985486185855621 0.05663086112016698
Ni 7.521001181234273 2.0126017210059373 6.808587176917542 -0.4393411093394691 -0.8333945504857325 -1.084620639919403
P 1.9719541006307129 0.4436892072466691 1.9862826893198864 1.0707536521293235 -0.008454044304624151 -0.888852988564353
P 8.560070520677241 6.266975087739223 11.79758320888244 0.4081813959072132 -0.26887825529779497 0.3468310178241898
P 8.363645805133764 2.499237601119858 8.583617658306103 1.7894474339353506 1.2201550575150084 1.5364871354193925
P 4.845443938995138 1.348659561861183 3.4674775079987525 1.8636420149708937 0.769756661920113 -1.1582693757538052
P 2.1203872588912365 9.084459262765494 8.256895306265118 -0.9418619366612166 -0.4332614788042925 0.8528999675085117
P 7.0600365026305125 1.2893682081194426 11.702125990939203 0.045991379128449826 -1.9142330976548838 -3.5392944798702595
P 5.365616200197206 3.6064314959844586 0.5640841637997759 0.21322158516543924 -0.5416501892230413 -0.8390818306784968
P 1.0806849819200988 3.416373387341978 0.24631973936335128 1.340840325912923 -1.8135044748845541 -0.0677771075449736
Ni 4.345963150221313 8.091594362878883 2.9956560892059243 -1.0419251579334055 0.4131068582332885 -0.09074734318790179
Ni 2.878087943348479 3.514674170209564 4.098088990752016 -0.7601193959406651 -0.18071049991161134 0.852510445379577
Ni 0.4719312520697757 4.607654894404834 3.369213956750471 -0.11896160083858866 -1.497370371923589 0.10008970363475021
Ni 4.873376961378021 0.641858224154542 10.482372533804037 -0.11827434496357696 -0.8405985244333394 0.46287467368503504
Ni 6.550065705117762 8.271311389259656 10.867468480170919 0.01505946543628374 0.4429213704915598 -0.4064384450741774
Ni 2.8308410184516073 3.321274523734543 6.827319335379905 -0.8092984287684772 -0.9408106125785668 -0.467111337474202
Ni 1.0604216731138556 1.8291336089802788 7.64016563276938 -1.1408696922201191 0.0016002546075843409 0.6389463892730545
Ni 5.838764926218224 0.44021642795608146 5.241621876847876 -1.2892609111737343 -2.2399818408874776 0.5704329177826886
Ni 9.013970499518052 9.01418458132905 7.22494837559502 4.5683270981117134 0.7642107924012194 0.35636466834623787
Ni 6.992042257876444 5.497127587484026 0.8522680666991124 -0.25058511341556194 -0.766445338158693 -0.30918955332233206
Ni 0.5524278745861523 7.112970557376082 9.54010633534215 -0.036080804882957215 -0.4503143205215212 -0.0005440454289280954
Ni 9.249023020089508 6.4639303538577835 4.569991388316831 0.13442164414740077 0.8209020744456765 0.37213812913041067
Ni 8.992580934227862 2.3619739286505568 10.868790202656212 0.32565309819499405 -0.6449152052619798 0.09869230906659132
Ni 4.049776310752565 8.097486266633753 12.310941152961377 1.5421340492925248 -0.4912719938808055 0.7030254791411505
Ni 0.011314689106508579 6.048667487949777 0.5299641770790383 1.2485660045575335 0.12465942255431434 -0.17919971969403978
Ni 5.635154508149061 0.6546528701283876 13.114837899860635 -0.6058609195729953 -0.6034183715697736 0.392465270723537
Ni 3.0987504430589095 7.581428099364787 0.9919620331184866 -1.4581013991206373 -0.9228393728121268 0.25201567521450147
Ni 8.060515268664806 7.826253920003563 13.265713452347505 -1.0497752501054436 -0.6161777281179711 -2.655743877355426
Ni 4.58500876196313 5.393660917438 13.301337596488128 -2.515719285198951 0.4605658230462004 1.502796942255799
Ni 8.528730805128035 3.564648311220459 1.3778770751100564 0.1438020569210362 -0.41923919638327156 3.2573817599860093
Ni 6.4840540440916365 4.58007557240534 12.230292811596337 0.5737288149251409 -3.3829819491870383 -0.6448681540741281
Ni 8.77643276835805 9.16190103091797 10.4346369439038 0.20033341634886143 1.2516549278955023 2.9593371675369036
Ni 5.069317665870545 6.693537750106018 5.0708702243955255 0.4092478894985146 1.3044615301735727 1.4223011015925764
Ni 2.230052993551391 7.441986377166198 4.040041173095031 -0.2369585237710629 -0.43588503247006866 -1.133415549934919
P 5.038480577181945 7.422030229219214 9.47861180052809 -0.6065278637330328 0.2970452046503142 0.28030295219496887
P 5.568863609978154 0.9825424334345555 7.592839590681487 -1.8970583856478103 -0.252156828778056 -0.8511361907398695
P 7.052273710005613 6.431585384587367 6.147065073027553 -1.5312999347914984 1.8013665539704395 0.16980130919827532
P 1.5304522510181582 2.1204337984153665 5.258377967115677 -0.7992919523750686 0.31945493980408207 -0.03344182459821338
P 3.554623697722837 4.1423341163424965 8.652536178009395 0.08848631506786696 0.39385803730600555 1.5806139505352776
P 0.9817419536195179 5.082199806149755 6.041486439376503 0.5014335077948396 0.43141054163848286 -0.9976150231621205
P 3.366064161757346 1.6240339261389523 11.555283553613446 -1.214321995772999 0.06911048164441647 0.32000438454964886
P 5.196575340651877 7.531835582451759 0.7619674280294899 1.1001573021024214 0.34253830398610685 -0.9089376751293702
Ni 2.803587473121024 0.7779900553969988 6.465217637095222 1.468398410171271 -1.1431453756281733 -0.3229503545518503
Ni 7.148014819046043 3.374385428671807 10.143334892887747 -1.1815124054421458 0.503131464322553 -0.5259592608503457
Ni 7.711189600544317 4.63333540381982 5.5736162261823194 3.328585633824345 -2.5105729651113213 -2.1164051098743806
Ni 1.735319236238834 3.0884372845116803 9.795429611043708 -0.37356817670871795 0.5418144827150475 0.39462808270281075
Ni 6.030396070776301 9.216761821962526 2.0875703788461415 0.690437872284127 0.017744468467614603 -0.1570514657317747
Ni 4.777849934148589 5.405779809521476 10.619896827608468 0.12893465289090053 1.0551380570792537 -0.011694662729108891
Ni 2.964316373656718 6.967301846848886 8.530146537452072 -0.07406833987032406 0.7939628268526713 -0.9045477735917906
Ni 4.561943773804255 2.385690470147253 5.502762593065698 -1.8632411799880493 -0.5965800084917017 0.6109434763022252
Ni 5.013796013583343 5.68032577026973 8.137911428083637 -1.685070415779156 0.3599305313206253 -0.4306752061343551
Ni 0.5581652671209104 8.854339931751829 0.7574028315028102 -1.4950499513205284 -2.0492298975794645 1.9973980005098375
Ni 2.237862325700421 5.049240515160823 0.9077199097001198 0.9232255525069518 0.13069277323258782 -1.185585804180571
Ni 4.0506419459013845 4.457890705754189 2.2356935838759586 0.32304908491324363 -1.1148408722565253 -1.9023510015053173
Ni 6.430003040766945 2.438726911845909 2.0816579977006544 0.05056614298332581 -0.8823408984774481 -0.42897133606937093
Ni 7.412713016488369 2.540722932929424 13.187448865408408 -1.7423219412024573 -0.6305152277865657 1.6492348941377857
Ni 8.119192300688029 7.460676650056844 1.8388948087713248 -0.6612918468477902 -0.5346573028449759 2.2804088385542722
Ni 3.19947128118126 5.418969110659946 6.202688181477359 0.13674592140520322 1.6768045762259378 -0.583504406254666
Ni 3.5025273544116096 1.9687428734657364 8.849811636053971 0.6687233634251709 -1.4843451633085145 -0.4286530334980037
Ni 8.816363680061672 5.989283055159776 7.259305713888821 0.7572585294531022 2.136492110432243 0.753920723329121
Ni 2.5025605231427464 5.4669234363235955 10.340583358008328 -0.8757709585694143 -0.5605228577578282 1.0289698833243182
Ni 1.60016845816504 7.4137555018288825 6.25842019241363 0.3328395886411042 -0.2663148654459929 1.9662719685289944
Ni 2.5994558123816036 7.923651836103025 10.616355169822167 0.7129365676072754 0.2895113581671143 -0.8068628227437911
Ni 4.798522790767177 7.965965571442107 7.2317059144987095 -1.055316491638647 0.7387257607562375 -0.26073042937968
Ni 0.9835104555364614 7.822009515402899 12.205947986523885 -1.2294755635849859 -0.35758568523753254 -0.36306213497107154
Ni 7.16214421857194 5.904078494382398 10.208616814175514 -0.5570058457435052 0.7149196594755752 -0.4089825516522698
P 8.017512748368599 8.104048339536096 8.932408121899096 -1.0582663182955903 -1.7075778528530527 -1.1936030180580928
P 2.5428916747538866 6.312472126528804 12.537301952006297 0.6514072407442266 -0.22137146796608326 -0.15199616269605434
P 7.974277530451741 0.35954109366704523 5.158126247396558 1.3363547793377435 0.3489331517688571 -0.21158045001759043
P 4.244655914094923 5.167320595783699 4.1259615117535295 -0.7183672517045434 -1.1809380209959146 0.5961462633883926
P 1.2759089777410193 6.259128523970889 2.309966941225659 -0.5519376871919784 1.7076899529508847 1.425325490241197
P 7.166947097462166 4.162336803813611 3.133331171068535 1.2753689836829907 0.49633963821169996 0.7786231111718075
P 3.925720555231385 8.494310173081418 4.985372464616129 -1.434709245448942 0.578551690235081 2.488393343690489
P 8.383611260985575 0.0006915773285732045 2.7526750953036654 -0.22175661921964387 1.1227598699932857 0.6319092799206149
