# total energy = -340874.7859694407 ev
CRYSTAL
PRIMVEC
9.19152099027611 0.00000000000000 0.00000000000000

0.00000000000000 9.19152099027611 0.00000000000000

0.00000000000000 0.00000000000000 13.45272006244648

PRIMCOORD
 96 1
Ni 2.638628249301807 3.2899945598964373 12.611924622399576 -0.459779322589163 -0.41807242976868 -0.08487545778815705
Ni 1.7418023766544342 7.344521434056983 10.923971689304109 0.8391900741215871 -0.3082845250095594 -0.21798815331614715
Ni 5.354695061056127 4.233127314162298 6.0582039498035 -0.5329089526953016 -1.354576187441777 -0.019960502282326913
Ni 7.560706002470407 8.461199291903364 13.119173402297717 -2.5263024600314363 -1.1316772270875735 2.0860344680023237
Ni -0.06345366360723102 4.896672389771716 3.2926067900981 0.3067297789279298 -0.06721249329075522 -0.818799683390693
Ni 0.7608189398746926 4.456426119648511 11.070498317593334 0.4953541343699791 -0.01992810638249471 -0.6852473292221231
Ni 5.458485713544408 0.5164118069496435 5.319729596910655 -0.611533030257108 2.284648330556917 2.3549312352428795
Ni 0.18573581757230384 8.624845127619036 7.083153187862661 0.9435064142431752 -0.07544902226793457 0.6060390970220724
Ni 9.149285727957674 6.163116886977295 7.2373078592354885 0.14525473020716273 -0.22118763409005132 0.46983079328789407
Ni 8.357675193517293 1.7174816127079238 13.149186475054535 1.6212978014078852 0.06067186395876002 -0.1376946584717177
Ni 7.396527058550314 3.972731530865006 7.378668852854291 2.2452405181832558 -0.1160534260528582 -0.553518401415537
Ni 3.1876561676891644 2.422508021533744 5.815449452312155 0.518977430215874 -0.7951041395459663 1.1524874789647053
Ni 5.7144144177494836 4.431085096896989 8.645094047866262 -1.3243112179096483 0.08198219540076204 0.7053602979219142
Ni 2.2059833668519824 7.482329904899774 7.95057078981961 0.6459079081925521 0.3612232819901199 0.12302882892942682
Ni 2.8605850927562018 0.2907452657141408 9.953169700076728 -0.5008192712496085 1.189828638617325 -0.49683534690119596
Ni 8.198174733667031 0.24803134956303435 1.9170800818993232 0.28007515245487896 -0.21565256320443507 -0.5332326545833075
Ni 7.439718014629169 8.543362296029537 8.514414520529485 -0.012888425926893933 0.14536374498120125 -1.1147992203853123
Ni 0.1609582350437295 8.74176127176099 12.053704264094264 3.3006338858064255 2.4237524677816515 -0.06604726933806045
Ni 7.576717631644565 7.846277361145435 10.742009910158274 0.8219485134323199 0.11162547218849161 0.020919009540854294
Ni 7.693339647122009 5.126221429378725 5.3797961851156595 -0.36957576771987316 0.7318298049673525 -1.3912084939528298
Ni 3.557127727915117 2.674686585266342 1.3697158287705893 0.4161140204907285 0.8938661255082284 0.01901459342928983
Ni 1.6193161709283588 5.433264180562842 9.118038233961999 -1.4986836914183739 -0.7750240809666394 -1.2584097301208328
Ni 7.684166509397665 7.4862179181837405 5.609689906751389 -0.09949886412828671 1.2801568919899373 0.4924138207947326
Ni 0.9114615311628785 3.1965903258735966 1.3396678282348613 1.1203306917265026 -1.7323231781185326 0.7187919979467878
P 2.1892915651411498 5.101321599623964 2.92201110688248 0.6269498790328105 -0.8395124904580124 -0.2250550874652576
P 7.630166324898138 0.4875688147863219 6.419180706537629 -1.1895920971264868 0.3570737785981205 0.030991820395824047
P 2.268357026769223 0.17634024504542448 6.665836085442012 0.2250967393364704 -0.04081163469972326 -1.0002403766001096
P 4.887306230111288 2.6105573448828188 4.383918808086891 0.2980906151956931 -0.3844639976856153 1.7633121703008792
P 4.00756739456768 7.760768643460482 9.429509459851113 0.2284558856166904 -1.7854416552100671 -0.7794702896634512
P 9.622603089796502 7.362527623237335 9.355236457150369 -2.6241637885563 -1.4348115753547612 -2.452353933568428
P 2.1058141735454563 5.6648445462591095 6.555967999423332 0.6237203163519194 0.043390965391125275 0.40655517315769985
P 2.509533340145066 5.867701409562013 12.255912206031097 -0.26652492457427 -2.5274892812506855 -0.7833621685186896
Ni 3.5261982605379414 4.998247885755421 0.5247733333903617 0.007829009126115548 0.08669322772318618 0.9429572266079244
Ni 6.22563761122679 1.1089202143199817 0.13827356179354539 -1.6376613303675733 0.3767712570270479 0.7365516359230541
Ni 4.8394827475664295 1.6890154728960032 11.416798973120589 0.14508580872946625 -0.5106167169560044 -0.045138287099535164
Ni 1.803863524865635 7.1702777748982545 2.943965973383854 -0.7443860443658084 0.9509083631342011 -0.5253401392091082
Ni 3.9516277991865527 1.0451126771632644 7.7270137025998755 -0.32943724782777456 0.5300450008839452 0.550163111790059
Ni 3.2716390929269816 8.777755267080163 1.963921910026385 0.9664987613732903 0.15851519476149475 -0.20124050154416312
Ni 5.078774799185268 8.351755854144068 7.301611738513563 1.6273072408267588 -0.6092048963445638 0.8958859841517345
Ni 1.1166319002425524 5.494985242505705 1.1326600741540884 0.3707903568532646 2.249408790628332 -0.6616767409910346
Ni 2.455873241913877 0.2721563341172314 4.283520745913295 0.47636962284767637 -0.5112039569180422 -0.05421659525171953
Ni 8.788858624165343 6.517302948169595 12.171711441751128 0.2132007592298328 -2.3325266422954347 0.5458148621236922
Ni 3.6194554302285287 7.4602426804993724 5.714150621103503 -1.4475004836763392 0.8562634846641061 -0.7088256307626953
Ni 8.725584195213047 2.177434503353169 3.451859998039759 0.8049429800132589 0.5365858873262564 -1.274262123772057
Ni 2.45533094218869 2.776648125122214 10.369208261958843 -0.052868051643625076 -0.018262802864929838 -0.8050219128803103
Ni 3.755591044291931 0.9779318518854704 13.313201809904994 -0.5965152166920372 -1.300015321476761 0.8218852642945523
Ni 5.0890693024430504 3.8810920688292136 2.7183913473560097 0.24509452261463593 0.3070534808159357 -0.45650605115452986
Ni 0.69257373649221 1.3163268804019934 5.566520091170295 -1.05616238457871 0.7390018972357595 0.08215677330541335
Ni 7.188192048870948 2.4695594163342673 5.215067588253767 -0.6304560924138561 0.21037974484126995 0.9179321653184964
Ni 3.364767581326846 3.7982488921663653 7.7982185756689715 0.10959867156644996 0.13708427858122843 0.7416491050506195
Ni 8.469820938381757 1.7925028051990108 8.020175419123365 -0.1364499874313392 -0.3793233340249403 0.18032894820247652
Ni 6.030878477718625 2.0258111767992637 7.390197777350931 0.14188581373492984 -0.5290512695121082 0.14543367898718823
Ni 6.8511205993447115 3.4210472629763102 12.245459608616141 1.0147925633826715 0.24690457924018125 -0.5762508100160463
Ni 7.352867334912398 0.28950900617113035 4.115671627751388 0.24339116677028402 -0.34945122905585624 -0.18841301076219164
Ni 4.177867891317846 6.509572879205493 2.455914603757323 0.2798139283736923 -0.5187303472020743 0.4084593321589482
Ni 5.234056351003992 0.8774529043291341 2.720570656929599 -0.7471944603488808 1.5735832689407416 0.013663356419705501
P 4.958641622775257 7.799759074549332 0.3848443787068819 -1.0046824715318632 0.7679869716141999 -0.25245096297970715
P 6.756484701539243 5.526484584170365 11.48994141876713 -0.03065449166106334 0.5970014122998363 -0.19610780830328806
P 0.1980147701634387 8.737937599122386 4.017063154670907 0.9782857267058894 0.4587832772244809 -0.10962952480438538
P 5.010114139064168 3.1692179770328153 13.191266176272796 -1.65157099847013 0.10886539294485122 0.2293470299723921
P 0.318425530500579 4.2665293006254945 13.018197193467946 -1.4266148984765818 -1.0912093488805144 1.1659209787617921
P 2.233530354587315 1.531720978029552 2.4702690017373934 -1.1367993788054873 -1.585217253635244 0.02355310472959169
P 6.785107097204183 2.201065903242238 2.2046184260182495 1.410173465091107 -0.35094041200687304 -0.04808245732952364
P 4.424917586463085 2.5389370150751067 9.330806314106745 0.08573703445750394 -0.45936254676671856 -0.8519918538719456
Ni 2.4133073092471014 7.735684983290405 13.20392473867156 -0.66514644470719 0.4863920400806849 2.2434278904545493
Ni 4.61673543332617 6.342066604768153 12.217060566905813 1.3332604566831359 -1.9735276216501432 -0.6203673407192865
Ni 8.15617867528774 5.106652681668174 9.339146700049701 -0.44286712021485664 0.8161984983224201 1.1485981712126283
Ni 3.9646062265079713 8.307599788384795 11.615038016390715 0.8416812159745568 2.0468050901880557 -0.35164823670717504
Ni 2.8120814376746694 3.11947346664789 3.755192132290692 -1.0295303838134784 0.15581450800088004 -1.4089815016655347
Ni 5.510509721079271 6.249894034527939 4.805513644271979 0.41230338849538667 1.0687011404756692 -1.7895137683969118
Ni 4.926728662676133 3.9279504416936537 10.883048281398194 0.029568714796052303 1.7207622127538107 1.4583122295798627
Ni 0.8388365681354555 6.814253409552779 5.01164912303207 0.08089101921911229 -0.19401030234431105 0.7270272413723866
Ni 1.243870122204586 0.5457171326074888 0.8055356884006836 0.17808823179741587 0.9939871966015462 -0.814336762523333
Ni 8.597380863570596 2.114206032004702 10.649280333759648 1.6666088666398589 0.288546937371316 1.3943272420874697
Ni 6.011181048717351 6.6950301936985905 9.669169172300588 -1.199796034242682 -0.8329420363293462 -0.5326065909635344
Ni 6.672465010218363 2.458915635287382 9.780504225033502 -1.6396680763849567 -0.05163495056747236 -0.9542649383112598
Ni 4.312018136895819 6.09067851182142 7.641615283164114 -0.16590583079861107 0.02207523463248456 -0.9844262923859884
Ni 8.119807827617166 7.078711845028589 3.271916676854111 0.1472409073992561 -0.052272327041155135 0.674249949670355
Ni 5.895009417757432 5.552450630333967 0.6063692206852805 -0.612944308782338 -0.5780765503708754 -0.31569315876880466
Ni 5.414338839305901 9.332794440048406 9.701724619701247 0.6633849819313931 0.16289738298959042 -0.6742872306661937
Ni 1.7227943117106006 1.6167976942385085 8.377398358776711 -0.7813687922377446 0.8971954469917773 -1.4140157216553324
Ni 3.3700894718502887 5.174219550818134 4.71874293078587 -0.20437107675334482 0.5139892329726632 0.9451766028567463
Ni 3.6887227307201766 5.56909647444097 9.867381560160492 0.3001055887431928 0.9401639801335034 1.0199905626438435
Ni 6.166462600536074 7.982008548295139 2.1348658132301632 0.1930397109009256 -0.7709421975877819 -0.32527051804459467
Ni 0.3883224501646897 0.19505326217267321 9.816072652941216 0.11853016972812488 -0.019599776508798503 -0.7888581586362543
Ni 1.1114938401344272 3.6566994723718618 6.8168160055423055 -0.3744264109439551 0.18968390705481528 0.2522357616451076
Ni 7.998286731571507 6.138134333535642 1.1117934837113947 0.8207406091671479 0.7122565108211152 0.004535940197140575
Ni 7.78830643967505 3.709532333734122 1.0439821201090616 -0.11219162910460678 0.4971773036216469 0.25463974310090987
P 6.451114807134515 5.505757704843313 2.7323284502933087 1.0287613668579378 1.3468412806913643 0.195663778787334
P 4.78424170776351 8.375424020116201 3.994488779669913 -1.6784009741787802 -2.810716349070985 -1.7422926306264188
P 0.3139676429291287 3.443796276871855 8.998121058289986 0.7402213714651575 0.06337177938842634 0.34017468884993673
P 9.075183687543174 3.6726008032968283 5.026864766507902 0.9568473543264554 -2.0387953325097015 0.180057953929277
P 6.425911657194481 6.2068225682190405 6.757300908583253 -0.8083288657663562 -0.4462118683173734 2.264591669016358
P 0.2405191196410832 7.8296131339969 0.8131398335302935 -0.0398739533768023 -0.8796638658659173 -0.24494128486622332
P 2.1042148489321932 0.8853337142337969 11.951086449655708 -0.4781490833456023 0.1619152215819792 -0.2641667087547386
P 6.854135418155919 0.5605954472712137 11.379480479659051 0.54355897620998 1.4945609274992517 0.3455012432691727
