# total energy = -340860.76800300117 ev
CRYSTAL
PRIMVEC
9.35005213206863 0.00000000000000 0.00000000000000

0.00000000000000 9.35005213206863 0.00000000000000

0.00000000000000 0.00000000000000 13.68474641303635

PRIMCOORD
 96 1
Ni 7.639843504709852 3.145292110768398 9.698557633905223 -0.65015845593879 -0.39695056018840025 0.7179553609781055
Ni 5.940088164650166 5.945726246128655 3.1820593210467765 1.4980087768385364 -1.8366446604464433 1.0710112766660844
Ni 3.938195237698452 6.2678448945787775 2.43699293119839 -2.2141540811910967 1.1645410676951298 0.0960139909034798
Ni 8.495831433854441 4.739709762707591 -0.17607737807373292 -0.508770150665569 -0.018193640189891246 -0.4162387189940509
Ni 5.599942615552404 2.7844548961451028 11.515235376765082 1.0864291538830515 -1.3053588451768616 -0.43089246435148376
Ni 6.804724892082654 2.744109420888586 0.015243390106767141 -0.2148858602417396 1.4861786169728275 -0.7045321455936641
Ni 8.341611672815972 0.5293644255429981 10.452765569792613 1.70854767296549 0.011061142910168046 -1.1832077908666976
Ni 3.482978596136736 8.773443833817653 5.71355977489877 -0.3151213454257347 2.333348881086414 0.5472449097019996
Ni 3.8797293612722634 6.687643538395027 10.10053320821186 -1.317554615912105 -1.2889446654848964 -0.6059408808813114
Ni 4.345315210727254 6.581352144949815 12.703181014293152 0.9550203284200454 0.6312117396329581 -1.193859357043273
Ni 7.191704852665907 5.79778972017069 10.30106938784377 0.9493284202415908 -0.05430426986951938 0.23939387268543288
Ni 6.078917739762279 2.6272992187148496 4.059730956255652 -0.9024155577401362 0.14097307211267335 0.7984146919764379
Ni 2.488217192193252 6.032055278120179 0.34090477333665664 -0.2838865557811691 -0.9440430034729355 1.7904517068301486
Ni 8.787253860921679 4.551745663268016 6.705129071020105 -0.6521384624832962 -0.9358267862107302 -0.3621617346439892
Ni 3.6479228670521993 6.830512336058893 6.747962595167876 0.6386288580326356 -1.420279443176857 1.7884213066636812
Ni 0.02743772819009273 1.5557084358182243 8.498500873758436 1.4139743268944358 0.30071571152336596 1.0870490468552376
Ni 0.8041456296991008 6.016178889479259 2.751359451366895 -0.6364009971433814 0.13540894776133452 -0.2761081973873309
Ni 1.4611233077313344 0.7657056950815818 4.435308528177185 -0.46494338328860574 1.0953087157608685 -0.3602449772372506
Ni 6.2202718289692385 3.3533401223403025 6.812499460489558 1.4136141153415398 0.8871617169048591 -0.21780277677821847
Ni 4.565228438544933 0.9034562741694537 3.1450966946773526 1.1059330282439341 0.7808630562459197 0.6802383060433059
Ni 1.8759103235667045 2.3530715376491727 6.219731395951897 0.9385688677322416 0.7383997448753864 0.9558088857596121
Ni 7.166908514223199 0.5353045137076483 1.1628248522739126 -0.06833092316591458 0.29684388727278554 1.7016900266137078
Ni 8.660626103934653 7.38288537006336 4.802032535667571 0.5358137850469223 -0.7908165679142058 -0.8446397843822485
Ni 0.9901144279985278 4.438797032654174 4.930217076346419 0.17394464194268752 0.10221369195628849 0.8442561757905847
P 7.7308569128551445 6.804126488741653 2.6671023909435854 2.5856764311143796 1.295760145744833 -0.7611115846506052
P 4.270393242423552 8.094097090894644 3.9491170336769312 2.1988264496950904 -2.0222981061856267 -0.8226080013931897
P 5.066063984805734 4.028928144277651 9.760686860784599 1.0440589164469567 0.6237689102016677 -0.15536405072702275
P 7.642396068961307 1.90998191379492 2.797121411864687 1.1489491267941438 -0.27884153715809396 -0.27483601554312664
P 4.090096185790546 7.757233410120182 0.7682124440772418 -0.01169132029499922 0.7634366332393562 0.31436158444157475
P 9.164743518518753 7.565669540582401 10.340646288809188 -0.9799122065657188 0.9644087116134811 -0.24909953000897098
P 0.9017461496215008 4.513784451323297 1.083838416277509 0.3631752635101681 -0.2281496672301813 1.0448359038222972
P 8.805271411517117 4.7020010021723575 8.86381582838181 -0.659358120160187 0.8848847479452245 0.1468030485308891
Ni 5.114478555113554 4.735483539111775 4.819753689608169 -1.0038936570819808 -0.6133212325057824 2.17561067370026
Ni 2.6868871014054143 8.97762092377746 3.0686132676557274 -1.3444995199320653 -2.0399857532733767 -2.067486786907123
Ni 1.5025907892522279 4.344735507490659 8.365280394962982 -1.9241249028472993 -1.2835314648891252 -0.9233754478212549
Ni 8.93663964497113 2.1321111039847422 0.9408041226896469 0.34910233035686977 0.6335308746844379 -1.2276004580494602
Ni 6.077000979060638 1.1276256457499994 8.644093341629075 1.2874290001713184 -0.43089066457927083 0.3129137962514546
Ni 2.2062757180599903 0.304811701822124 7.928202854675344 -0.38059320187629936 -0.5186241606415133 -2.8944911175957957
Ni 3.998615275035095 2.081087869112247 10.048681558714167 -1.6602304739173408 1.0381219821372316 -1.549724717155589
Ni 4.368961492748976 2.341823424848804 7.786306462440603 -2.0575479305268565 0.5913498704410137 -0.36909342876681595
Ni 4.720252304072872 3.96469328564213 2.6409100897069497 0.10980898780504315 0.3272785496135589 0.984735338985975
Ni 7.466465486707163 1.0326665155749843 12.571437843745793 1.616512721314416 -0.70671938305297 0.21152028620361635
Ni 3.6300268671354035 4.730696312383771 8.331205064713885 2.4937396956040665 0.9855326380762899 -0.2034624488961464
Ni 2.454818805723662 4.448885738981354 10.553347821362593 2.487338677173729 -2.7843404301806176 -2.8097665835632064
Ni 0.7236089550474177 7.157754813116332 12.3311330870783 -2.812342057599866 -1.203671200927372 -0.6438497401119428
Ni 8.293384103552214 2.7207623405373638 4.79086576832137 0.2058222073775746 -0.34554058114754044 1.7303154036598842
Ni 9.311473887742514 0.8626741514750502 6.117451174901829 0.2049017524458342 -1.3621722546214798 0.05326837240583729
Ni 5.86816756310367 7.949283482372526 2.347221209985672 -0.4659180884970492 2.728799716800836 -0.7366899612731312
Ni 7.098868184341003 9.620175211281142 4.034399794826924 -0.041362107886554575 -0.4304813449559941 -0.07186670423331494
Ni 7.402698130681798 3.850454347824255 1.9385809184686418 -0.8293489196614491 0.5138185117227537 0.030829840896663036
Ni 0.4064290041709899 2.9678374700051435 3.0765084517360526 1.0685036797528824 0.15498609856231374 -1.0946911367815275
Ni 4.9942649339378775 8.252234523806226 11.237940878576776 1.4280583157913278 2.577833538031193 0.21075949677819186
Ni 1.4656487329976506 2.0114580303555187 11.394125085583125 -0.5389091361427945 -0.3283519851833958 -1.2069835531300566
Ni 8.001550274188038 6.617564897132548 7.476045550194493 0.08683078174231498 -0.4410732615392275 0.6319365336141245
Ni 2.6471493795421 8.064635076402574 12.098657129120491 1.9164709858464672 1.186161988399015 -1.0202530722766106
Ni 7.977268188616502 7.234228890085754 0.47519489810414917 1.3958562771374863 -1.2635143983372499 0.8824247164405061
P 2.8051933119316512 4.745244993611846 6.303098331405468 -0.5246623964157932 -0.06523634340099088 -1.070668548614685
P 7.764395550107782 1.6285359924284244 7.258636266356812 -2.050857405880558 1.2114354182538234 -0.8948904530076847
P 8.672201468562132 3.0134470246520246 12.002179550467687 0.45041382221386295 -0.6844973384299761 -0.09505522653463629
P 2.206032616702709 2.1903619292102583 8.745483437709405 -0.38951235874280016 1.4812174163128102 0.573367060710348
P 2.389761142494265 5.732189753913511 11.97636966636616 0.2039365603190875 2.2988467335444858 0.6014185675309255
P 6.759676340567961 5.985987570915344 12.479872782520513 -0.29741158685079744 0.3667604097582651 0.3698202796305115
P 4.997472001843552 3.0699493901155552 0.884886135488812 0.734849822740599 -0.5415823120995834 -1.8220251107610557
P 6.3114441880019845 0.729937070378498 10.80447713346565 -1.08950547881553 -0.8700312278721597 -0.4871363744458771
Ni 9.005156827515686 8.74917109829832 2.502638712711364 -0.6918900313496212 -0.03153123783906183 0.9247635864180331
Ni 4.062906233983835 9.109092007805708 9.079268146293376 0.5994190206023935 -0.8788786509604606 0.5811623883850507
Ni 5.829149795259997 6.290911473363906 8.476496460903583 -1.598883695378743 -0.5315092441342976 -0.8182474104316488
Ni 8.14085670196251 4.953900758576954 3.746308791359662 0.516508142739775 0.26658637393982476 1.7612637724122828
Ni 7.4270176164621455 8.578635496165385 6.275714833518154 -0.16711939149073798 1.3734324009163312 1.5266002153229838
Ni 7.0010011879308145 8.149056697744658 9.18418882208561 0.15881652805199745 0.5757975245287115 0.515896220187389
Ni 1.4146067980207497 0.9305686205428775 1.6233943987219217 0.2980134821008545 0.29388788996825516 1.0987879325587206
Ni 2.952194832669303 3.3293198382304543 1.0058328007572142 -1.4927583270728744 -0.29792837858621596 -0.38075235316198297
Ni 1.6455717875425322 3.7965232467165864 12.71804198726481 -0.39420770733594046 0.5194852230902279 1.7645326729715416
Ni 2.491265309211473 4.40819431179332 3.20520070024953 0.07365104982724735 -0.06466324450634024 -0.28853639584835467
Ni 1.4354013141205164 0.013640791159150208 10.089475836476437 0.3284761694660859 -0.6332082012376966 1.1519943413783709
Ni 0.30839464182636445 8.243548325309517 8.269240398753285 -0.7605400284178515 -0.03935304787632578 0.1581794086886308
Ni 2.254624838002389 6.590954648562431 4.626908862918558 0.803049619645288 0.06545077340464213 -0.42280814468145245
Ni 5.719754184483345 7.054979039299498 5.586716031705852 -1.80339078348932 1.8993142715615223 -0.1292938360025322
Ni 4.602965249236776 0.9581933497770329 0.6257456986581098 -0.11501547170664708 -0.6370463440368641 -0.3678186758194504
Ni 9.632517280189276 4.758307016539622 11.00475338164631 -2.10309013793303 0.7674408693027428 -0.4386296850947413
Ni 7.454001867120387 8.134096614219645 11.911080121842126 1.703067366577209 -1.7572736774162832 -2.624935633725318
Ni 6.1841151770997245 8.317535288392905 13.620208889235451 -4.352844484826239 0.21516893869979717 0.09331638946665864
Ni 5.7537229241373264 5.671021712400618 0.7405989349057301 1.261197577278615 0.7046465596843413 1.7227530179315944
Ni 5.914338120882739 1.1194537001244615 6.0522158606805725 0.6221722551385092 -1.610058223938324 0.3053758360031967
Ni 2.2669295067017114 0.6921946496553327 13.273355612687162 0.538706276103369 0.4381375759496713 -1.189500565853945
Ni 0.8967448066980451 7.590755730643405 0.9694797977914343 0.8162604619086072 1.062150483841345 0.1454928143598978
Ni 1.3200497200904693 6.426290879213063 6.984859257807326 -1.299367403480117 -1.239783116158581 -0.7982259730043995
Ni 4.8984736491167835 4.4505406982213085 12.810605634065382 -0.5879724693283487 -1.4021562512135852 -0.44659290580587596
P 0.2288733828439417 9.179525951051907 13.26899007331352 -0.6852043917993296 0.5929853491619078 0.41801997926418977
P 2.350350672458061 7.304868534480422 8.579173124167065 1.2433237823219876 1.0988439826076366 1.1910509410602004
P 7.189012037631405 5.703709494902769 5.630329350207364 1.2504287687978852 -2.316334091695972 0.1105594928178225
P 1.1965635806436965 8.187840714283253 5.700709998156004 -0.40964923870199127 1.501118011891479 -0.17387650770891344
P 3.9535947736770116 0.9952102064492351 11.720054815311245 -0.8927808628638496 -2.1380082899664536 3.080466722561088
P 4.051443069982795 1.8959942356990334 5.703966621338356 -1.3855034731482525 0.5075355069275195 -1.1947325036768457
P 2.755189232749298 2.2250506228838804 2.893557850287797 -0.5972816625444165 -0.9539270953558667 0.4461025964330188
P 5.397906687547113 8.488342042039731 7.451481093046422 0.6167770522648668 -0.6482684380049287 -0.26747906095742324
