# total energy = -381171.41667371336 ev
CRYSTAL
PRIMVEC
9.25934483976960 0.00000000000000 0.00000000000000
0.00000000000000 9.25934483976960 0.00000000000000
0.00000000000000 0.00000000000000 13.55198712192387
PRIMCOORD
 96 1
Ni 6.589866491391244 2.4961804893384825 4.543913313407783 0.5750956133656805 -1.4500240214291416 -0.38414209556982226
Ni 2.624811308404418 3.687061871669768 12.728094547267832 -0.7835434312915602 -0.0003126461444123648 -1.3897843599117936
Ni 8.6085888620186 4.292715620237493 12.172001442167602 0.3681202662202692 0.15454181193604352 0.1513749841722877
Ni 4.50169903416768 8.475717262997858 11.861932834253485 -0.19237199540993968 -0.2881425028440457 -0.0728987450422551
Ni 6.717543597934592 6.85053556843877 11.148176234217663 0.11646223145550265 -2.057409348066463 -0.8007068304447242
Ni 3.026694654209111 8.667644963660015 3.074227501147995 -0.6045162326196427 0.08358862065593346 -0.18127254306266846
Ni 8.286206251349245 4.116491768490956 3.7753265767335478 0.43253668482312607 2.0611274203479986 0.11037488761084216
Ni 4.683274787254565 7.073028366548138 2.0335299149586437 -0.06583001112093179 -0.3578173416323644 0.013336569207906063
Ni 5.546986477613796 0.7465606070748939 13.379171864010893 -1.3894699139951683 0.977407180755678 0.5594365666721849
Ni 2.1911128535937823 1.69509900774415 3.2932137853514996 0.1184959740560798 0.38843583784916974 0.20487681274516975
Ni 0.6417614898598011 2.2261409552729092 13.152948475849575 0.4751151816152849 0.14432244820088047 0.3120596757812755
Ni 7.741136396328052 5.681885873163149 6.602988834954464 0.4471199819539397 -0.4454922165425296 -0.1007093394966201
Ni 7.195631352097522 0.2891989704902227 4.146854086285306 0.2824068859118491 -1.47700620644494 -0.17149900861567238
Ni 2.1440105661917945 7.199270274635165 6.91957694759823 -0.8510842544560117 0.644945801389599 -0.14686346945517934
Ni 5.989472050715072 8.645357720535072 9.771958878843932 -1.477721744454726 0.954319188587963 -0.7683276427830703
Ni 8.49874525371316 7.6946915224125085 7.958621740726592 -0.672596730337648 -1.248836741720417 -0.13543800122705707
Ni 3.2168167826197682 5.6368576790141685 8.310701848227948 0.5466730963589295 -0.35506754680136915 0.8273660849034654
Ni 5.286909998638559 2.613857503411976 9.329228859037839 0.5285054243109671 -0.5078324693426479 -0.424298870294366
Ni 0.6940064174078601 7.583264566132674 0.7900934170258366 -0.9714795024173334 -0.974220298387264 0.04843546979356819
Ni 4.139121607376441 6.9526291050800735 10.131343683520722 -0.25857070272419985 -0.004083168930438129 0.5871363465802986
Ni 5.589523907990193 4.20231663617899 5.466857958895629 -0.7443387360676408 1.3031322698391878 2.2146857853248503
Ni 2.58888505027198 0.5651042995369554 12.413430526490025 0.46161071937094694 0.3644109356894821 -0.06016509952567058
Ni 8.136065974128245 6.296465630194707 13.19035252542478 0.1826642812038725 1.1766525062466833 -0.020992285980950945
Ni 4.831998384709002 6.599051761511702 6.340663261107998 0.7182615793646147 -0.08072518306520936 -0.7677923391048905
P 3.4804766280633697 8.548393860957008 5.856491191424751 0.2085727735395182 -0.6357898459219437 -0.01260817568231377
Ni 5.039907714633169 0.661595932526166 5.405847209550152 -0.30618907593311134 1.229655797916592 1.1105682130231003
P 2.1992888551223757 1.378614599763033 8.157917102109364 0.21235666606198267 1.330849276138482 1.906012766627621
Ni 4.620950136870688 1.4662820770820857 3.313962125357471 0.6080293879792237 -0.5716621622040994 -0.4882532616591398
P 0.31132232321079856 5.652302266273165 7.867552380098813 0.915257960920443 0.012568837803946095 -0.7053700681139271
P 6.507634249516456 1.9637588994226782 11.191203483938185 -1.5228877994684031 -2.361639757611307 0.226661512720429
P 7.879498786862337 3.490671166775693 6.037992869752599 0.3157666923192175 -0.14538097137238187 0.20990846163180624
Ni 1.1456124452154375 0.7695543382141422 10.489237733671914 1.0261552966936585 0.8903971931230213 -1.9489483896488822
Ni 1.9698145109738676 3.719321429229926 1.534667894624079 -1.5365452423508377 0.48378545569577325 -1.2218188183706764
Ni 0.40685468807049346 2.802674064194625 7.975005225556369 0.2247126165241743 -0.9009790824039258 0.7348109990828635
Ni 6.558042123040422 4.002999978302994 10.855616121536187 1.941503760445379 0.9864520645667657 -0.8236729523225943
Ni 6.0963619280039545 4.320660323083807 3.115059360197589 0.9828612618917136 -0.06616245475968606 -1.5069788415476306
Ni 2.1345475157249516 5.245354058819389 10.461741183117768 -0.17545773615310428 -1.2217468274821603 0.8640690967514538
Ni 3.402114792348209 2.050426367494745 0.9883517317821057 1.0601393669485872 -1.162083864403889 -0.49634735152118387
Ni 7.830248331448307 1.060583881187041 8.545802170325237 -1.0225482960686907 0.8233284244989821 0.24409539192616025
Ni 0.3911045424304736 0.18692487662376794 2.8107630278813507 -1.2527134510670037 -1.0617429639902811 0.7200595518053019
Ni 7.550421669845107 1.9944258496635634 13.171244015396969 -0.6661016095316077 1.6076182470382634 -0.3511479000319888
Ni 6.344345702566572 8.982990472220955 7.1427641965735615 -0.5015939446321038 -0.1853395140431905 1.0549516521000606
Ni 0.6017842683425842 0.20711302626452946 7.7832182669363785 -0.0009965595853144128 -0.3631580371189874 -0.01935089372278603
Ni 4.086056301872059 4.4069481580158145 0.7250391117714853 0.17507078512733076 2.6701345988594594 0.27189390219566717
Ni 3.9942869347713903 3.655487505630692 3.0287196729342565 -1.3252481279016208 -0.6168045630686926 0.7262980765158459
Ni 8.193881323555809 8.668589416837724 10.097815595712074 1.8391653699857682 -0.156474253072066 -0.0703698079728143
Ni 0.229077118253178 5.743497553991304 2.1919795282745027 0.16061681448552984 -0.6371185920356962 0.4213780971031453
Ni 9.02739829026301 2.087658193255192 4.089691520671748 1.2756566901267385 -0.8896870544298743 0.004260317938250727
Ni 7.009425926570891 6.275835809803194 4.372440431518915 -1.0749748892995228 -0.3552696355098462 1.2469618932952076
Ni 1.480393318678435 0.28142852826735104 0.8465198647214751 1.1314309154047224 2.1201632913652326 0.1015482904581477
Ni 4.447281864310892 4.598635115711106 10.484250650519819 -1.0000195188385552 0.9786256265438115 -0.49664354260536403
Ni 0.9431105727008963 3.9893517039506197 6.082998841473869 -1.124407690009354 0.37886619188286363 -0.13752239455991153
Ni 2.0115648970355076 7.286113670259941 11.78121634713547 -0.9506026589683241 0.6866071856841272 -0.5602207531363771
Ni 0.4009518557098158 6.1614551225067995 4.821038098175145 -0.2438015148348253 -0.7403357855558346 0.14971507997136152
Ni 6.081482160782607 4.967110745190584 12.914176823507567 -0.20422426676283537 -0.568526444788595 0.39598999604734386
Ni 8.3255121703627 1.1681867280316447 6.018275094831716 0.0191734876046573 0.5408562325668362 1.704163684965181
P 5.130195586553118 4.538995675342283 7.901336951760625 1.393392388978026 0.2773806363418513 0.29645076559942496
Ni 4.167621870915524 0.9108556448131777 7.811527787970944 1.0503550338683136 0.01074746832449117 -0.329458073763381
P 0.31061305739302925 2.483495186853575 2.006940780202688 -0.772441664951444 -0.4596052589051439 -0.421049767229449
Ni 8.110000918292469 9.322308424674903 0.5924545524420057 -0.030127929733631983 -1.2134732746194583 1.8951130889959813
P 3.7389327216846953 9.042648431279536 0.913266778219798 0.655816939776148 0.436119517078378 -0.03633097322055033
P 1.2115297214125578 3.2351780635158054 11.123010260769687 -0.06373584759606442 0.0415197165103414 -0.18731386416074192
P 3.110871358508594 2.9792590303914612 5.110549108587807 0.19359609762502789 0.8378114486065055 -0.8209285568082377
Ni 3.8379058591016104 0.8109102761839159 10.308224022819214 0.9135258087206847 -3.1104175032869077 -0.180441819631257
Ni 7.384633099777762 3.539384580186712 8.307395336171481 0.14363802053934618 1.2791551901983003 0.2643628839259447
Ni 6.702024935916559 6.035953962010134 1.5361855012498282 0.3493429856127661 -0.6188424194343277 0.422877050246175
Ni 6.325873309531981 6.328188145751854 8.359800450385956 -0.7833403141418187 0.19117463266772883 0.9763136905811831
Ni 0.750367123754854 8.569255164970508 5.282456253751523 -0.10690209857089332 0.3786378779221415 -0.340137150743782
Ni 1.1329549207651688 5.528930755098782 13.42748527372312 0.5590375314615533 -0.943861997810381 0.003956156434270606
Ni 5.990509097341576 2.353299538503005 6.9859812653360125 -0.1841820033999796 -1.0044595568877799 -0.3882476330977636
Ni 1.7957110492047352 1.4877174604781152 6.008219446292585 0.031946728109925625 0.1250350607261782 -0.5102480207626762
Ni 7.222001966314323 1.835581788255838 2.325656690299763 0.5143461020914497 1.4222237113874217 -1.131454055333174
Ni 4.567968165470221 2.641505907222146 11.808985122429073 0.3789204421595668 -0.6772074896367821 0.8706066407596554
Ni 8.469828319654498 2.3554940032394454 10.805934180650771 1.165091026661329 -0.7629586651616731 -1.1417420675227434
Ni 4.358095854431602 7.917749140559528 8.107069409703621 -0.7152503033421166 0.3927894868321752 -0.018763396650432203
Ni 7.909378692788465 7.450504079250484 2.8300206133617234 1.120374914700877 2.155317213558546 -1.0613351870289012
Ni 2.9857961278763843 2.647061514149843 9.871918136490514 -2.509786978874916 2.8747815549820097 -0.719722223070541
Ni 3.5156065825361713 3.311502843357477 7.376847842603082 -0.8434475638463604 -1.7113054382162851 -0.4245950613785462
Ni 2.790322098125379 5.664626454307772 2.5224723991238065 -0.5671935849097846 1.8368444351620752 -0.242893144087943
Ni 8.109250911357229 4.074556195531726 1.0594199815356886 0.032835044252149906 -0.6851264873735426 0.0787840001784385
Ni 5.205344429595094 8.185668284647697 3.943953136006459 0.03641119163918245 -1.133817670469344 1.2367435580013089
Ni 3.1581310547735333 7.073333924929162 0.1997138837713255 -0.0844424840157965 -0.3900651459224766 0.7257141789879179
Ni 1.6615616605906214 4.008648178679485 3.7441975851831755 -0.8938190743203769 0.5368080306393916 1.299893451186916
Ni 0.04303373126193791 -0.08064519016244392 12.202385056455173 0.924961304251136 -0.8095010316975865 0.9619617927348852
Ni 5.983546069992196 9.19344612198698 2.0230816701966226 -0.20667838473028277 -1.1861118518873701 -0.6981267562879525
Ni 5.767247773607208 7.3593273102221035 13.406222114141848 -0.027248551303307913 -0.4364115943975 0.8479981593315201
Ni 1.477958110975128 7.159519907067495 9.32758902905968 -0.2341259394182742 0.6651739555110157 -1.0044736979551667
Ni 2.9454809402710658 5.180918277802987 6.088514633218583 -0.0012184457881333855 -0.378617051986535 -2.1288273947981335
P 7.878128403820171 8.24711329726802 5.962819952413935 0.7925695460495704 -1.2746308199653855 -1.7521954915624274
Ni 4.583533124212651 5.691858187598365 4.1494420731791255 -0.8184626117662486 1.7354072163604952 -0.7822421959816335
P 9.195010951271616 6.9024341964883345 10.78445435239932 -0.35068767256611866 -0.6155637486830561 1.461175667170587
Ni 9.001444346565787 4.585301659084634 9.683044167769612 0.4269085400030712 0.6857237546379092 0.6026418984150653
P 1.2354003125118944 7.394577636178338 3.3115093248988927 -0.17941620658022003 0.09626698745455034 -0.6904630690951077
P 5.540579010957186 3.0041481494275417 0.8139241929421912 2.135021696534304 -1.5581535646492326 0.19541900976637958
P 4.1582977106218735 6.009546310413816 12.144206740708334 0.30413193629376656 -0.028656744504744196 0.06528468014042305
Ni 7.037500260245519 8.81239630216115 12.085581198603817 -0.17941749213180067 1.9139479623142974 -0.05259397204663201
