# total energy = -381170.75772896426 ev
CRYSTAL
PRIMVEC
9.22849757006649 0.00000000000000 0.00000000000000
0.00000000000000 9.22849757006649 0.00000000000000
0.00000000000000 0.00000000000000 13.50683902462038
PRIMCOORD
 96 1
Ni 5.996114771255864 2.3886950779883867 12.506738583757539 0.6798071320431582 -1.5181597978651142 -1.0879553607195909
Ni 4.43999628545782 8.568152410119525 9.517013608569746 -0.07297587813709368 -0.8178332057123657 0.6903671669471917
Ni 5.007115145550853 5.762587640690161 4.417776831900695 0.6115769961211661 0.09408823463567666 -2.0454064100683165
Ni 3.0544388914248564 6.376042786994233 3.132681785073869 0.52405227363562 -1.223591079779751 -0.030121244865412643
Ni 7.322932778367243 0.6643069363675468 -0.04940568449699863 0.25583093519553357 1.5077206048096614 0.669819167592511
Ni 6.581967481380446 0.216917680670736 8.92094310595505 -0.3950057777572036 0.08895811249796293 -0.21081580393742402
Ni 3.094970452675382 3.1184292934538065 6.739642822012987 -0.35637263876603786 0.7788876776871038 -0.5376500669247128
Ni 0.8989885519770665 9.034625275905126 5.1110686333810955 0.3219414536713616 -0.27796839052452127 -0.8563390750970478
Ni 5.092146521999474 4.959597611653092 9.35069024288077 -0.0022944524611315325 0.1328319310627777 0.3419551777891272
Ni 1.121576221544051 6.782881101595658 4.429000530624031 -0.6704902255176065 -0.5601536473438675 1.239857421039942
Ni 8.96244919654712 0.7493493870132322 8.218330521946637 1.3541275299401323 2.0515644592499123 0.8450935840902155
Ni 1.2826135038349629 4.5100590388763075 3.4251448695590248 -0.07709092874673175 -0.5684786222697951 -0.8466089922934775
Ni 2.741177542005658 7.079208158006041 0.609770207231365 1.4139118490876166 -2.216667848751886 -0.44228656512103826
Ni 1.7114340996064132 2.458693231924007 12.128439397837182 1.6700217489761497 -1.8639222652154737 1.8893206506839204
Ni 7.619481318718886 5.387513814664398 4.442372623577586 0.1654548593041215 -0.7101461493463317 0.7652150652960177
Ni 0.4961258741212541 3.8268733650656364 0.820407895317633 0.07958387037191454 0.6623429138201238 0.23539195061489138
Ni 2.341168315593075 8.899400101268522 12.943792845045317 -0.9280234881162275 1.4411100067689633 0.22370602963653086
Ni 9.249077102029837 6.3007013329757235 6.711750611010348 -3.5173822531782 1.6536433076181265 -1.9861915902710565
Ni 6.0786452248677625 7.3055186034857 5.852878337893946 -0.21235460917945365 1.1006219004436657 -1.508705337320434
Ni 6.376310413423256 4.7019933309729485 11.52402171918626 -0.6346729587086811 -0.5666323130896758 -1.8322287907669348
Ni 5.445358037323393 4.285068268546656 -0.12604005102261248 -1.4424878609530964 0.687876539314854 1.9036110991646638
Ni 2.7530915323459197 3.771594664726235 9.173331439818527 0.9302274377460817 2.9120975178236495 1.1420570276600008
Ni 2.703580642976823 4.948615699565633 5.085473395419271 0.7599869841278589 -0.12726266450511634 1.4863693928273949
Ni 8.940319259416253 1.969186036247397 5.0188307231937355 -1.7935827962599626 -1.4137580971185715 -0.18157490479443567
P 2.7427740720822387 0.33762642865727627 3.770960666944379 -1.92025564969988 -0.9046043378613389 0.053540652230617464
Ni 1.5147286742751358 7.807622698321454 2.317773151447763 -0.49269664214247405 1.0104520270257888 1.7264451220712007
P 0.8002897706532096 0.9492986292342089 10.210711463942458 0.24288157412371716 0.7758162378506315 0.3126844538494679
Ni 0.7021973016185511 3.613362845691279 10.70552043146297 -0.8182103865461264 2.2339400055687717 -3.0109592625885693
P 3.9145164063216136 8.677196337199721 11.710618248298543 1.6908235162128493 -0.4179575014573705 -0.9235924489280675
P 7.845108855379659 6.823348063363317 8.55242243604131 0.2621473643318647 -1.2134272518728715 0.7203333742919789
P 8.203479100835418 4.067921721136618 2.6932235001736657 -0.9873995160816994 1.1485130676979898 0.2120617605293832
Ni 5.219093734331497 8.890799141549603 0.01767072711350362 -0.4396059329650816 0.3989411082558678 -0.48323446828830974
Ni 3.2810907913139564 1.1817644825813765 10.36863320545965 -0.4650336290095669 -0.10863682187381292 2.4846181929187723
Ni 1.1402916145804962 7.865328493517161 7.828240084703467 0.5951365911769556 1.5933326836535269 0.5452260794997578
Ni 3.511535603697129 0.8309671422171896 5.969712039758196 0.46602324661634575 -0.37431173974296184 -0.54787380153525
Ni 5.174049437777804 2.590789945890317 1.4703276040008515 -0.04952330354110825 -1.015860856746186 -0.246412212984795
Ni 0.32647655791436053 3.225156867648328 8.259567140410175 -0.9315147890989376 0.21832265383743044 -0.2712475268609199
Ni 2.1910206604140985 2.398348086428289 4.3619259647130395 0.47827969538619564 -0.06084618475309521 0.14769367866595856
Ni 5.6677371428456915 7.237615318494494 8.091460828994057 -0.7374504935882397 -0.5541827744724133 -0.2632403402857273
Ni 1.9714377896502042 8.259662193934963 10.059879977094841 0.19592320309630776 0.5030322197405271 0.1769338064779985
Ni 7.634939052119303 7.9334624909471785 12.293776237137799 -1.0243059021897456 -1.619643553633914 -0.19353850491421506
Ni 3.1859726670404647 6.45893315201068 8.800934800932744 -0.3577103837408549 -0.14396172242735208 -0.686858639573301
Ni 3.422305260862124 9.230989246826962 1.603734764619615 -0.7851513992086284 0.8027675696284949 0.3068092260156135
Ni 4.074612381862171 3.1492432467815634 11.295120834443619 0.20127855387095014 1.4356785513407468 -0.12189265844245459
Ni 6.850747472596653 5.503746741337983 6.907464895704488 0.8977934855870925 -0.517120065292161 1.2667187642071605
Ni 6.3056201221712 6.842598709257807 10.280622870001084 1.3260893928559936 0.9046737576466937 0.9557147833839088
Ni 2.196419331482304 1.8695182626805291 8.544372417626276 -2.2067187079589736 -3.3604254040427612 -0.4248742831818618
Ni 7.0791527870207265 7.801033551068978 1.152294198497262 0.8108752863372939 -0.35041230741754487 0.1564158890303048
Ni 1.1750461363631652 6.912504578217901 11.80835357447792 -0.16722712071319587 -0.784082848734798 1.049408096574012
Ni 0.1764525646025875 0.0599335545048767 12.270666233566859 0.24494514152096525 1.744892273032795 -1.6295034771471293
Ni 0.1145505715697652 8.99438902657628 1.0866592782044582 -0.6066970423210455 -0.1291701659404743 -0.7616420032327786
Ni 7.735954186328835 4.637762988007633 9.235058091397853 -0.20724042788133987 0.060973197249262735 0.1148511782146409
Ni 1.32259135523234 1.5012735248436087 6.511026174994963 -0.7041930170866905 0.6358728925540533 0.557289181311879
Ni 7.237116979626659 3.564608693121486 5.900205764742124 1.0193045923204123 -1.514367677812534 -0.22927889573861804
Ni 0.46045127113260204 3.8778054430578166 5.726305802562554 0.5263153586381839 0.9992787840177886 0.058750221456014946
Ni 2.7415005394199956 7.095293429240027 6.233257627162632 1.139538375003205 0.27338977001490333 0.23159880212104628
P 2.392312649028962 5.160169777458862 10.969052176121076 -1.860065353363229 -1.0012857871454883 -0.7192843642021741
Ni 4.550535229141519 1.2259597573602403 3.3391611121629854 1.098452917816805 1.0108474626919945 0.6022284650267306
P 6.318779959681047 0.40380490745592146 2.2520902429676863 -0.2743678176574565 -0.018158416076581627 -0.3692188986010867
Ni 0.2139156504169117 2.46542080663977 2.8869112068052796 1.0785384382810652 -1.0418950760264185 -1.2831370576641838
P 3.1805463104796017 8.910686553775216 7.819622513688954 -1.0314803084509978 -1.182022769419661 -0.09248438048366653
P 0.5677288637812515 6.533850095141775 0.7304568068237792 -0.21728829903564512 0.06764700972501252 -1.2381108706624804
P 4.133979306617325 5.237975240323887 1.316623285865146 -0.9371956415337989 0.7636621189866009 0.5586683210475927
Ni 1.468798441956404 5.052786979938115 7.390037798320159 3.8988627427554596 -1.5648859982770598 0.4358608641003525
Ni 8.996511581013351 6.113316690172459 2.6997738877364217 -0.9623384593480137 0.851310768644521 -1.574183878639218
Ni 5.935169773419235 4.778174578268735 2.439510876911406 1.56142323653944 0.8471928898214054 -0.49786841615140065
Ni 7.403396048527384 3.278082301111845 0.8081829046098525 -0.27196563597386714 -1.2456231198791259 0.6767320926622604
Ni 2.790513089921258 3.1126522539859494 1.226826313280419 -0.5248521438290961 -1.3311369825822301 2.484410704893657
Ni 7.836341782704796 5.448920237378653 0.26723237217665463 0.17536209111550444 1.4586379883503977 -0.15414560493888937
Ni 4.121594662901887 6.229549616846043 11.04732460096226 0.46377507401211737 1.4971405153009698 1.4031556390123772
Ni 7.63129379558607 1.8136489384977679 10.393607365536193 1.048910331001987 0.4637827873216012 0.4004554880178652
Ni 4.882142831695063 7.4430785880030825 2.1199796862550477 0.25397537004403353 -0.7619453934058102 -1.1251651370006688
Ni 7.142432594738135 2.473228115569175 8.102577477145783 0.271633449445429 -0.6175365561387106 -0.5666492823705402
Ni 6.794269067575428 7.312975229508109 3.4680158549391074 0.414669317624402 1.020925672863603 0.5356736599246323
Ni 4.484689899104518 1.5602989951893205 8.380318339485456 0.8364595625643014 0.46007525656302695 0.18542076090308712
Ni 6.569509009684587 2.5394887279960376 3.433937782027035 2.0663156494171573 -0.1611274355733612 -0.6154655325422949
Ni 3.988095217307598 3.881893667473569 3.2893207654312646 -1.3692520442863967 -0.3120594186709593 -1.068438630842902
Ni 5.267155749584853 3.72765778787884 7.469281983953615 -0.46238847807723593 -0.12461725646246924 -0.8138785919399918
Ni 5.405786239818325 6.562559951027564 13.131443268578094 0.23050016974022886 0.3553560245760654 0.06384846191452875
Ni 4.352362472699396 8.210741928409226 4.293459741371133 -0.039041430173177925 -0.3840017133372161 0.4725872729871087
Ni 5.183803959690784 3.099603158446731 5.086432236314975 -1.5644512247324862 -0.6018348291327377 1.3849005494569309
Ni 8.281552190129466 5.693613849982866 11.407903225882327 1.8325393800288179 0.6380950970163526 -0.12652090124308532
Ni 0.6517607939449397 5.954678817245194 9.316125828147683 -0.19727688891072478 0.09088566853797896 1.3057807632056284
Ni 3.745145790740805 1.7124861483273968 13.248372023967136 0.5157602088301569 -0.7954535524655849 -0.9514475234671226
Ni 2.7084902036747462 4.6406699647366665 13.22303333823727 0.04106283147858089 1.560721582486725 -2.3154869132043285
Ni 6.610566595295606 0.23602805340242772 4.87740030680284 -0.6186045923919088 1.414834360901886 0.22117529279487716
Ni 7.729115869642441 8.478460642406898 7.228347138402531 -0.34224262712255893 -0.70407217523811 -1.2470081731521103
Ni 8.687153886058855 2.843733835306455 12.34249532141689 -1.8042706149911119 -0.6818043649788451 1.0822948199997038
P 0.9570690241734037 1.678432992358717 0.6906533740301442 0.46670818849851237 0.6227921481106952 -0.6334707108704639
Ni 8.592746356096907 8.39730523493032 9.994183225868436 -0.011118992731296979 -0.9515102583842581 0.46848250679011577
P 5.804401963100482 2.9520394825824514 9.817810949194556 0.03942529587515791 0.08119929448815048 0.5602235813498545
Ni 8.303073046421867 0.500517716106483 3.0866232766391573 -0.3006725169902564 -1.1301250521091053 0.5007709345101763
P 8.193180097566842 7.994628972725067 5.241274428198901 0.7665062733036154 -1.2223716055503526 -1.977418472064117
P 5.576854898948791 1.2312015439700534 6.606640792436777 1.7376479327655556 0.7859240157085948 -1.0070275747252722
P 4.666620499854263 5.5839977560544165 6.36089697681109 -1.2030240542616766 -0.19797648608091065 2.803826306819371
Ni 6.018946074200719 0.33311923045264125 11.170385692974929 -0.6668405445801612 -0.8776206101836433 1.0800893277079526
