# total energy = -381176.00484773313 ev
CRYSTAL
PRIMVEC
9.21974376942364 0.00000000000000 0.00000000000000

0.00000000000000 9.21974376942364 0.00000000000000

0.00000000000000 0.00000000000000 13.49402695254460

PRIMCOORD
 96 1
Ni 4.756216946527623 4.766764333552777 0.35654040437462 0.8968252081365523 -0.2473097850983999 0.5877158732328523
Ni 8.76488783764741 7.979061405553874 9.052224844285307 -1.5433972322756646 1.2459401368989123 0.5954101565533165
Ni 5.70835833888931 1.7818353659462076 5.858553498917268 -0.4272193863752707 -0.36133666763953254 0.9090947695325247
Ni 1.4345183933722563 4.322262040496173 9.773939943199807 0.1807747774906435 0.08557479784802682 1.579844419359105
Ni 8.060591600889051 1.5757833094556648 5.8582022266745595 0.7261237557215108 2.458920273932036 1.3697253843783894
Ni 2.1695809155352843 3.386485693562501 0.6838274833190711 -0.1483271984848994 1.0534735248926375 0.6009467701008295
Ni 1.2847620931540857 2.153059134460916 9.777569756374461 -0.26481231275853745 -1.6871715212825587 0.6165263697066414
Ni 4.53031478141369 1.5247889059275788 3.8321413765813843 -0.9141225617644193 0.4252599486560547 -0.5192065155075446
Ni 2.330898774607951 8.47991477334627 0.762209136111337 -1.7495845363021418 -1.0234677225591664 -0.5495997830874213
Ni 3.993817883691882 7.533369765533769 9.70196232452264 -1.5051821546585238 0.5586662641650637 -0.33879991998959713
Ni 6.75513118267249 1.0418679400267266 3.8177299948864376 1.0956725268581904 -0.2726120113086144 -0.18557142754833847
Ni 0.6693460315704606 5.808715251274632 1.2162695376722927 0.09530025266590685 -0.14691926239377923 -1.8190058643187574
Ni 4.309335959544017 6.8441754692886985 4.252210426320365 -2.208392496116971 -0.7737562699978093 -0.21384944855742527
Ni 6.864790816656047 2.3943767113808443 8.09759043317222 0.7636338368518267 -0.8505540929841545 1.0768201700383777
Ni 1.1566906305960236 2.779559172164857 5.481314769480173 0.7039770444211425 -0.6256915811456772 1.5595846406688043
Ni 7.984611691383544 6.267222335320056 12.774013262141622 0.7452116255908972 -0.8440270904989141 1.4014430271966445
Ni 9.088823539683082 2.8879833604653973 3.6581767947968253 -0.4651483002105602 -0.4842132872618113 -0.7861003933854591
Ni 6.445974730113499 8.022080730605772 0.1561870715905876 -0.2726544345107756 -0.18577814424250585 0.044341245119536535
Ni 7.748604686951806 6.559644952694908 2.225516179821045 0.65870840239133 1.9476085877915361 -1.0328270522868792
Ni 5.150812765836708 9.121433773868372 2.213317536662844 0.6039464761591018 0.7935972159831365 -0.4217447364139446
Ni 8.397296648230526 3.412900259844903 10.330096100846212 -0.9163920745248861 -2.3236550508374174 0.38015508589761626
Ni 1.9534516789586451 0.8500281187628234 3.9411196714905015 0.2313470911215564 -0.06179389337834519 0.6923857400391171
Ni 0.641087516507437 9.220389285180422 11.442705291892699 -0.08500581271843426 -1.1063248643657142 -0.2954094688191042
Ni 2.677339871511107 4.651028888337073 4.469950352156877 -1.3817522336359365 -0.2445563907229788 -0.023465173001475718
P 8.153065632237217 8.850410182092633 2.8135717293978098 0.023958567698126477 -0.46619782452099706 -1.0817559167770983
Ni 7.597041316928627 5.033076636194029 3.809363999268758 -1.311797915933986 -1.5625023285362316 0.2072154881806754
P 7.118813200674457 4.923426221954375 0.856848885302342 -0.8956196178642253 0.2935580174326622 0.390691723762882
Ni 2.824182732655896 7.856134560093746 7.286518498323196 1.6772210949380664 0.6719123026761138 0.03082701268318562
P 7.350616001886378 9.439081610562125 7.91175082124046 0.06386517408507711 -0.2493980350859963 0.09233937026537001
P 5.185746375485581 8.48502251146859 11.539241542404573 0.11795989904695169 -0.9633722999291666 2.034421628922038
P 2.0402463480624964 3.095178665199926 2.921834572180046 -0.7516743504971055 -0.4829056241939812 0.16849673145423885
Ni 6.915259694781655 0.8225348424437577 12.515616109641186 -0.14550926942013007 -0.0958448123154672 -0.21650128435797555
Ni 2.956458398433775 5.683123899826505 2.2410201011685102 -0.1348031958565356 0.12415085834901199 -0.17924162867556873
Ni 0.5362959073047205 1.4098924574070568 1.481266182858571 0.970847011039657 -0.3828015223815278 0.3068470212320844
Ni 1.0389913799289572 5.358164806217589 6.405979481061819 1.8704063302779206 0.7972708081799816 0.14563088259965887
Ni 4.123115572189057 0.16967740086961405 13.263090251046577 2.3630289246493494 1.072676065963017 0.20141739344165954
Ni 7.4600451422723575 3.201528411122267 12.97634238604409 -0.5313860882928719 0.06009362285778683 -0.07399712031275643
Ni 8.809529837626256 8.333385383494187 0.5991229301580542 0.21933901091708677 0.27549858882779005 -0.9080645284957974
Ni 1.809900266387266 7.4842930687375295 4.769976492328619 0.6524881325132311 -0.23824921755802836 0.047131920490796245
Ni 2.9955132336073373 0.7555792182706126 10.859196920008946 1.041555947519445 0.773495560137255 -0.6055292472651894
Ni 8.012381560019703 0.9162544611932327 10.007696408144797 -0.053477403092849846 0.35192463029701326 0.2633444699637594
Ni 4.4465441883100585 7.252757640098798 1.096649814350209 -0.7955455979587589 -1.3339831937817734 -0.5121958885176663
Ni 8.73186271498648 5.521262075863556 10.58800737284295 -1.0302281812114515 2.2029952363608 -0.17323527458048874
Ni 4.230036942233392 3.5717287880637314 2.5081077842720134 -2.019766598013025 -0.19726891849092476 -0.45911700641481573
Ni 8.81491416806567 3.6387471064954173 1.4205292759480717 0.42397928217141817 0.34521585081826994 0.10146318694350913
Ni 6.261635170514773 6.31150476528668 5.613839368343436 -0.4635133357102985 -0.240841660875553 -0.3509995473795826
Ni 2.9521158990554115 1.2822266635807313 1.8239742054553592 1.0454866500324187 0.38452544705117003 -0.26170770569128476
Ni 6.436994699551873 3.143029136057052 2.3582703503074955 1.1821045305001898 1.4942395396040913 0.42791949776608884
Ni 5.6385279985671755 5.614575103906904 2.645193390444143 -0.7880099517033461 -0.08830325252278341 -0.8465683688635292
Ni 4.868236834950376 4.369291954145923 4.701548475054149 2.6320794438589505 -0.23245446525312224 0.6829302510531723
Ni 6.495245041531704 4.876626801902203 11.45463471852893 -0.6241149806871769 -0.026906337472540755 -0.6651140488073577
Ni 4.280634896773644 0.9545200862886889 8.027609811024465 -0.8986293512248267 -0.8033288414486036 -1.3555020416901558
Ni 4.775384794102182 3.1820470922550017 7.491277024744133 -1.1113783676292215 1.218760491160327 0.395320480784145
Ni 1.2909946400325865 6.963174703846104 10.196194994218216 1.5019307376007618 0.42072477978986256 1.803412637866191
Ni 2.343188693230793 5.745099018343192 8.407885524103245 2.0513677698580737 0.7262523108795751 -1.4177556483137388
Ni 6.194312600534285 6.944550821161827 9.728640575480672 0.42806965019070786 -0.8691315988760259 -0.8588397300317144
P 6.885221769145332 3.0792838267109692 4.649083522373517 0.00604440642186701 1.0414111944114643 -0.187148028006839
Ni 7.55912972999905 6.639755307469006 7.443089111260153 0.8370555442770874 0.6183053159839351 0.4498980589197091
P 1.037350265514204 7.013237913239976 12.640031021767276 -1.485012107468552 0.6538521027402933 -0.19149190679783148
Ni 0.3087166707748126 1.1270860329231465 7.859784656704987 -0.5986116942097497 0.35316081669695953 -1.2847553099938969
P 0.2725116584417009 6.017219759643401 8.499374886802558 -1.5333113087945722 -1.061081162036566 -0.7255789389616343
P 8.823258036297982 1.822807907851616 12.071365515593136 0.7551291418149253 0.13997676963767505 -0.6236673516267969
P 2.5249467245366484 0.7710923593619807 6.527236630901095 -1.3883897935571121 0.8196188368578787 0.4047050073228385
Ni 2.958910850312001 7.965582139967531 11.889236850582376 -1.328480004575357 -1.287036135608274 0.010694503599368677
Ni 6.196064351875874 7.88148885582729 3.8951454185176577 1.8942419992449377 -0.02334561670447592 -1.3472634558304475
Ni 2.2771845466284484 3.1304073066536984 7.692027728490388 -0.6297816920546508 -0.006282747684918212 -0.166835541701732
Ni 3.753090370381753 2.6331680784713205 9.495275027677174 -0.18804791411328906 0.7251084270831188 1.861781307613071
Ni 5.401589800001224 8.078524002780595 7.429312047945739 0.8533457967966789 1.5955026947216522 0.6333791795979221
Ni 8.989987885041772 9.124817419880813 4.755470147271471 1.8004862082480153 -0.6646610204303393 -0.9086790221513447
Ni 0.626717623660054 7.769090957904511 6.923069739841977 -1.1900716078660667 0.4586691202441197 -0.25288470808301605
Ni 5.891637627939178 2.4901975097658373 11.111143939674767 0.3842631945287189 -0.3585069115002213 -0.33182708821618984
Ni 4.821446634642106 6.491981252190003 12.25373758184294 0.6980581078335462 0.01624063022857848 -0.6525549811954245
Ni 3.527427918609301 2.6192923638971446 5.688609647448854 -1.0015593525218494 -0.7389530462756951 -0.5399969698903345
Ni 0.8745093047487439 7.716851888949505 2.4891888697828377 0.07862793421654846 0.7322694636079323 1.7403033681105318
Ni 3.904036017563424 5.134539917847724 10.164497514679333 0.3676592674234507 -0.5013286067858592 0.6648782786474678
Ni 0.5555329029585537 4.3582835799256125 12.470896663813557 0.15901270322320354 -0.4039233919618076 -0.05391809017469423
Ni 4.65060478011753 6.104530734405826 7.750132398516551 -0.38941517104330353 -2.1352014166452777 0.06362220483633559
Ni 1.9610671874226118 1.3473088357927652 12.939341709812139 -0.842653092969523 0.5046520147321374 -0.28462420527814203
Ni 6.964290292858379 8.806763914455324 5.8270450241284 -0.42164652027318356 -1.289296135287044 0.9504293666152536
Ni 8.549984827009885 4.260065648125812 5.721872639502485 -2.2548865259134523 -0.8770325988906572 -0.7242121405210947
Ni 0.6115649745552975 5.484788768982863 3.5011599462549583 0.7262188865384783 -0.6870262754994167 -0.029869276755606623
Ni 4.053174594940086 8.97475686811384 5.456997694935727 0.7340435247892196 0.16700369184848013 -0.34238480912737806
Ni 9.001826036213362 3.6883862076697462 7.869136242945907 0.41985780380387694 -0.07385648096983409 1.0370477752364462
Ni 5.541822104767484 0.24544156836778783 9.878113829561016 1.385036303703847 1.5466849018880007 -1.7801192145558888
Ni 6.480668626420891 4.628818525274488 7.315233390709423 0.8175987211040564 -0.3309248881168946 0.3424251754470103
Ni 2.650491977265259 5.740249433050158 13.071825741802227 0.568682253640169 -0.8078023038389248 0.07275810569933276
Ni 8.65453672287112 6.727518049682683 5.062864706770578 -0.649916515131313 0.593913517403132 0.25635106936506175
Ni 7.469476940285236 1.3377940600847584 1.5342308456587508 -0.5688095232466527 -1.5779006653691727 -1.3322299585360928
P 2.522521931890131 3.555133249038138 11.669715670223784 -0.13745785987056328 0.26522394637465935 -0.26591994400041946
Ni 4.175170246266001 2.5759226885769277 12.78128579613239 -0.11978563940178082 0.08090130363175745 -0.3144515730522197
P 3.2172019757575496 6.074077920293863 6.046039757110124 0.06290898081939489 -0.030126644182051344 0.3332368240795228
Ni 1.709718529136103 9.018062005226735 9.036288516948787 1.1097066363537533 0.00238418396146041 0.6682399960308492
P 3.1968079022438767 8.22123641865679 2.735954393375111 -0.7203742548322433 -0.17955453193029722 1.2577684969924081
P 5.680357976655573 3.8519721237425775 9.531627555912735 0.2102121089151541 0.9732422507447109 -0.9273706850235771
P 5.142837687360521 1.8349779698037176 1.1167156649809313 -0.028369552281628563 0.2972421511524687 -0.02360118435870774
Ni 7.537011564375496 7.879635687302765 11.291505179779302 0.07862587733401943 1.1387989257340194 -0.017832657306046707
