# total energy = -340869.8489184045 ev
CRYSTAL
PRIMVEC
9.23984447000985 0.00000000000000 0.00000000000000

0.00000000000000 9.23984447000985 0.00000000000000

0.00000000000000 0.00000000000000 13.52344635964785

PRIMCOORD
 96 1
Ni 1.1949982863747532 2.328006458211706 6.491253865116838 0.15238105683929887 -0.016715770092784115 0.36112532295967487
Ni 8.35954573640703 3.624199517938372 3.045926642500326 -1.5866892101950802 0.1340899718395949 0.5409187103736556
Ni 6.197884192791242 5.153061093714576 8.996350252709975 1.6110056754532578 0.5458385162727761 1.4325888566718294
Ni 8.512917909788003 8.663564329138769 8.790482828660489 0.8732348224111219 -1.097504952081239 -0.3350939318929197
Ni 4.418068449352698 4.233243846416401 2.7403234164933994 -0.0688294600688879 -0.2885883321322127 -0.11251404544103204
Ni 8.483091692806632 1.508792634238552 4.155876783210572 -0.5747089194502231 -0.08567069999594278 1.256722829336713
Ni 6.065708221936684 1.2010319046178866 13.173716141507155 3.1748071824168873 2.0355079200076815 -0.03543751487200349
Ni 0.10892020706260855 9.211320771235933 0.5410298355412646 0.9552126469365098 -0.37058749681383923 0.17036232390806788
Ni 1.354016004543711 9.287798961432589 7.797145989268952 0.5617436175388067 -0.07307280872627415 1.8163679124752783
Ni 8.619979984187987 4.184171034028526 7.978035342573165 -0.01677336280359692 0.682068160163193 1.5574948480193112
Ni 3.283618861825195 1.914985423804244 7.96155053658913 -0.016093563127752928 -0.8684168321971882 0.026385174861748108
Ni 5.272273563198359 3.7220402278565072 7.549382339798576 -0.566332779571386 -2.235521491123279 -0.6197777867644035
Ni 0.5064025955290632 9.05112959285736 11.827497641458667 1.0154134847961223 -0.2406609123233146 -1.0316679989817716
Ni 3.8577088598073965 5.795396580737797 8.324979479366352 0.9813687365065874 1.2232324108887513 -1.1930890545361517
Ni 7.921651041493418 7.128872411691177 0.470615755073503 -0.28592904013249465 0.137615211384034 2.9134920841783307
Ni 4.975000056710858 2.500375751206588 9.627597926728969 1.3814766113770467 0.18184924150174486 0.4302782278062525
Ni 1.1144176053665322 7.114245738369767 1.6413677663612622 -0.8033419540747261 1.16104642427831 -1.506401885998238
Ni 4.727335273573104 9.07950515430401 3.5256972351776525 -1.045758929857199 -1.3083788629501079 -0.05057462762375806
Ni 6.271719787555225 5.755360335948366 6.847339903732011 0.20016912285685526 0.2644389885795188 -1.3790952556290637
Ni 3.742497242849306 2.0297258087096552 5.758094405838325 -0.44214875399159337 0.1983297556552713 -1.007553108211439
Ni 5.490426284056528 8.322798876142187 1.5019680853344501 1.090837310253076 -0.8787038159454932 -0.33745677569814136
Ni 2.5608412914563066 4.648196008255431 6.664380825333675 0.16253717143669427 -1.3684074368979142 -2.1312822840965295
Ni 6.565676189985627 3.1282970813243125 1.5074851962884703 -0.41867663901158214 -0.8095483399957542 -1.3423346510702625
Ni 5.4517760158926265 -0.24488174207369315 10.622788278861044 -0.4800627554285473 1.1186178228004542 -0.30663696210380736
P 4.04087029079306 1.866799636456707 12.133478777092154 0.5380213342212024 0.4479728168725382 -0.36282353659770417
P 4.629910356642627 4.4503155055066586 0.5017032107841048 -0.17119536133232452 0.3101184928945046 -0.6120390233592491
P 2.624559256853932 6.78792216181119 2.970560005557343 1.3072447493456647 0.6508932772222855 0.9309015809949709
P 0.14960786086603717 5.54617026393528 0.6080381094478945 0.4163384777967088 -1.3798424182077331 -0.8011575448288977
P 2.507028439009124 8.690674031934105 -0.43516524494573766 -1.290603541244558 -0.033228680146142775 1.6173493582830982
P 1.1367225891933692 4.994533087286638 10.897179311261072 -0.37597498637799764 0.04772610243136942 -0.034483892709482544
P 5.717125860772123 1.1065082987568502 2.174163976762471 -0.5111659045912551 1.6860044975576511 -1.1751013597094795
P 0.25739249108012946 5.204794981223466 6.324807312235048 1.239001243687234 0.694670422308236 -0.13221743740723035
Ni 3.6918351772641587 6.7803362497474655 1.03255720594074 -0.864005333393054 -0.26552527966516204 -0.6742543205457291
Ni 9.184608381739913 3.306007004249563 0.8056312530429758 -0.18780160243043786 -0.06089349305126287 -0.32684531873088224
Ni 3.6689111238779186 6.962010065821727 5.163724797871391 1.427885280548573 -0.5987978420786269 1.0451536921730324
Ni 1.3456447057255194 2.9902260898891737 9.196011273430345 -0.7799755114346438 0.9817001517040769 0.29617797155401254
Ni 4.9058860223178415 4.118651299017713 5.329887687537156 0.2713172037565908 0.902005209675595 -0.9648044043900029
Ni 3.9000181062626935 5.572411421378617 11.900050745851829 0.2299530389875072 -0.047014935296957744 1.7580748331613398
Ni 2.093850327250769 6.9659000402173765 6.911089284599814 0.5586986600648959 0.05894871062006622 -0.10934156125032136
Ni 3.995946168437599 1.9963976907877823 0.7627260366387016 1.505470375322904 0.3965029311280203 0.7961698618063192
Ni 3.857570262144844 1.9841179378856006 3.24819607122994 0.2318397144872588 -1.3704838598109685 0.231012333489957
Ni 4.669244373275123 8.928988092771627 12.801023330964902 -2.7158444421917483 -1.2385371595666217 0.025094995295414844
Ni 5.193457692426644 0.18632238167628437 5.617166454585764 1.2216105590146122 1.7718487470169808 1.1575486955376968
Ni 5.7782197104254145 3.5013465498515357 11.786156730672406 -1.6378541631046695 -0.9876059756655508 -0.2551992151488056
Ni 0.8336649402553301 7.325579454230336 10.13858163699761 -0.30121013466128127 -0.582544613444558 0.21915671970295159
Ni 4.803600947353846 6.713291940448571 10.140935025307758 -1.0510083511815964 1.7836627089327732 0.04544990480268302
Ni 8.324046255105163 6.110595384915464 4.310801250412135 -1.3623920839417698 -0.7203220614380691 -0.3038871672728121
Ni 9.324203947463134 7.432447491902746 6.193278130472403 -2.3823337956255486 0.8460227807727042 0.0737207267229182
Ni 6.218821679680891 2.4289425159268543 3.8645814559011837 0.15543809849806778 -0.1559381780629379 1.3599742185288963
Ni 7.668063518242573 -0.008841606886454146 6.798100774149072 -0.9523047292610953 1.054658289229358 -0.9483737696378054
Ni 1.5146599352866223 1.3566863195088956 3.891547017127464 1.0383477249947923 2.034833519648476 1.004447729813238
Ni 1.4143799065075577 6.240904907247644 4.594536537221475 0.46439316721209056 0.4833416832901353 0.741620051584897
Ni 2.238675644774316 3.041045232825215 1.9023564047924293 -1.1170396796800568 0.05082171063755763 0.7160113498778572
Ni 6.267681975652852 5.506531332445168 1.798266788261996 0.7894016898445502 0.844608674033997 -0.8525780653927187
Ni 7.716286264966792 0.30889630646918165 2.127197848845399 -0.8339010578085057 -0.3453474913001278 0.42164626316286735
Ni 8.764324829814685 1.6313868866886239 8.17682966591037 -1.0154093710310643 1.8549606851468117 -0.3583991822777634
P 7.742333385682556 6.738683032228253 8.219523289883147 0.12130310448757176 -0.06845125079386276 -0.29721798278275263
P 5.844460153281501 7.496821486236455 5.7550508011686645 -0.5693774799349807 -1.1761249158779872 0.05337224497355325
P 2.986973664741267 3.638964788922335 4.340809492323659 -1.0066213404257889 -0.03486827263209479 0.26990978188610293
P 0.63710665920731 0.34744401236279443 5.887757139078591 -1.2314920797943822 0.2519763373361338 -2.4136135795754368
P 5.0483921389546715 0.5123918625201799 8.660725849009687 -1.880256226488807 2.1255587513491907 0.36038998745554707
P 6.573446898932756 1.9868067325391257 6.292500197093981 -0.3270602629551657 -0.1166380949117346 -0.6528761119802692
P 0.42449784485125414 1.4224555303123032 2.1277245199631 -0.13763243777521458 0.6913981793148672 -0.7580314030633848
P 7.298368113149129 7.361005016778842 2.6438335717929466 0.3351430399633002 0.4335545845646791 0.18243545302251804
Ni 7.1329564228144005 4.817054160465641 12.961262556533159 0.47658688106480496 1.3369497326092654 2.949689102924178
Ni 5.695707901985624 7.983465598991985 8.023338298539603 0.9584249832262204 -1.970925665250922 -0.5524290250061002
Ni 0.19568696374277122 8.3985471186494 3.5949378554358002 0.8523718629191837 -0.166449619117223 -0.010186967835330843
Ni 7.344539614467564 7.6358996206861445 10.406440099569313 -0.30153769320402907 -0.5768010260925615 0.033734930358599965
Ni 1.5816950047413458 6.630364339021123 12.488185306972719 1.5311245855558986 0.08005618202264277 1.1213696745139785
Ni 8.131580301040119 3.5616457729061906 5.816244441138995 -2.485183321393623 -0.784940568749403 -0.8752683079013829
Ni 0.7847935564703649 3.8284647530087477 4.671701247839977 2.430208764929957 -0.5178757125112629 -0.0723403014356238
Ni 0.9071124615641649 4.9601423872851935 2.704810999409694 0.6499537961271515 0.4344536993401808 -1.7333721882083375
Ni 3.44545473246606 8.936675643121225 6.9536748023958 1.1798003078470454 -0.19821919821933603 1.6492804026637402
Ni 7.330458091952196 8.439923140843508 4.62200289800178 -0.11912358033774968 -0.020266206448203806 -1.1815417160181845
Ni 1.4609210015928014 5.404939245793937 8.582114178794134 -0.5600338339365516 -0.023439461969862855 1.1161624192814261
Ni 0.5396789703235829 2.5371133716272602 11.846417146381548 0.022770975147928526 0.4524624772127756 -1.6741637961689815
Ni 2.3780124948607706 9.120807257744758 2.22295682187199 0.6600484613589923 -0.15600914051018938 -0.8580647995389028
Ni 2.5184211668709673 8.833217107947615 4.8748235141865 -0.7550723204350609 -0.18215057479224758 -0.44303012815528214
Ni 4.754260179485035 6.441317127299049 3.293595121575748 0.7319573316841522 1.1038013266129119 -0.28798772243373627
Ni 8.024998698536987 0.825707586455963 10.548612657831601 -1.1251211711366107 1.1083817468947428 1.047184606560132
Ni 2.082873392376584 4.387244329200946 13.417219298830656 0.1404107718513001 0.06763698242268351 -0.3624268153799177
Ni 8.691561056974443 6.511373625797425 11.97006196911377 -0.564221389655338 -0.45533851320899 -0.8905301191564597
Ni 3.0342724270484664 1.3644385487676847 10.292126595464566 -0.6895053331675286 -1.6958371673773565 0.3775927244870787
Ni 3.0048712428989237 8.105459261570996 11.126117702219103 0.467783166730246 -0.14764508481621025 -1.3511954438950018
Ni 1.8941680548888076 1.68488558443402 -0.12992606879911692 0.3112585200362188 -1.2417505242975968 0.3986400320756812
Ni 8.106050611597887 4.338300874631454 10.97309941486985 0.8298983644070158 -0.7097077762573326 -2.649360342426586
Ni 3.008400863371936 3.67095312943953 10.95685854077191 -0.47963209564903203 -0.19768158054831117 -0.08414346471813897
Ni 5.632267131913103 6.843777019819986 13.088491514819 0.37170309847552113 -0.9985807295094996 -0.849687374108485
P 6.469849766096594 4.741601592971876 3.89423858373424 0.5536544127727691 -0.7510038067926421 -0.21321155786311025
P 7.818645258684149 2.768589947778843 12.564092474799658 -0.9872802168950157 -0.9003710165062816 0.6263857789992244
P 7.191213640307443 8.375789382458223 12.490958184208193 -0.3183069422425679 2.1161827094509293 -1.0579022500879522
P 0.8494817055058602 1.0735312949134446 9.845974251816058 -0.6106691395949161 -1.2846182701954003 1.0681483532959928
P 2.5434796242605207 7.597803743172454 8.883984507756303 1.0288750096176669 -0.08573369202339429 0.4798984619365413
P 3.1900377200695176 3.895416663865939 8.670016512322812 1.0540700208260558 -0.3661829399882403 0.5406436023353979
P 7.118163432297926 3.1523114363226346 9.034716857657854 -0.7270506384111544 -1.522951305716487 0.7135328064303776
P 6.377017051718703 5.772204571870621 11.034577642040622 0.4680472190249101 -1.00792694661109 2.635386653855313
