# total energy = -340855.98103608045 ev
CRYSTAL
PRIMVEC
9.37285859140938 0.00000000000000 0.00000000000000

0.00000000000000 9.37285859140938 0.00000000000000

0.00000000000000 0.00000000000000 13.71812597159559

PRIMCOORD
 96 1
Ni 7.839833916355387 6.373131498289588 11.972865311539605 0.8281045057313867 -1.3704128973637173 0.262833848875928
Ni 8.51120241092119 4.685970071153689 5.89824530299829 -2.209258443661692 -1.348986094948509 -0.8024132716128696
Ni 4.009146572834696 0.2082255539177562 0.19789478907795072 -0.11193014791310402 0.11618146699029024 0.8162260091262459
Ni 6.317269260542138 6.489973554625113 7.2066392006315 -1.0476468909085312 -0.1375218803392793 -1.0339709360833353
Ni 3.276310871029332 6.2812306189080855 7.531470614845984 -2.313120212744365 0.6029781987085615 0.36391702677219906
Ni 6.210381180127383 6.6395362606210995 2.017923049038773 0.8210242018458376 -0.1887868491618426 0.8205719447997675
Ni 4.239034677739349 6.454131743023393 11.08272304789481 2.200487382337281 -0.6623277443114722 0.16217490300126908
Ni 9.152755842018092 9.034723432629896 10.137132826856325 1.0631259603807368 -0.6032155115303481 -0.44449745672942803
Ni 0.8141996134560475 7.666585996468829 7.87157041585419 0.5295788598808041 -0.8572790704128138 0.3142224877605492
Ni 2.5272694965619977 3.1813919311520773 4.661474104987085 0.33478179996913954 1.6225445293307927 -0.36062344362259185
Ni 2.0941496968456015 2.9792474879475 10.91389443087703 -1.264046616691636 1.3225104172554836 0.5680939852368668
Ni 7.561928656420499 4.754420058111682 8.143683249123319 0.751087881866016 -0.8258974707777389 1.1058579520316245
Ni 2.2312652465112834 2.50375299412771 7.014393433481467 1.6334964003566061 -1.7333845295035115 -0.035781785585299666
Ni 6.623133757926797 7.605681160750215 13.738703451741928 -0.16076439580698765 0.18397580092644447 -1.1916335530365478
Ni 7.980098746538374 8.983978775723067 11.96446910473186 -1.1839102162503612 1.3186614758230388 1.2364237127680449
Ni 2.5761864460257473 8.814011356375369 2.95086459728528 -0.02007260238015898 0.8290126193679529 1.7866652432045231
Ni 4.925427864773133 4.916879817654731 2.5976502924085767 -1.0803335825082747 -0.9463508256705055 0.987326496751919
Ni 5.957445215722565 8.933674643174312 6.887062210994403 -0.1321019948752886 2.00833598757858 1.5981846124291894
Ni 1.6605425084777174 4.66637142364867 6.38610353470611 0.3280082286907318 -0.2705083347020502 0.7926713617347574
Ni 5.547401394082381 3.7072093032379856 4.486252261062 0.44772984762379664 -0.327614592796739 0.3458889656258946
Ni 6.334955844875936 7.788273820743184 10.939121480020868 -1.1068997630325774 -0.6672745467937863 0.5465139450732458
Ni 4.7197498538452685 8.502101365140522 9.30877738493216 -0.02822608472522881 -0.40316928740460245 -0.7129411955929656
Ni 6.08096074744 2.9691529191464925 8.959431258833709 1.4221866875018991 -0.43775859534369765 -2.236814756013406
Ni 3.9573146643207013 3.5381229326064383 1.050431269116989 -1.7597725325787372 -0.002083622001906089 0.10320562355591258
P 7.336830082302582 1.4726541833291593 2.158835543756719 1.5408526114769399 0.5204038782497554 0.34202871133954
P 1.3342451791652983 3.530418442769458 12.982738346565862 -1.215761813543319 3.4647126906986263 -0.5932859111214621
P 0.25863559976962147 5.38268277559686 7.9195566404507725 -0.9463395128165959 0.9360522719579749 -0.6809942103727239
P 4.072375877506559 6.36421790968257 5.640577919530567 0.8523993737230093 -0.71194206490449 -2.325253505672789
P 6.315254095925408 3.661272922835258 6.672688999066823 0.10183471135031494 -0.13999091070506212 -0.547959933491153
P 2.0161393940315016 0.8207334332435893 1.3500703137647607 -0.034385933679037556 0.10508124331207065 2.549623908366196
P 7.570045552039509 7.967454760175738 6.3305580995821265 2.419846704969342 -1.939552293145963 -1.170130131747133
P 5.240027866449845 8.422375829187532 1.6753394404797144 -0.8987417084329747 1.2661929736106774 0.45559022420847983
Ni 2.233477241160344 8.13080494129362 0.8894683551055287 -1.0440817992650921 -0.5796158698335373 -1.2269062601959126
Ni 3.8301062262823784 6.91516391589615 2.8672258928323635 0.49310596176575083 -0.14372415249524925 -0.5781125458151335
Ni 4.691321973461373 3.7900185096975045 10.2577427723822 -2.445880924249575 0.08675519130937318 3.1460571068673886
Ni 6.167978367447942 6.1079077161520665 4.690721173219828 -0.4500764934791023 0.1322691165807722 -0.28825897381725196
Ni 2.434140772693093 5.8030086232117 0.8167527801611493 -2.1203383834905165 -2.00074634815678 0.11033374996026159
Ni 8.607686618198414 2.1871472006929524 12.309932992764038 1.3479825933846592 -0.39995103757762085 0.8246227178303733
Ni 5.2838834722250665 2.499282140536178 13.226509529750972 0.08617129378144514 1.9691305210237118 -1.010172548112157
Ni 8.746123740938323 6.2818304818637625 1.3384114148496509 0.12129179163366209 0.45573137777203443 -0.2223718842061396
Ni 6.190801278339728 1.5778082848876585 5.34602271343216 2.6075025258505353 0.02831838732871897 -2.211122493453624
Ni 4.8280813544971215 5.554149852333751 8.866120701506363 0.9570126762597259 0.03936333228897092 0.2364098503564445
Ni 6.66062519265663 3.6432489155888903 1.5285426650809213 0.43554821795594023 -0.9248774862880781 -0.4831357379269163
Ni 2.6665314308659624 0.9054518910167247 4.84307511653145 -1.6794242732369722 -0.31922302629893407 0.4501690531929086
Ni 5.226174781317171 1.5984285739890667 1.963406753798123 -1.215927392586906 -0.2067560320457536 1.485757727385325
Ni 0.38630611974099016 9.486082815342357 3.5164088308967876 -0.6690331813561058 0.28124783260674147 -0.7363510898764738
Ni 3.9665563029816058 8.35831234009293 6.379354139168873 -2.028670585370874 0.03214958814935108 -0.22324091707465424
Ni 0.035304746799215525 4.315676543185811 11.261237577075041 -0.4997916013160425 0.25304257381711903 -0.32292464352023736
Ni 4.133796220452709 4.109829820801663 6.450070483356283 0.09572499890815127 0.441990116926542 0.41466340408713104
Ni 7.7187272093193435 7.610480064395633 3.4413837835730505 2.4695283884651853 -0.08846677468384118 0.48680264525554223
Ni 1.2476118463633366 2.5134164114293243 2.771170962482795 -0.13718223761167342 -1.15887075678323 -0.32166017498551697
Ni 0.3733884459048262 6.454628504533563 5.848695685573475 -0.8429973636828191 2.740905241815118 -0.3981484371512433
Ni 8.754849872371691 0.17043325042421625 5.662074570918784 -0.09856581079105606 0.8408306950488035 -0.6996105399223306
Ni 9.367159984379324 1.2228487537242818 0.7116839716166604 -0.7102929593368413 0.41233835549838016 1.2934371540386111
Ni 0.9020532924584653 1.677732331301346 9.195698531357644 1.8456052120738409 -0.889264622180475 -0.26972569089975484
Ni 2.2432343870487825 8.92702928636845 9.525414142231554 -0.04627085804208161 -0.0857725156811297 -0.7084394510678702
P 0.8167209124416289 7.0230548921899265 13.295703721688351 0.10053681847449782 -1.9126084175672673 -0.264975320698963
P 5.566681364392197 0.6247328989053633 12.387193466883542 -0.983847279954067 -0.06498077574675905 -4.871435735347287
P 2.7470349140895967 6.848954042163264 9.688673406620218 1.9123983584389903 1.2084655369922221 -0.7483486285579822
P 2.341780623236149 4.483253883569482 2.497920264169616 1.1805814089874442 -0.45174848186488653 1.0045377184238828
P 1.5723439082757853 0.33892725638703186 7.463373984660319 -0.007800726991341404 0.008935354816416868 -0.7275448044387536
P 4.3040635712782445 1.775416264489926 4.145013657723874 2.309108777592126 1.1226066322448731 -1.5536682751843696
P 7.131714442895665 4.381324045397748 13.007102155425045 1.2287029470850195 -0.7553101474774798 0.00898266311458453
P 7.336005270738525 5.043685222769709 3.0228031622448834 0.05425130514439689 0.33265164100001415 0.8827931555235183
Ni 4.012277107634637 6.890175874648715 13.630357891802053 0.4586724626782294 3.4024912228645596 -1.72854314225081
Ni 8.556398335488003 9.36683193432544 7.9772409619260936 0.051775589910394694 0.2245418952742649 -0.35495416115195644
Ni 4.255146621814496 1.4159483883002868 8.691173482340675 -0.13323842247257697 0.4827007072720268 0.09587052334708006
Ni 1.668546929792537 8.44589233162182 5.457742502497721 -0.6750595900558438 -1.446142169876232 0.6534345555869004
Ni 4.204908099276519 8.6053434035278 11.733881784569496 0.08100646175105404 -0.23566371621903928 -0.26902892194304634
Ni 7.169712011994351 1.6899170475885417 7.361736579679478 0.20540491733449787 0.5262220275934293 0.5774291465948636
Ni 1.9254382405613528 8.431120706338266 12.093680522670624 -0.44735266679003605 0.22282465547284208 -0.18162041332039042
Ni 6.81279355336634 2.3130809299504618 11.081804507743929 -0.9335804133787149 -0.7226746208306457 -0.40561620628319817
Ni 9.406694702301932 2.8319717594700333 7.142588833539054 -1.7644377992648903 -0.49110487217532195 0.8921244602267732
Ni 9.03028069761441 3.457675686534899 0.6190360753981652 -0.6836563305859193 1.927621603146648 0.4679580017452134
Ni 3.249448258045407 1.190353052672199 10.801625392292676 1.2307518591942483 -1.155255785738462 0.8035687253735515
Ni 5.972666738222877 8.838193331776111 4.1833973886002775 -1.0415356358044707 0.4374390072207499 -0.10938552711437935
Ni 2.0971490116239884 1.7223096471951176 13.25003634232981 1.4534618434660966 -1.5400378288851282 -1.9932289567338126
Ni 0.18966260729714762 4.634681788443277 2.850324754056155 0.32430301192500277 0.849865294447246 0.8035263021713904
Ni 8.956919332706809 8.542948283278676 0.23099972594439327 -0.7931279896562018 -1.1199136587937424 0.9180859172875415
Ni 7.658469100849819 7.338967094082182 9.013933494786334 0.635352501274209 -0.922971784624933 -0.1625556833794555
Ni 0.795636666835439 6.849535159401577 10.257865556830938 -2.2129027252824987 0.43290949478151247 1.47475880517166
Ni 6.5866920833694 0.6459521136765807 0.2658489518116413 3.803932214724146 -0.8673814489541384 3.137906709846112
Ni 8.07558943079526 2.9558809512521314 3.6179225141430202 -0.9904928102950425 -0.6262117153152055 -0.36337066735042584
Ni 1.7865887120394164 5.008593239862584 9.358711289562956 0.29012173805760355 -1.32486631908217 -0.10617910436193971
Ni 2.523717183121346 5.231442327896713 11.856356928973177 -5.349504086053626 1.3583161141001834 -0.1529443855419366
Ni 2.0890133702876144 5.937321688131327 4.409952504957449 1.2757603055841384 -0.210553808525289 -0.7947040758940701
Ni 4.3977452938094155 1.3337765362311753 6.371219435118367 -2.0902202239488967 0.4346059086473289 1.188652358921037
Ni 5.357760344360203 5.354123675191409 0.24563169563357887 2.239894423379994 -2.236976992622883 -0.3388282021243713
P 0.6512890194103723 7.221122141867634 3.40913271413258 -0.5661060082725605 1.0192565126912962 0.12062021948793421
P 8.558544720126287 2.7165824962302896 9.336831288254627 -2.856328747593462 1.8143110299462497 0.5555783692683592
P 6.964474525424563 0.00820968691996519 9.636887425113768 -0.5097697955746769 0.5294996699034364 -0.6739766414043102
P 6.650043235204135 5.565884671404188 10.060490024123997 0.22622673917585556 0.7629581509410408 0.24544522108583539
P 2.8983034803657906 3.2607425527577685 8.907440011722112 1.3393298028056675 -1.2402955370186253 -0.2989280234953239
P 0.8991345842647479 0.8872273045945529 11.450066937235318 0.634740835832139 0.7522227668014078 -0.2562641660782103
P 0.27092810393166544 2.958224165922746 5.039916396293492 1.410973849505215 -0.23647567059737334 -0.40586868861363645
P 4.1820758155260505 4.471059794423604 12.384518453015568 3.3595013495665946 -1.9286621285960202 1.1609042422734912
