# total energy = -381169.9837358447 ev
CRYSTAL
PRIMVEC
9.23725243721697 0.00000000000000 0.00000000000000

0.00000000000000 9.23725243721697 0.00000000000000

0.00000000000000 0.00000000000000 13.51965265764785

PRIMCOORD
 96 1
Ni 0.6949147926356564 7.965328810251413 10.834108990600669 1.594638289838828 -2.032468618960725 -1.3094983212665319
Ni 4.327283193823968 0.2519866993075216 1.223567358114337 -0.8565535051006989 0.5689992706599555 -0.10896720863003816
Ni 7.833891947840704 7.586536806816457 2.5853905182578805 0.016710370776145414 -0.5114394699676159 0.8936090151920997
Ni 4.489119853423072 1.9778896912111643 6.232370405071412 0.24759260644614134 -2.052024686715782 -0.7268889160223094
Ni 1.1615567599662353 2.8056121544929478 0.535722758358655 -0.4081209749829229 0.9426844325625119 0.4118974113062197
Ni 2.715438097928653 6.794645645052078 11.944383297193825 -0.8745957073143905 -0.9912386873221316 0.017713358119363042
Ni 7.649119190879467 9.184627634096302 13.197992970834086 -0.46473898058728347 -0.9455710100816878 -0.4347264933855932
Ni 8.444289577196225 1.815886761071377 9.465203629149213 0.9157487845139327 -0.6548265508384207 0.0041160790509025885
Ni 7.561226735623447 6.711972237323084 0.3924511283521474 0.27549884593810614 0.2991789631638654 -1.1070838540189256
Ni 0.5578413588957584 0.8242178497742552 7.792524761043747 0.3991496247222481 2.139896251017786 -1.7728746171783338
Ni 6.623433174408849 0.35570995748711126 10.48012362811054 -0.37356020628891795 -0.586197636816113 -0.833063906619191
Ni 1.4922503908822111 4.450591274245682 2.4522216710483784 0.3211418405882018 0.31253353009390045 0.8169970829643155
Ni 6.544925767449215 0.376842019482823 1.8501107806955022 0.9244105739539886 -2.3734028116845063 -0.8037232486735449
Ni 2.0685163731362097 4.662549264608754 6.683656364244598 1.0286065864476286 -2.2220509674406697 2.0985827369809793
Ni 9.190973626399074 6.073585733619088 12.173446831292377 1.5123491047206084 0.30839585377644313 1.039366910287926
Ni 6.7577890085337895 0.7511437945940845 7.775882003646505 -0.421237714870539 0.8370352325621132 1.3042051911883925
Ni 5.1669217125214395 0.15677741653617927 12.33465443401256 0.3718540222310886 -0.07590385041716605 0.8148283574477709
Ni 1.0849429897199474 2.070317637326953 3.0169373930761947 0.24990454240876958 0.09500920378804928 -0.6790951935777982
Ni 7.389570876871727 4.061259565981812 13.297362712023432 -0.9536468451112866 0.5172478491192769 -0.7448025630779367
Ni 0.562425807192507 8.22430441461902 13.088104770496022 0.537500685831042 0.9809355056239106 0.19685368533037712
Ni 2.9543411531347945 5.538323914148217 4.806655942219587 0.44176797361340686 -0.11930407177967194 -1.1788209746529117
Ni 8.856963821921678 1.402057859813396 5.049143975027921 -0.13059121465771703 0.08686703429688909 0.530014661866642
Ni 5.512394947053772 6.295030382053407 5.044871745857567 0.7896258900402143 -0.6407219931162385 0.4867681924731811
Ni 1.7714925267087462 5.921882339749448 9.116923193654998 0.7840720501015206 -0.4351484114143603 1.2019467620370978
P 0.9687383562863446 5.0490081874196955 0.19847622068927698 -1.0160336348786243 -0.8800490171194779 0.15277854938803367
Ni 4.066875815356028 7.865455638813885 4.967174445921155 -1.8856221187864104 1.4827557073342077 0.07815845077929764
P 9.212671931958338 3.046547405196339 6.855072054437551 0.531190170231982 0.10655217143064229 0.1707410474037253
Ni 8.019579192775701 4.0083670595397765 8.705831290241722 -0.9509407590340332 0.7942672454669676 -0.7314752498414112
P 5.102935266114876 8.137585090400048 9.274725021466837 1.1903297466234597 0.6056477751209246 -1.7363731798181903
P 7.548165260927492 6.567714068775185 7.697062377560475 -0.49711431159419545 1.3342091937496505 0.2521385739456109
P 4.056299161518073 4.415554376422658 8.115036033907618 -0.6055176773009636 -0.03483613384257871 0.7869689120333414
Ni 8.40887395203053 4.720614632316515 1.7131832955413158 0.19846525279187108 0.8593583215393457 -0.6680831587380107
Ni 2.952521414439531 9.082768453422824 11.82681616905184 -0.7423124496662312 0.9857264992546507 0.6846066103143307
Ni 4.814030964424148 2.673473260910461 11.53435922014183 2.105571766704303 0.33121825098759733 -0.4523290369587048
Ni 7.333556179165736 7.070109744704182 11.476061997402338 -1.4348308586284708 1.3630127482449041 0.042150408115804824
Ni 6.685793864417613 8.484915012636685 4.471232838146377 0.871469502980583 -0.21676765064548473 0.17983066840981934
Ni 5.680688445982771 7.907679118895364 6.864238179855371 0.3724098947345586 0.11233663932290332 0.8654963161162835
Ni 6.469365043960592 4.858027996939589 6.901268476716151 0.685874935503793 1.3940608757999604 -0.15267493393063383
Ni 8.284799179671218 3.4484694882908924 3.5132170842836983 0.13434271128034928 -1.096175434636538 0.5865861305037833
Ni 2.085189613465912 0.5776709683227786 0.5239036940916999 0.02675927037171521 0.5996118533394899 0.3662870696662724
Ni 5.870042880065078 5.973075191775603 9.14874922259237 0.20179740248889763 0.6783426316824898 -1.6494212991169788
Ni 6.105112475583228 4.55787272199591 3.8406628973049797 2.333819392964929 -0.7296659645468143 0.6191195843551144
Ni 8.466172627800693 4.643169509366808 5.4696994433817965 0.19869665207638684 -2.322703485557426 0.6960091957243175
Ni 3.890047095338583 5.306570492191487 10.400763622767288 -0.8326759271521531 -1.5197759933122987 -0.8729846540735289
Ni 1.256451052435504 3.4649672208276505 4.924533442037515 0.21305703456311692 -0.3980183393312823 -0.1425643278591932
Ni 3.4902218685070996 6.68772445014 2.8219574723674117 -2.477497522713591 1.1399350962209915 -0.37500388071398
Ni 6.7003148249706825 2.8251674175278394 5.542543490980687 0.3710374398670642 -0.2957732799164261 -0.09602324687486044
Ni 2.13403620341797 0.9292491028738924 9.563072316846274 -1.3462841226363136 0.2656723467659876 0.6012658440031451
Ni 7.529589146632184 1.9793861260773202 11.992945379776268 0.2896221727133657 0.3607985357478754 -0.5523963719959518
Ni 1.265032459785251 7.9793232474256515 8.07136784757264 -0.28257375050701655 -1.0103180725510859 0.7854254788056214
Ni 8.142573206620568 6.704850315830452 5.15831536459059 -0.671416851096934 2.08309261176518 -0.0981832306406567
Ni 2.5580076076576757 1.012236577179734 4.6500170844673105 0.8301534178406154 1.441313638139337 0.31272867682384203
Ni 8.23300590624815 8.643398549665328 6.583016500869469 0.3877974329342224 -0.5801084931992396 -0.8417418940091632
Ni 0.1763613150530776 0.25070826359470677 1.9360818874813959 -0.4224026817129176 -1.3000790848351609 -0.5285802434129606
Ni 8.794159743804423 4.28590030369817 11.06396969956928 -1.4681412998551424 -2.4814981592325522 -0.8638592947334929
Ni 1.8179281938208862 4.457777856504136 11.325697081385206 0.7133613138495198 0.5106681390192301 0.3689489327691517
P 2.7760806590170155 8.889183357805337 3.0172754765089187 -0.16686073851271263 -1.1065660338422425 -1.7052268361223728
Ni 4.197804628892426 4.621849931150214 2.914417748866112 -1.4278585410756959 -0.9231306788003005 -0.1490576488930207
P 6.175010763436334 0.6908189949834737 5.767605447400111 -0.2523959413720556 0.7859042182142529 0.5875618641534913
Ni 4.459024885559266 0.8873701723017203 8.951794377350351 0.20357763431777198 0.5499142290040465 -0.4479748737550672
P 1.1864973410688369 9.101834142087924 5.66804634253943 -1.1313812931137095 -1.577492888407793 1.984518316333692
P 7.88514946063268 1.3932270466526226 3.0456264511459943 2.3617516005988226 -0.026345579873064306 0.8200723794555296
P 6.802663580013951 2.8738569741914737 10.157950438679395 -1.9349579889070612 0.6291995942989358 0.4334998200673438
Ni 0.4049278849800303 6.9031002238393535 1.4156024428025606 2.208584557523119 -0.7332287421974082 0.425482349079506
Ni 2.957528005164572 5.251904433315489 0.6996553504956028 1.9173551882236333 -0.33216827360569245 -0.2741076220175344
Ni 3.240779108472043 2.939663159293301 9.708232964939995 0.5017878058104648 1.2724908908042472 0.822752497390854
Ni 1.581722416274729 6.6988368646090475 6.135664687433914 -0.6297881198125541 3.249837371979848 -1.4018063240733343
Ni 5.809492691499318 3.0341694871676403 8.178983683854689 -0.7921028908257971 -0.4932723121402859 0.48519364889720956
Ni 3.006744085207039 7.641747863575809 0.6459111693951746 -0.31959969291206247 -0.33089403487895913 -0.1221975912773831
Ni 4.713215593256077 0.5811210820419719 3.582478001730849 0.37379494800754337 -0.31078055195853577 0.8905311475977242
Ni 5.948217745943343 5.508321318807013 1.5445664927832088 -0.20105589633718277 -0.5643581723435184 0.5949854103110721
Ni 5.716612120022777 2.1418786305868993 0.3557275082664057 0.7211597268480161 -0.10387950969448563 -2.054312454308694
Ni 6.029367007049401 2.317663541098939 2.6500817670118986 -0.7715363795283551 3.418321505028597 1.071812432411141
Ni 8.100922436179223 1.9671837158415661 0.6843205880184069 0.9654734054325695 0.8645059271785563 1.7290545346695898
Ni 0.15164612290562549 5.624101038636646 7.536908745323185 -0.7300436596012072 -0.3119925699887659 -0.03525290966502316
Ni 2.91102767728661 2.309072896496932 12.566463279482852 0.6775761858301104 -0.23511735679726603 0.8227347567790411
Ni 3.12123058972024 8.94077341167868 7.1042256884768635 0.08733163263813347 0.7989775064584433 -0.45677910231025853
Ni 0.9319833295429182 7.720791031166535 3.8165841518382573 0.32805039478257697 0.4765439436420115 -0.06359392270156144
Ni 3.850567079178391 2.7984625212435352 1.4357599746848186 -2.031997849971894 -0.1827218739146853 -0.0804459612618937
Ni 6.2383136531756405 4.801292793557301 11.079422698875405 0.5936080703475712 -0.4856929571311313 0.59978386014098
Ni 2.7112720971592927 2.348894690990752 7.548508886711573 -0.5400273089076377 -0.44611982282419943 -0.6011462877061453
Ni 5.384810018835575 6.16947764933246 12.850903217156214 -0.2826282578940359 -0.25362287180062126 1.584779137656561
Ni 4.902847144906191 7.147656477428752 11.056926294720858 0.0767011495074808 2.07057519602446 -0.6908405070391844
Ni 4.52096989921632 4.179237751849378 5.968602514231203 -0.6598481724227281 0.7299099622368204 -0.7673591082222139
Ni 1.0273025356161574 3.4290250722831237 8.80582269850818 0.35613146928950923 0.169662726737882 0.6176039190415363
Ni 3.015343967061306 8.073718728272867 9.762581262338243 0.2254667210813794 -1.3489963793611541 -0.8698846749919665
Ni 0.9632329539392519 2.3034196981136756 11.56650855290831 -1.2706859763850245 -0.8995917151380959 -0.7292818417345183
Ni 5.466033177959714 7.601371833946375 2.8388967455622085 0.19102628001532262 -0.33027234213456025 -1.2481672264572181
P 4.949873996162984 4.2033469802485595 13.496195490649953 0.11491648423493757 -1.4051217615998122 -0.05869288585551827
Ni 8.557510578149776 6.210176982791002 9.780549565434828 0.09791480747061845 -0.09797394284332805 -1.526233061791552
P 9.220080208271035 5.711319174477669 3.5800984855486155 0.13870201669030952 -0.2219013723276243 -0.635984478431253
Ni 3.656621730722753 6.46550387251582 7.366790889072791 0.447026650909185 -0.1564138321477758 0.21625394423385982
P 5.794814697657824 7.974981738863346 0.5904747236806734 -0.016827613080300053 -0.42564509990961535 -0.5701290133890246
P 9.076847374724021 0.4879680116237552 11.024897969958987 -1.407164503061454 1.3702493752026597 0.8830988596893953
P 4.063864471119195 2.632894011731302 3.730004310128415 -0.5388960235166719 0.5546178051273029 0.8759509357907043
Ni 8.36072939325025 8.559071673781753 8.959095501536831 -0.4321980705367848 -0.668705622813358 1.137904181833892
