# total energy = -340872.8707458481 ev
CRYSTAL
PRIMVEC
9.20851620136020 0.00000000000000 0.00000000000000

0.00000000000000 9.20851620136020 0.00000000000000

0.00000000000000 0.00000000000000 13.47759427177607

PRIMCOORD
 96 1
Ni 2.0029996424469756 5.488984800524402 5.769676954210293 -0.8338563206134993 -0.1420282528500651 0.8508783090927927
Ni 5.313525729986213 3.996974938870679 8.791165209695382 0.5116911809671058 -0.18468722517117225 -0.3240294465486419
Ni 3.272412038365439 4.755029213341879 0.8184510915094002 -0.04391598465665985 -0.8630031173807847 -1.1592083426283069
Ni 0.8782760596822485 1.9652078913454363 9.216612477852731 -1.133209861682016 -2.9550485674638782 0.6883059135427888
Ni 4.582268238094321 5.806512861314673 6.926485770494292 0.5399455478271089 1.1713375217916728 0.6790602265748047
Ni 2.1700789631064117 0.18719256207171248 7.439577855570312 -1.2375665681232364 1.0163498805674624 -0.5562286012578485
Ni 5.437748615551457 6.222028744588248 9.504669602915575 0.1229900052716914 0.47291894529491457 -0.22587578359434005
Ni 9.049872030594987 6.342991815365495 0.514856436808734 0.6431876810479116 0.8275851428928069 -1.3262585714440063
Ni 8.993718497890994 8.018066982062734 7.137558778017179 -1.2762344170070796 1.596216175848909 0.05885203714120187
Ni 3.8697777025242948 2.569654904577656 3.2843149665998075 -0.9998146019166008 -1.0755238198244574 0.7143542738904084
Ni 3.358833964312794 7.480657967860536 2.3126203502472635 -0.08776306374859724 -1.9060952990390978 -0.6618711163900278
Ni 1.9351881280435315 3.1059312712687706 4.835262095450212 -1.057138118228418 -1.1748699604249637 1.1221525754265902
Ni 1.6481494648890294 3.1543036076567788 7.525012628564918 -0.6866156703245594 0.7209355266523519 -1.8634139581204874
Ni 8.633343210522881 4.436893390472489 1.5550983280211097 0.4154141662102265 -1.2084822491627705 0.12151882004280362
Ni 8.30458075978527 4.289308498926591 5.58727189978909 0.39902081245386767 1.5554919586566696 2.0281977594995135
Ni 1.5489000756657376 6.965524354709659 7.989989294859104 -1.3292078838803172 -1.78953048056746 0.5399735728515669
Ni 1.4216383797049017 6.241790220675943 10.704027289847668 0.1237615933303933 0.9054720851782728 0.3756014050886628
Ni 3.191671767006205 9.043426069149792 0.31369087202711043 -0.58869494931667 0.004396329295482751 -0.06902640657104242
Ni 3.9859523447993968 4.107311381779705 5.309552255181069 0.21223273888960867 0.05024886885322314 -0.9408021279381346
Ni 1.5658805798156497 0.1923023677944815 2.858988330006647 -0.5863531885573708 -1.0056654042704227 -0.05328611301765016
Ni 6.1010564652946515 3.5935958801467702 3.8785819650067954 0.7381326072569289 0.9512513482959166 0.1827200741424724
Ni 6.249405663697623 5.472685726584411 11.851051136657862 -3.056621283402058 -0.8140917363920623 -1.1262902517440474
Ni 1.0722580608590206 4.106675994151535 9.719259342832634 -0.5873245513317046 1.4545445350073143 0.2733105800375358
Ni 3.1519462274711074 5.587552759537774 8.94699356507805 -0.2516001849436377 -1.1173875499377788 1.0221382051144654
P 5.9034877469994465 5.385453451198231 5.134869462571207 1.1750874757524086 -0.20834728779227343 -0.48925496345077674
P 2.682100097730895 0.7693973249114716 9.782523691862309 0.33723257550247726 0.6500029041975321 -0.5654094964261682
P 6.967264764299862 0.11351338104987158 2.618521738293674 -0.07525156154514782 1.05319507442027 1.123516288543336
P 3.4352093989219963 5.079021652610044 2.8371144202681977 0.31625674458175856 0.47751453508539693 2.0308010014503153
P 8.97205085891879 3.595050825730114 3.8278117309611748 1.1383834354631555 -1.5358633857924646 -2.1367595051610166
P 1.4842747079194898 7.9363690250030725 1.0592077514874072 -1.4913185093025543 0.048290973795903934 1.0627999444998857
P 1.3182451581239853 4.7913936444091245 12.431988807647821 -0.24680096378278138 -0.10828020986534256 0.2951870683956529
P 4.992894399185899 8.71261932778242 12.86422919831677 1.5869897721546347 0.1828563426100206 -1.075498880123793
Ni 6.740947057959089 0.9058500410415196 12.22408352974943 -2.682632474216154 1.1571056944630074 2.268142876702726
Ni 1.9576384909055082 2.905599998068482 13.530426680490683 0.22507334229770268 0.08668140064864427 -1.1686944277418712
Ni 7.797062589656074 6.646789978277502 5.52225609094959 -1.0341856231973028 -1.3447563731378775 1.8400742549532827
Ni 1.6693290524946678 3.738943102219551 2.6995483945114014 -0.0751147788569674 0.010824858529645874 -1.658485466201776
Ni 4.1539248915448095 6.534151406280906 4.590603787094593 -2.1635262317319 -0.9748684734942245 -0.10403351877384664
Ni 5.426412931924266 1.3508617230366684 0.7516119964325455 -0.5844603424100322 -0.3198727440677911 -0.06984890247233777
Ni 7.224550711126616 1.2501481797136826 8.291024902866027 0.7026053608845964 -0.10877257612072881 -1.8530765807502214
Ni 7.754758665542899 5.379937549904414 3.4530674746800893 -0.48349800636234147 0.44520296743688487 0.3456624514373854
Ni 3.4465727080982385 8.03779162408503 8.860736471573365 0.6081785119625783 -0.8671670189504872 0.13085321006985207
Ni 6.942935864102428 3.5087670275280134 12.804792829533906 1.2024622682209354 -0.9069566401435993 1.3694837006812286
Ni 6.0744530615587 7.381657208578702 4.05507146852458 1.3674764404432127 1.8105793308179594 -1.0851330607794472
Ni 8.043252274280745 3.581707685538562 7.968048162951297 0.8453177842858796 -0.5525822627545128 0.8547185087744893
Ni 8.56925193672495 1.4467960463738603 3.344168481173342 -0.25269727466255837 0.022040524739807204 1.2736278326221677
Ni 3.636857489960374 1.9872162454225997 6.380980628716929 -0.26400550058652594 -0.1182190662456093 -1.0521617480597492
Ni 5.8803375368948485 8.02654802562134 1.4637876007433923 0.5372734003115843 -0.4827680701748524 -1.19666083104781
Ni 2.7758980452748228 8.447340388763624 11.270409059042745 0.24252393367398237 -1.1355644779571217 1.0880103823272422
Ni 0.5395647278797989 1.924018197710645 1.4575212053670283 -0.04506063978406433 1.031504991041346 -0.007418918171890449
Ni 5.487308850548651 2.9117052444087164 10.974939999169562 -0.8607914544414467 1.68030770428319 0.26947115168678754
Ni 4.405915941470155 0.11367453008600144 2.6517571155050956 0.026714790287024958 2.345008319702213 1.6932442098392
Ni 7.415028871832107 2.5140630913710305 1.4648254005360686 -0.8151978249720476 -0.8313572083407295 0.6272000473704037
Ni 5.519207151186013 5.845768766515906 2.413163536017769 0.014448057104529956 -0.7347312948848637 -0.9006029300114295
Ni 3.2926707743360493 2.9984034258465795 9.509225055954056 -0.6611365522168485 -1.2103923217012895 0.17870915321086642
Ni 1.378653025381806 6.211503410399881 2.463893252591448 -0.47379209192848726 -0.7832449262145349 -0.2676595523993455
Ni 4.917734488734933 8.585330006272534 6.106792450129239 -0.08075449364124802 -0.09461711055595318 0.3009661369712752
P 2.7337967085213535 0.6503514672383532 4.762887761195206 2.5355921128634784 1.0172682786166738 -0.47193035612940015
P 6.1470069618825365 1.2573860735650009 10.020146693726318 0.08220433871389714 -2.0262362648977685 0.42124517106970677
P 0.41138218028393514 5.066820368445927 7.465549555084635 0.2611945135002921 0.07347364370911862 0.003919389659064218
P 6.973821227941259 5.7840901240017475 0.43421837998098844 -0.6865174541837983 -0.3575689730669842 0.7378333308489552
P 3.593227539492759 3.942046138841273 7.545336745001616 0.30388202506648954 -0.10248905710486218 -1.4140110936696422
P 8.80021073530626 1.9579147463960165 12.717444526841712 -0.06489412957022372 -0.3034693630091032 1.1951181691510386
P 7.04352048819651 4.204138931202873 9.993838883365209 0.03285921262186599 2.3884069984028224 0.10721474471530568
P 8.374602318112782 7.158958449163589 10.766077956422377 1.1151828289769763 0.9001964386016303 -0.8601551064090283
Ni 5.090062663714027 8.549508877669954 10.470824375831793 -0.04710260991475759 0.6510118050780207 1.7103885828289704
Ni 7.687352325858867 8.816841315834862 5.075999417543883 0.0007294219668568083 1.6354568665170868 -0.3031592879678521
Ni 4.499363965392773 0.9985715130240994 8.352523979311357 1.2125749311749052 -0.2593024386839018 0.8184075901585971
Ni 0.6029045867435481 8.161940841519472 12.602683391826377 -0.3731094919047445 0.7755863812280127 -1.2216049025876572
Ni 3.2820257294351287 3.8198030842913386 11.710371711523036 -1.3377058940489994 1.7595673585464664 -0.5731207490274969
Ni 6.124354011660853 1.415137167161606 4.195225087375805 -0.6805928611692472 -1.369026815649468 0.0011996767350559985
Ni 7.715383049629111 5.851496463685779 8.633073400993817 0.9296234856134956 0.6878212605968864 -0.13942115424452117
Ni 8.231861106167129 7.515751623671443 2.4677203119866236 0.4157247554721098 0.3757911525019657 0.271067806749946
Ni 4.695947372438498 6.563591033052743 0.09094699088188138 1.2114719279187136 0.21447654061846286 -0.8436938755292114
Ni 8.445029051159706 5.181843946177244 11.564207694049985 1.7155914671861485 -0.8967300773195847 -0.1944679587070199
Ni 8.153238793568459 0.16069137286724863 10.933658220371267 2.7484205763555574 -1.3300396357529933 -1.7874861964439217
Ni 5.161207661036272 3.551098577190239 1.761359885750977 0.8024055583033858 0.5181541629836302 -1.0964551706604857
Ni 1.3767100284318976 1.1443147012999426 11.559961647160872 -1.0295015874580722 0.9343311755018103 0.4840999016123986
Ni 2.4495482258209855 6.556997735345944 13.18972630915657 -1.0878784847350684 0.3786340212673995 -1.3341857967108828
Ni 7.876283455817512 2.0747155677829374 5.899008724646672 -0.8710498989446611 -1.0321081718429836 -1.2693528593958978
Ni 0.8778487845235956 8.53709579762978 9.612651428193836 -0.533383578338875 0.10430194194388488 0.19630912568081677
Ni 0.7979096540868361 0.4594589232970993 5.2146566524881885 -2.2872274041380027 0.22230246442078488 1.0268253261774896
Ni 6.138995552657795 3.6309732480125465 6.499031045772583 -1.0106736561182916 0.0818703524132461 -0.11483009516871837
Ni 7.999511821616926 2.582556035984395 10.721439673414407 1.6313418159074484 -1.166968703300016 -0.38063511085782836
Ni 3.7811825667182744 1.4630674947648006 11.937603823537389 0.42259474311906575 -0.484690741118862 0.19697709828211882
Ni 2.05756010182237 7.608094625632027 4.545924986614681 0.2802494732492141 1.0109176538082978 0.052284668336329304
Ni 6.892473194502906 7.5320322805787345 12.368010798600999 0.5301948961982481 1.5512992607315605 0.6499933911158354
Ni 6.919960615808485 8.133422066382662 9.274862789729683 1.6155205326044755 0.27596910070630537 -0.5703568131291145
Ni 8.360476454031456 0.27975012246325737 0.8758035730421989 -0.6532982871193522 -1.2528486910932872 -0.9990345292174665
P 5.7295572901754035 1.4328727696522403 6.40886585792884 1.06431586692378 -0.3909020400014752 0.32508231329318854
P 4.76998384389473 3.418459107680841 13.078334570273803 0.3517199704853749 -0.7987419934088695 0.9271089467217583
P 2.957913579454409 7.468456683696418 6.579545708481234 1.3926423981858789 -0.32407906883965476 -0.7932277484588597
P 0.1817466455021583 6.692252423498822 4.204604882130197 0.3333083007474066 0.3770499646097313 0.146694805087799
P 0.10227254514108775 1.3796199195985854 7.142181453225018 1.2651915289293567 -1.2501328348240213 1.660894846974217
P 6.618980258899663 7.3414252006443395 7.328643779950154 -0.27460384492766254 0.3667395838226587 -0.6839800324739252
P 2.7048359245997307 1.4648263213877035 1.6061116668983775 1.0226642528212646 1.8781342950497975 0.36480739979695237
P 3.809664507789683 6.493947023895594 10.91601562389577 -0.3259207500340839 -0.006514404079750071 0.28109408063769653
