# total energy = -340858.7357183481 ev
CRYSTAL
PRIMVEC
9.38435999679510 0.00000000000000 0.00000000000000

0.00000000000000 9.38435999679510 0.00000000000000

0.00000000000000 0.00000000000000 13.73495944095828

PRIMCOORD
 96 1
Ni 2.7864041177260783 2.4606542196575494 5.6232979681552075 -0.033156175036994515 -0.8762368424622393 -0.5166950619396005
Ni 0.896671827047958 1.8038991820213448 2.5255564521720095 -1.1121553550045622 0.6342978347574496 0.23099690687098928
Ni 5.689324446976093 0.38619737497648055 5.240710756401445 -3.5186696045310564 2.888485534831664 -1.8705659957842367
Ni 9.057587026615717 3.3102109297936946 12.132349999143896 -2.8890542628509404 -1.6037412805813605 -0.5742476635430884
Ni 2.7855126035431876 0.8952435274833684 1.6269336167174935 1.0199633089503337 -0.6316696531059831 -3.516199288613693
Ni 7.526622565596477 7.495288188157816 11.552776628846496 -0.21005372896041888 1.9071463660114318 -0.7874674489363147
Ni 0.8256753912664516 3.899257811329287 6.610319596241261 0.5180682881380433 1.1623654002000496 0.6698415361900141
Ni 1.3938683484102523 4.56601657653351 12.459709314921538 3.6159966578190046 0.23643401872616057 0.8970553218694874
Ni 6.350199218573235 3.3844599846887795 9.299020328574366 -1.4862367239042726 -1.4169984584327402 -0.9077901917884882
Ni 7.259693834879111 5.965928452667781 2.909998013426186 0.5591612015236112 1.1818579617070226 -1.8611336467267432
Ni 5.863394937275504 1.1244715310602507 10.407390175055625 0.07720817105088638 1.7463454605395536 1.4036284648837376
Ni 1.7201531549885158 4.768174455773895 1.640352312823975 1.388023925577261 -0.5997982583186832 0.8336999975412932
Ni 1.653542968986833 6.177883603560147 6.238102102088493 2.494335677316853 0.403078527463009 0.16865356874707726
Ni 2.936957402316808 2.7245424177932667 3.1306233743561616 0.8758704602617561 -2.9616431899622606 -2.6221354452723613
Ni 2.9595549407631383 8.576694892004525 12.524867740459083 -0.040817805347310346 1.2766905307078917 -1.9223978928538632
Ni 7.201388807318043 2.085551973296142 5.669393005154596 1.5665656999723276 1.2314925940150145 -0.4102501055107838
Ni 3.165795016525182 5.987230949458965 11.371763589152321 0.15175705010205476 1.1448338190741898 -0.5307790508364922
Ni 7.260350740066505 4.748176384997678 10.715341696289723 1.3469019587259707 -0.3796388083828301 1.1500940390318646
Ni 6.056309222093282 0.6428812000784576 2.2004090300039185 1.136884739430442 -1.1829409103585564 1.2554755871931733
Ni 5.0785903098967 3.501755098077767 11.965071908482132 0.24034878039953445 0.12252463559949868 -1.044961630766884
Ni 5.3955564471737985 3.071669887531539 1.848739530112813 0.2894295970865854 1.897530183077906 -1.1721849573936327
Ni 2.4602788452647535 2.738206045691048 8.619730627702625 -0.3252833735604011 -0.27160568153128706 0.21056846381330835
Ni 0.46932684956914167 7.461804792320396 12.250731821400029 1.7281572196663013 0.8582337210165992 0.21488791712426863
Ni 4.896505576311092 8.400831988979512 11.207246377149573 -0.6118060814128367 0.8018645981982513 -1.3329136148666787
P 0.7353865885671854 7.177036393585391 2.5047212964998575 0.526019681774636 -0.9526070909928627 -1.5140948837671213
P 4.409213308302724 7.148686242569459 12.9940134718837 1.441409283176937 -1.4407528805398608 0.8043757946558792
P 7.952785113737986 3.239499778550713 7.821235157782563 -0.8396721559643282 -0.8630018318292041 -1.6728111387958287
P 6.9080243349880055 4.877370866638306 1.1223056208138167 -0.1827676395509562 -0.8698252825089406 -0.7730584725998363
P 7.8755706011398114 0.041609313005475074 10.309748726437462 0.21668306135147844 -0.8945906623790786 -0.28178159362302435
P 3.4666294392718644 2.9462009967394143 0.7330414370481912 -0.41839407477415685 -0.5853414594634049 -0.16575490704304355
P 1.540311283399864 8.48664257517272 0.19379453776888622 -2.0219751756285693 1.0207043008814163 1.93620394549902
P 5.556685905281561 2.1599605623081657 3.6762713454686233 0.4199825023071993 -0.36688819358538105 2.945893126216856
Ni 8.523673259022063 7.91109978741797 8.664739894270852 -0.8698029139114375 1.0482960944567559 0.3613328109847906
Ni 4.84250796990736 5.013828842779539 8.10089283415965 -0.41593969969639333 -0.11484192224326027 0.5965949208900371
Ni 8.064243155318993 1.8152542574034294 3.277106662092999 -1.3392421281878677 0.17850680739207322 0.09848122149704974
Ni 1.3374214240935263 2.425387795454348 0.2410907728252235 -0.2133303428291616 0.8531717331126597 -0.06411894196709603
Ni 8.958422496398784 4.044621544939609 2.2960178262850888 -1.1044988669005686 -0.6941137784738175 1.9690181638155637
Ni 0.5860129180058177 8.160113775239138 4.33222589721219 -2.1695626677339668 1.1825218205432666 0.690951578695752
Ni 5.173710181031254 3.216714552907985 6.001765445948032 -1.2785419820943336 -1.1006067309350143 0.1954940859786891
Ni 3.933782871106716 0.38947345498960934 7.174401265347962 -0.2346761554947894 0.78144746799448 0.0454056818283089
Ni 3.6431398631244503 1.7227150852193498 12.043705336285077 -1.2037856150180495 -0.7555819130816277 0.13893187331292844
Ni 0.8852444920952601 5.470687631891955 10.518602346409349 0.18335256552014875 0.9573613178483964 -1.4964136644372743
Ni 6.397796691579791 1.1106202159660714 7.606764060022481 -1.4725003481547867 2.169922622176547 0.9561518709213276
Ni 4.354633871590159 5.564334158534783 1.848423277186882 0.4224255645310532 -0.8120978458904854 0.6574884139412999
Ni 0.3114040272118408 5.840328180838178 4.285430786970236 0.5722877116032401 0.3082539288819401 -1.5155383010818673
Ni 3.3627351917057005 4.431482394155357 4.151034554681436 1.3305733967692763 4.348545086119937 2.4850108003715006
Ni 6.038300635598885 8.59775339544039 13.167801492952531 0.003449649111497285 0.08315487555262452 1.7536306813470572
Ni 8.946269750432007 9.158365666721672 2.3127886157192403 -0.2677973635287904 -0.9198671775576803 -0.15183186920404818
Ni 8.58014833641825 0.6460136993863417 7.18026555179942 2.004743128020999 -0.14652922604421215 -0.10703733859717696
Ni 9.253607534533884 4.847706905247587 0.28767004279132 -1.4114225070068596 0.1599521843183374 -1.101504560158935
Ni 2.446924901241029 0.2353165762280362 3.6056878215191928 -0.48287991316236833 0.21006427048338017 1.162457959913856
Ni 7.504447323342044 5.517252825318321 8.30095612428823 -0.35643691634506997 -0.2560911308354557 -0.0885765607888281
Ni 0.2637089568631576 2.4481542523774364 5.11238526648014 0.039938230955834444 -2.800155799946319 -1.176896246826373
Ni 3.880104332936862 4.803938251047551 13.406790169178096 0.10190413113566966 -1.018825595801465 -0.10941895145547607
Ni 6.846303400452492 8.364336213639904 3.904752354003841 1.1027374041247717 -1.1571578878571813 -0.7868149029539805
Ni 8.501451094968528 2.0546211233297362 9.668422514781163 -1.4020271818348886 0.24398329182832823 1.0262350008916585
P 8.594506406942704 1.448006720211282 0.8617179020267594 1.0930952530493174 1.9112184791982763 1.4681847514985684
P 4.553610452851596 2.2977041957447257 8.38409404480473 0.8888851273538692 -1.1578148047148897 -0.2912489096835113
P 2.4346126211573145 7.940163149780215 10.195652741311081 -0.6990754933544671 0.32353348074882987 1.1486321097743573
P 6.81597314951456 2.4271051333013904 12.156743704059755 1.3311696355923783 -0.5430432129158261 -0.5963249550581021
P 1.5630495872434929 1.0300085651130908 6.565132026836457 -0.8380209935141503 -0.21867206675704923 1.656836103523811
P 3.091151818517661 4.36038648415976 6.418731321466034 0.6880110080101893 1.6694777035472217 0.9043783378934619
P 8.458874254465622 0.1956273032417136 5.014276476742948 -0.8919344557031543 0.7301135936071942 -0.5571279731436662
P 7.048498817132158 8.088070044901732 1.553382758193009 -1.3298702000546645 1.219486570693074 1.2876313459901114
Ni 8.231904127861409 4.351133505377335 4.92337862909137 -1.5337211426384811 -2.769045194584444 0.44042740042511247
Ni 2.635494227462192 6.523594034965613 0.3562302987635792 -1.7214078167576095 1.6809579362726792 0.19147956550265732
Ni 4.277194134356305 7.926049072611077 1.5536436433960024 0.6109974694686122 0.9088865101764606 0.22590020907437222
Ni 6.073013382572713 8.767103552750388 9.009996122661034 1.2399844335361097 -0.25335213463773787 0.9581933268313886
Ni 1.5782522501517382 8.362431188596462 8.021848371396592 0.12127996455912014 -0.9340077307241205 -0.09349251003320672
Ni 2.166614073420478 8.610206440921404 5.715445812534797 1.9545729349245111 -0.5885278276111864 1.0115167208448772
Ni 3.9105565805524525 7.849266240564619 8.673929059406502 -1.9128778691785702 -0.47815731087571844 -0.16915930473890223
Ni 2.4170450995744526 6.822148058276058 3.9064011860241985 2.0963502481060345 -0.2550891719335026 -0.7910772777747602
Ni 7.9816795576234725 6.763157972448138 0.3128013583890246 0.027231067801811167 -0.4914190609816311 -0.8195478744106274
Ni 0.8279464063428686 0.8579209900436259 12.229814083361461 0.458435664077075 -0.2528296864753646 -0.29547888860445887
Ni 2.4083927198205006 5.262167156693674 8.36318944486991 0.17383537005833288 -0.17771285073586812 0.7417612051484516
Ni 3.2895371851104445 0.5526862409773904 9.69365330459296 0.7433815143606939 0.6703400730929875 0.47889084660763326
Ni 0.23598005046730344 3.9260783116945746 8.860861753275074 0.7655158843658881 0.9064743011905422 1.0342321601645221
Ni 4.446900897339461 7.433332644626805 6.032228954795407 -0.6453407228351724 -0.43764109592922695 1.4098029691255656
Ni 5.0385660152648075 1.3030840515124953 0.4928271634301468 -1.610628751729813 -0.04251113388933324 -3.6337138725931095
Ni 6.664152976348144 8.445933222273974 6.473149347189697 2.5012398606358537 -3.087411015089405 1.9094588161946922
Ni 5.719682850993484 6.364810666812826 10.518726219958975 -1.9241107617799118 -0.1998842446265848 -2.8523929028741652
Ni 8.914297236525593 6.570018462994681 6.432315182305347 -1.0073345644427296 0.906954069040438 1.58941612220794
Ni 0.9225107233760834 0.7341018697078405 9.34489577155397 0.05599142776395519 -0.08206884157729738 0.45208709615122783
Ni 5.104941592270992 6.496754765880686 3.9662856013429555 -0.9342018490127976 1.1994304233731472 -0.20868487363735028
Ni 5.999759069818537 5.341352384854029 6.108966741914731 0.8473895792132439 1.4065736635549906 -0.46260470785310004
Ni 5.6889678413029365 4.406163391361255 3.795573773423089 1.4532947217606134 -1.931462574159293 0.2722978225023053
Ni 8.31843730976075 9.192599811344685 13.407751127623655 0.4091237052158244 -1.0997284420951188 -0.36529128141190637
Ni 6.112784299489467 5.766942487046524 12.630311345831512 0.028064876557016182 -0.49148899498761806 1.9057122046680663
P 4.248534299466317 4.446272145231527 10.197095117415401 0.10149378307112843 0.9208156575138786 -0.36186271534633163
P 1.3057210566218884 3.933679643148697 3.9352721690101347 -1.4462195600813867 -0.5773846665101734 -0.9522319670416309
P 4.065192061664841 8.400175083792119 4.15553904739499 0.6371389037506704 0.6181225105491677 -0.3026162709801885
P 5.627678587319139 7.093600050426619 7.9968362371686 2.455668599763958 -3.4267840339736533 -1.9916672686736474
P 1.2755128023616156 2.60030287813755 10.835811538605784 0.3839052969686679 -0.3033181821432196 -0.7735109867562227
P 8.682203249459711 5.772929708611622 11.872594673072864 -0.05471384660311222 -1.8753497903261251 1.5995938340718903
P 7.565267359334845 6.306552561050858 4.910728512054138 -1.8314402334273685 1.7513850798459902 0.5926135676447859
P 0.5031809276194475 6.322759350459834 8.497146489119139 -0.14685035682905676 -0.5149829643445002 -0.5441973811249272
