# total energy = -381168.74884514895 ev
CRYSTAL
PRIMVEC
9.27747346682306 0.00000000000000 0.00000000000000
0.00000000000000 9.27747346682306 0.00000000000000
0.00000000000000 0.00000000000000 13.57852020008022
PRIMCOORD
 96 1
Ni 6.811660156094762 8.441489578787166 0.5321336101403825 -0.7145697323353241 -1.7633720770045371 -0.28759434365005954
Ni 8.489658220847659 4.537398873848066 7.309059833451965 0.6062972357794655 -1.8311252732901109 2.0642880774641674
Ni 1.621795130700034 2.2190881477448188 1.7305141308637626 0.04835885091936188 2.4139061711151912 0.3155733453614888
Ni 2.6274175859205564 1.286256749074108 8.924740181412771 -1.3736753701650728 -0.022141826204361868 2.4462156818811738
Ni 6.238850391437812 1.2481541656876596 6.272651938141046 0.40057658697676174 1.5637657686296875 -0.7237452281870052
Ni 6.5060045163942695 6.673147477750551 3.9789812537266402 -0.12686131530163958 0.9661578330941039 0.22365229358046
Ni 1.118334479949512 0.5498628618695042 11.136070505873501 1.594572726708215 3.2456891541394297 -2.940157252174343
Ni 4.185476474140702 1.4490392979172106 2.863153547098535 0.7399992281520223 0.9893131881646444 -0.4822160543261243
Ni 8.576458262280239 0.7655455642235708 5.542466536157337 0.46914430874383073 -0.013504205134021905 -2.6998470383222277
Ni 4.827041594404414 4.969636361058836 4.281769226389211 -0.10744974354424719 -0.003151915365420378 0.6553520843245876
Ni 4.757367768927855 7.331848091443718 9.437858682006315 -0.4588452408106678 -0.752889196740813 -1.0611138150467143
Ni 7.849623883700277 0.7950052533604903 9.505004395972572 0.3226042840663412 0.6290332439244005 0.2668231725409792
Ni 6.354308548302763 5.0549520067422495 6.0423330937001865 0.021944108371258982 -0.23227474514214838 -0.663654947763328
Ni 8.828824094585613 5.8397520393272115 5.532024739809286 0.9006808344372166 -0.042947450095803454 -2.534018083508139
Ni 4.070027594749184 6.313469110253786 2.6472407634033477 -0.36953154474549904 1.1331101028793582 1.3685293071877591
Ni 3.7476075605565278 5.070000068649437 6.687217693957975 -1.0936241289695938 1.3076736093529673 0.03768131660085769
Ni 9.038077507851098 3.041897988981907 0.20687281358275633 -0.361807436628364 -0.8762802941056651 0.9363674892055486
Ni 4.187916449653397 0.67910177777079 7.64400074578885 1.5372330124464815 0.9314309711358797 -2.9270533678025332
Ni 9.230594359044716 4.409629509738457 11.8600362896682 -0.057654417288674896 1.3237813135481074 0.18374388742129646
Ni 6.202621857684688 4.633485666186378 8.495238621117187 0.0881520716568998 0.9830764632263135 -0.284859975438032
Ni 0.8593797860125205 7.830002027390965 4.484333581310008 -0.04684447115736449 -0.6513853863673555 0.013263549878125544
Ni 1.840724948755405 7.213931404119209 2.2104879298730786 -0.43908091369954705 -0.599271953501568 -1.0088453446603012
Ni 1.4539378038894641 6.553533012787932 7.305501922390677 -0.2124541108717954 0.9573631176206091 -1.362218534478383
Ni 0.6285061486604089 8.375517465210095 8.96882951840508 0.9575112131626994 0.38085005508211184 0.6638364676465148
P 9.25531882574179 0.5550888626539178 13.160396653854086 -0.3894437102883938 2.63784077182276 -0.6753688937661466
Ni 0.002491001616572045 2.270374020878563 3.5916003505610323 -1.7549684263218746 0.047392373241034506 -1.0670216958907173
P 2.826994594396153 5.450645526103196 10.424433556522985 -0.02548888829972384 0.33860991546597813 0.5193085883030476
Ni 5.714756639773859 3.5475017360952896 12.951558871398369 0.8552023903894432 0.5151619131245256 0.16298454338675802
P 5.659138186547231 6.579361498823451 1.3009346397913468 1.6421394207435849 0.3632817071810453 0.16775393975094335
P 5.043791206203195 3.4970044482032914 6.859433577787039 0.28099277917314186 -2.178661801821758 -0.2788330525176617
P 8.17590334684077 8.547401215490282 3.9718125500055033 -1.7111321458632143 -0.510077813733399 -1.0911574125966563
Ni 1.7446752663108225 1.2792708115795877 4.556177407822381 1.6311186441530487 -1.2153784620619712 0.7615702694545787
Ni 8.442148279400861 2.20007860468204 11.481779781623256 0.8452617342369637 -0.7582376055369199 0.8779101163996041
Ni 6.897374733135765 0.7468690824570116 12.316233779765222 0.12711354052176174 -0.5765853105373295 0.1196552844715036
Ni 0.9479444028919248 5.054181976447369 9.010719166446593 0.04084428770987159 -0.4724245221569993 -1.0334070931600656
Ni 3.930243902544748 2.844241417506795 4.890493946197273 1.497436963495466 -1.1825693859517503 2.2395257271866655
Ni 2.7384782203785973 2.705032928655162 6.959031893819476 -0.1550488334794491 0.4132181870001722 -0.5959500882171865
Ni 0.8392884895475357 2.51972467431844 8.522762101548786 -1.8297993553898357 1.421051031235559 -0.8565288225103506
Ni 3.150277433618013 3.6442286741004297 3.1258294356292216 -1.4818347381818349 1.7197738806986123 -2.9280172743776998
Ni 8.72029621037459 8.145436124089102 6.795954321321225 3.214669308719148 2.7242858880908822 -1.478593348426402
Ni 2.7176781249433843 8.02569177449843 10.399598687892066 -0.17863561966045363 0.03152043920578442 0.8974890669727962
Ni 2.115570099187237 1.6377059976364252 12.99301433368325 -0.7764047633642499 1.0749903159184906 0.633105100000929
Ni 2.42481612110603 5.684048202712952 4.652870019175821 -0.6766755283927121 0.27648512111077544 -0.39889611395054525
Ni 8.181414166059554 6.5657607227717 12.499529750114478 -0.9022828888170139 -1.7728959573345726 0.3591337464509428
Ni 2.2954324766192005 6.200590091003014 12.763849606937368 -0.8578832796557161 -0.5021505884665223 -1.036221422680409
Ni 4.474924367754971 0.6229897629575645 9.989839591060413 1.5656089924860135 -1.5262364042256618 0.471722096773336
Ni 8.038485410361568 0.5939317884202635 1.984446000684508 -0.2637884994797134 0.4670249484079828 0.16463519161630358
Ni 0.9192927816909585 0.2633559273332738 2.5407038249908958 -0.33002088824538645 -1.834270503787312 0.8817760271129136
Ni 7.11058962755684 5.062494592642708 0.6958058686856426 -0.18178085015765466 -0.3378496402611859 0.303215080906452
Ni 4.0335764016336855 7.675068221071587 0.439062924414911 -0.5746842368598748 1.7026418490040163 -0.44812836861379596
Ni 3.608686673381296 3.6139377233439767 9.0019482430637 0.3832051855778497 0.07835205484734248 0.23034770332276455
Ni 5.938427246753134 2.3157037560687717 8.366228858809677 0.5249629583753476 -1.163587445532609 1.0353832430498298
Ni 5.001309655356702 4.955376884393393 10.444991509901616 0.41536582947079426 0.43952622876708175 0.7444372093187179
Ni 4.412422029241578 1.239646722550242 12.346228779119185 0.03917821286135833 0.6029368039476648 2.263009926351535
Ni 3.4967075690534575 3.8651902588374742 12.098895976150832 -0.27195612289217036 0.06815146016525682 -0.10890678770574791
Ni 8.977245114555519 8.368949014020028 11.519514049314443 -2.9346815737717526 -0.532271833331935 -0.4333447825467182
P 5.265940307539573 6.638755883737023 7.385791960715815 -0.010161513914034113 0.8136803598862568 -0.24686138470707164
Ni 5.373809491136903 6.339269763869007 12.482584444890387 0.5516818624274306 -0.0675757901674449 0.23639185263431545
P 7.510541507223212 2.9518601093214536 1.9667946797322178 1.0838220552775077 -0.34741722934496294 -0.4201347116143474
Ni 3.191423028290256 8.651568687188126 3.4866925364832917 -0.6025603944448525 -1.0048753042689598 -0.0484408691102069
P 1.924964407520672 4.34836107519156 0.9994037647788528 1.1003043692032468 -1.4118421110427815 0.39190374179311216
P 7.862825728394436 7.970462975155959 8.789321540458232 0.2649069293548728 -0.5889834270913662 2.6795844314184496
P 7.104253113202581 4.230314503238999 11.443813577096263 -0.08044030483493887 0.4069824905031055 -0.42203372840927317
Ni 8.003240288792268 5.850755122817917 9.922272679800328 -0.41048330456751236 -0.4181477630913057 -0.511419415362958
Ni 7.593417177393931 6.570649951270522 7.267088543644247 -3.894733808188751 -2.617519286656589 1.8821066494339844
Ni 6.809155238268041 1.9872626416185537 3.8490353943498135 -0.742483685136773 -0.7742162403533633 -0.28240868568406197
Ni 2.837969845466562 0.4154684539818905 1.4009365259180881 1.1948042374550456 -1.5576295738249626 -1.943693826118162
Ni 1.444753105191489 3.5072931662397098 4.9175015991060365 -0.19164822987003768 0.5514772026157921 -0.11358670967992052
Ni 8.299358685804359 3.4502738145248055 9.62123722186912 -1.1143960714096226 0.5124026052118337 -0.6928102291710456
Ni 3.801444738884154 5.3277653904924085 0.6200404541534369 0.8080280466964858 -1.6143820481246585 -0.2290906909872119
Ni 5.5837865473301065 3.641770143640871 2.4717527146947122 -1.1788382010440923 -0.21778220795292813 -0.9016259719593053
Ni 8.2063891245393 6.840503820995777 2.1696846739704885 -0.8016478542017549 0.4849951597331583 1.4524534568062406
Ni 4.599715662892813 0.48391394197601306 4.839574533264106 0.06436165410552142 -0.21175245681908045 1.4872366259236967
Ni 9.257211430321979 8.007136827633833 0.501858431088764 0.14958343948950367 -0.5818817830495786 0.9385804376964674
Ni 5.851181886595803 8.676209656624309 2.8829646638658644 0.08790627419468086 0.37170232714457274 -0.12210168912946713
Ni 5.781480228698947 2.4148706695866067 10.888371242704574 1.1727498287581675 1.1490769106212597 -1.4071213085283443
Ni 0.05409045335232772 4.586708645140731 3.1081771869295878 2.1940094879224215 0.4907423466295806 -0.4483373993008085
Ni 7.966482939053503 3.0823941605138883 5.58037800359108 0.13858451727583876 0.38419326052273184 0.056975903164411555
Ni 2.919231235260061 8.237041896759614 8.079219085213417 -0.3244616489900541 -0.8606796114539307 -0.7224082545431365
Ni 7.2684643929542565 4.652161220205594 3.6613261298888125 -0.6373831585509926 -1.0432209939266937 0.9412502712191467
Ni 1.815369613864934 8.488730473504429 12.790165160328083 1.7328805932838998 -0.4897933524527501 0.9163200836363703
Ni 1.629022282503794 3.5022091107988103 10.49945491768592 -0.23039604006219677 -0.7797752224983797 1.0038211519728326
Ni 6.19830783253867 8.18382630915195 5.761026183022759 1.1418960766021042 0.04195423294459871 -0.10558646508326332
Ni 6.2561899892827775 9.04559226133126 7.979906515362695 -0.4075478760882723 -0.6985124217621455 1.0946497420206307
Ni 4.0921450914117825 2.8938573454227257 0.751937366193076 -2.320100243606624 -0.9912510286173057 0.785564575486647
Ni 0.21953099833378392 5.434103790973409 0.8380842734960233 -0.07641961371132 0.839610192378141 -1.179559138370517
Ni 4.099288745954653 7.271405352032295 5.424605513673422 -0.30394424576299267 -0.2795300785846863 0.29862334777071153
Ni 0.8238971611233531 6.569573764352375 10.661473930465545 0.8343270896023308 -0.09441939272285028 1.1709423432357835
P 2.9638651599428476 1.9095638016230572 10.97269327098339 -0.06252640066899555 0.17973785158569688 -0.17273056702992834
Ni 6.622650189858553 7.554015747726961 10.667461611818752 0.4271440530526451 1.3652236398532938 0.8378677557657376
P 5.204718260359838 8.626788555650457 12.079899421550861 0.41686246862097887 -1.9164285626443058 -0.19261187933488766
Ni 1.3139407297960857 0.7705136512465666 7.1860785733807635 -0.5716817025881251 -1.8822930544131777 -2.121883102269816
P 8.338685895683872 1.5531511047744602 7.408766695923559 -0.27521165371499057 1.4769427001968563 1.7857427313902536
P 1.3381271030340867 4.5271750981256735 6.734104189190123 0.23313117960517268 -0.0856519309428654 0.5559961735320683
P 2.408292940923107 8.72881293098544 5.65010378291886 1.0223570059934908 0.1706477163589706 0.8724202969296264
Ni 5.969952101476084 1.3403258642375413 1.0137550884312747 -0.4735426949218426 0.9003381063858172 0.29342380584764305
