# total energy = -381166.47248703596 ev
CRYSTAL
PRIMVEC
9.24841498200468 0.00000000000000 0.00000000000000

0.00000000000000 9.24841498200468 0.00000000000000

0.00000000000000 0.00000000000000 13.53599017027526

PRIMCOORD
 96 1
Ni 0.8725722069285033 0.3766287418647034 5.616880407507061 0.762286578795313 -2.5847912002959483 0.03554215877066782
Ni 3.344365490511761 6.44864213478184 7.069035042899644 0.5910235974498467 -0.7017152449701592 0.5082875546021957
Ni 6.61766616228234 5.950171077973902 10.603742156851313 1.1578921949200445 0.5261402665129004 0.9575258684507186
Ni 8.297058046815778 8.010976834150373 4.323476660539273 -0.6756409164806106 0.7425163381469212 -0.11139150180081461
Ni 6.868954838755093 5.986600583572745 6.403632874843305 -1.3029276100275498 0.9645694055610614 -0.03578949889478353
Ni 3.327894063887861 7.220089400590915 0.7600874380032698 1.1830614950968206 -1.8756305547913374 -0.4628376497995126
Ni 0.3287071561294996 3.328550701333283 9.245149109016664 -0.674861872222741 -1.1066197698983136 -2.203738285174411
Ni 9.037791327325598 3.836501383233584 6.665798611873257 -1.2032359131621666 0.06683171291256877 0.2484834936915269
Ni 5.599147497114773 8.52812968870131 4.566406619784245 0.560882297979776 0.12380993006982546 0.2725983844618596
Ni 0.39029974851009835 7.320564178155229 11.076757876972211 -0.5166554669509167 -0.19887354397388332 -0.37509515487620565
Ni 3.362982549351688 3.8636639772787236 6.142036840160368 0.9413320322996755 -0.5187432027178808 0.39999037545598853
Ni 8.102582381994127 2.66354344058567 12.955228362335562 -0.5807378992531225 1.3960491098745826 -3.499438524215586
Ni 7.392359621659627 0.4628276664606572 2.694744817340892 0.00065254598233436 -0.6075701889546181 0.0007538474468890244
Ni 2.1425247486799956 3.3114226372639615 1.6539892638103244 -1.6865246317271794 0.995478179324776 1.8422175265485305
Ni 7.036961540635925 7.70449361860326 1.368258566062969 0.19028066009854974 -0.6661370907552334 0.6654914867514345
Ni 7.318779234113448 7.736049209642421 8.410668347812953 0.3389171622937518 -0.28060762791958127 -1.1494772313834718
Ni 8.770234689352877 2.700037685087583 2.99458027238421 -1.805868298495535 0.4896532273304599 0.7228024046577616
Ni 0.8345057319234666 6.8350224051318 0.09797400622287623 -0.15219259497757662 1.102519631687011 -0.05347663176190145
Ni 0.05955054240948309 5.940441745683985 8.458233869581273 1.2003228532804295 0.7728522701263013 0.46885223142470867
Ni 8.612327256350934 5.804443807163803 5.042535356301327 0.6699531220672139 -0.09621196584689881 -0.1883983554741723
Ni 1.4350395191038752 2.194066163938273 7.0638106134219125 1.7122081525362123 0.6216390083428585 1.3755733585187342
Ni 7.45108705515865 5.574574459192425 13.36643785169573 -0.48547467047273807 0.00909553454336498 -1.1913571594467096
Ni 2.521959459572038 0.07488163949788193 8.02299792360896 0.0623263688430475 -0.01243873998398503 -0.624091326538093
Ni 3.6070574623395224 6.822019134029496 11.778111407586149 0.7050875038765018 0.37449840183247113 0.5012959537757108
P 4.1589103689358655 4.4505868725094455 8.27406371328686 -0.6957176326258276 0.3278616758105386 -0.5702408563765404
Ni 7.751133374057682 1.9155501545173095 10.71362719639756 -0.41814262088498305 0.4109579302110858 -1.3149549735057289
P 6.804780088983484 3.8752614893429405 11.61019718985256 0.5760291809235434 1.447149528094824 -0.27911227432097735
Ni 0.796453129540516 1.0262873335359417 2.734120867870883 0.9833070911798807 -1.9273405815711195 0.6657717369960147
P 3.108762125411344 1.552531379760821 5.935409683232517 -0.3615721806891063 -1.2953078886987628 -0.03361126029654211
P 7.65503309665794 3.4068015383152117 5.054121770267875 -0.6782976373771673 0.49416422782693603 -1.1273276918696264
P 1.7961346235977187 6.895016871448046 9.147987113606577 0.8959104096317667 1.3723455956100559 0.4269566196321873
Ni 8.664654786860773 4.820689932944713 10.652796673390238 -0.0004861956077991627 0.331077611644675 1.3488940494553348
Ni 2.0317564855275836 8.536000089631651 1.8518859172384776 -0.7913007066394759 0.3594764745023422 0.47645909723768914
Ni 6.659191544394249 0.14760192447470527 13.17725875398666 1.3016479719841776 2.8566591343496865 -0.46228203440635873
Ni 7.250692404913477 2.3213151021293084 1.3083972769187509 -0.9553178050558063 0.3466726378694545 -0.00030133329050270683
Ni 6.568686557902682 1.109893002643214 6.683922730208381 -1.9599275143682051 -1.5952633250173365 1.5759306861269957
Ni 8.661195879753901 1.259023690071839 7.156071873869615 0.882798811950473 0.9909748921377836 1.8912276378986463
Ni 3.288921244239847 8.389366474178575 5.807697399463796 -0.5175227000472183 0.5132564685716967 -0.4675980473026334
Ni 9.109235331070474 9.096028594844237 0.9116393604067047 -0.05978817580222607 -0.4316645666308179 0.3267661287535147
Ni 8.557271443497438 4.575384980798553 1.486224870395269 2.357107159848276 -0.9084869607451967 -1.900096915363818
Ni 4.567551573527108 5.219250365486517 10.302323373207201 -1.0537414338420434 0.4704062061753898 -1.2250411819627158
Ni 0.9446423283502116 7.343925673748699 6.820351644854712 0.37805937971085213 0.46124459428077985 -1.0325779123905507
Ni 0.4911657340172494 4.6863937027337945 12.982422400990764 -2.34105499148142 -2.2900095948688306 -1.1002115523791245
Ni 5.220461907815395 4.22552670019468 4.677293262645128 2.301199035826746 1.3392231020244743 0.24505724161879733
Ni 2.860738139336252 2.1350520295827966 13.130099237624735 -1.234280698283113 -1.048444189998846 -1.5164998936641882
Ni 1.8426541496607254 4.516084145586625 7.804635453237502 0.9826943972965463 -0.05717902031415314 2.5311284206651696
Ni 5.2322628850035455 8.385916815486427 7.125602046719083 1.3436443710206214 -0.20249751387971576 -1.8436393465967218
Ni 3.994815746483395 1.2601982387418194 10.562011459932526 0.15935414572302234 -1.6629422164215488 0.5277793447782201
Ni 4.359665707355286 1.845280699442414 8.00665967415709 -1.0806071478846357 -1.9057628554003438 -2.891304749448014
Ni 4.410735453462627 8.995868263380546 13.278007284626813 -2.285157666093168 1.1653663918099026 -0.9400346536444907
Ni 3.2477473018874603 0.4449495559571983 3.8247290761310793 -0.7050067712372374 -1.0310565906500178 1.4537287239742382
Ni 9.076791892217784 6.90467221642017 2.381278123835493 0.9334233189755601 -0.8302878865359506 0.18745013262829008
Ni 3.4849691395646216 2.6763339981493157 3.991032220019702 -0.9953473101738664 1.2219167774011213 -1.6728332502830159
Ni 5.019059180365277 8.801531324779758 2.207300645408683 0.8957283755279477 0.4803082957804502 -0.6520433316663287
Ni 9.199287145240552 0.37442669431885817 11.983628754747091 0.7872455627334958 0.4682567639325548 0.20182928416809756
Ni 5.117203357419078 1.9543380058708384 5.336889275937579 -0.06954911184373183 -0.9000586274721855 -0.3459846106634945
P 4.924540381883382 6.502199704450007 5.304375549132986 -0.3684812491041138 0.319778641692088 -0.07422286317031733
Ni 1.8587463912809303 5.37624220543076 11.247108127144168 -0.06309050070258167 1.194996813081826 -1.5807548469885162
P 6.01599204556643 4.657779107576948 1.4385233969305025 0.27666689810427836 0.4834383567689997 0.21219494367313776
Ni 6.053161424343214 0.49433794026766914 9.200074185333586 -0.45529506156556426 0.9358830933699623 -0.3887387138015692
P 5.2854782633269135 1.2854279141095892 1.0177112785621394 0.6799050910736033 1.1379226937766531 0.17028827613702285
P 2.0406349636628693 9.229732926512803 13.12890804180825 -0.5049829157089948 0.03290652092003365 0.6644933845042232
P 5.418683180600369 8.6708419763113 11.251439159759537 -1.4016294321758378 0.9269829626668552 -1.2810601205304968
Ni 1.4196779022468864 1.1105773853328091 9.848150373245506 -0.6829269086190626 1.0268345821488702 0.7657945919485715
Ni 1.2370124630281103 2.270282349680865 4.592205997499029 0.3202918338830807 1.7709357482844081 0.3184519524608645
Ni 5.507310738902913 2.3386096376636667 12.115482478629332 -0.44243980286945084 -0.8372936284298225 1.012313762824876
Ni 2.5253443793611154 8.65541562055124 11.046612669178499 -0.6686444305581194 0.1777298200167326 -0.08612707080707102
Ni 3.6105626115200153 4.900864440189287 3.2973668965660377 -1.1256693303305967 0.8422717983707043 -0.8649995789855232
Ni 5.596326730623875 6.271007833173059 8.547192521130945 -1.173826606762114 -0.6339041988634567 -1.610588899630813
Ni 2.939358912907151 2.9272897316919972 9.484085602783702 -1.73304128723148 1.5860657176784685 -0.18792013028617313
Ni 3.7461443713776053 7.4573852255858695 3.3432408832812914 -2.025061527863377 -1.6664458586994335 1.4461341994564318
Ni 7.450578392348818 4.764755520692415 3.21739677928687 -1.7683551320414255 -0.2060024417091807 2.6548720162734343
Ni 5.864900694216264 3.658635871256697 6.954683019041584 -1.164183427245395 1.2892118031033537 -0.982605694237482
Ni 7.935195323899821 1.1770364935413111 4.894573668493848 0.20027068143172605 0.6944691049307072 -1.3508064359866994
Ni 5.284849371125664 2.9867200447100646 9.57615819557103 2.8188909144619774 1.2275796321138537 1.7649743884946507
Ni 1.4878757124235487 5.19467732756417 5.8282316546760615 0.006657614525833695 1.4605881700982328 -2.041573666585787
Ni 5.775320549197121 2.408499907734868 3.0618273455272185 -0.5985170776134144 0.04772635954168555 0.20199537743231663
Ni 3.611089771159298 3.8946646634344293 11.687433475739239 -2.321674787182595 -3.1323443852669857 0.10290120494161632
Ni 5.686471028941197 6.383283587925526 2.947895199697639 0.6999807787775557 -0.4971886164755566 -0.2787212095301458
Ni 7.454915898854493 8.554533912739059 10.547852136989691 1.0542237727951005 -0.436487441940758 1.5624444787151026
Ni 4.301816873255067 3.283899355044576 0.8872688627668184 2.2787918717761397 1.2737386471684193 0.2923233736946127
Ni 2.445354840411027 5.004428188271504 0.12594583655638789 3.0246061639480426 0.4530281199082584 0.05247004487425802
Ni 0.19325857344393887 8.812083765980134 8.5629074274304 0.12908274843299058 -0.8040304955013184 1.081195673398254
Ni 0.45301232391380447 2.084731405068121 0.6462810706139401 1.7751675269775686 -0.14975930294573564 0.8448251609201773
Ni 0.7557471569731765 4.445093314163237 3.71849901008386 1.0526021780312775 1.000989081840676 -0.9075369381271016
Ni 4.244402714646887 8.082735283995873 8.963153845976436 -1.5417812939387963 -0.10082092537381991 3.3238553182282105
Ni 3.226919871928436 1.350823454624802 1.8453343402478148 0.40211025001246875 -0.39224184185882127 -0.9735795794794717
Ni 7.497578835977484 4.932984184526627 8.407054067338713 -1.7357879967386813 -2.37723786915988 0.8608171654730593
P 7.061784285755827 2.6128528794820243 8.163867002164407 2.2953644314228403 -1.2594872794557277 2.6091788851116933
Ni 1.44461162834348 7.675851278202241 4.18153754040023 -0.05411632222842938 -0.42752303365861855 -0.08760545512481042
P 1.2370587051017312 3.3338407945555577 11.096100936367993 0.7594380536029244 -1.0510551452591317 1.1694009668905927
Ni 4.977996218989581 5.142645746325507 12.692576158691114 2.078543301831601 -0.2247606961532903 2.361253577916482
P 8.127173916745923 8.453226777849562 6.411510674505426 0.055095398312247044 -0.13369556461465362 0.5978084815821639
P 1.882440829804474 5.624090471626091 2.1888232376310923 -0.6015239827605383 0.9490419993494235 -0.2785872550554428
P 8.144006031544068 7.915403716389914 12.968263078047928 0.7915099944368046 -2.228425503508446 -1.3224430543526577
Ni 5.881436859743232 7.260079545858597 12.773168694281225 0.16439325080882655 -0.7807463281623973 -0.3597225290748773
