# total energy = -381174.33159171155 ev
CRYSTAL
PRIMVEC
9.19538508779114 0.00000000000000 0.00000000000000

0.00000000000000 9.19538508779114 0.00000000000000

0.00000000000000 0.00000000000000 13.45837555975230

PRIMCOORD
 96 1
Ni 2.063159296196697 3.847266249326031 9.036895004208736 0.5421659525171952 0.3183259684059615 -0.21823343655773383
Ni 6.141266485990091 1.887683767717622 8.065603977130154 -2.293476213261192 0.7100394485651385 -2.5132811080711037
Ni 0.33809774805975595 4.928340056206469 4.4764034441017015 1.7502082859290697 0.17927916678172348 0.17628923091546414
Ni 6.6227460304376535 1.712392146934904 5.330055154590053 1.1569853668350591 0.5750555041563644 -0.9705695890085543
Ni 9.005178282895 0.34959657677448025 6.154811287826787 -0.3049305209356619 1.697633340045831 1.0078251309259032
Ni 8.72829605064465 4.152341531427916 12.749321050104262 2.078347126660395 1.510436718189244 -0.8677874261433054
Ni 0.8495496493211084 1.460300672153484 3.3579320071670584 -0.07221637426324981 -1.495996631504514 0.12969030011000243
Ni 5.685791489807414 7.498771951264804 -0.22044371885381792 -0.563847808366003 0.7381603751710706 0.6713394608917793
Ni 8.962438134261621 5.289203737998263 9.055817267086912 0.6867090013693141 0.26701086307175304 0.9402897070780902
Ni 2.827424509947671 -0.10680991189024487 2.3746492787475155 -1.3910197749807913 1.8719338226660407 -2.0358938425921904
Ni 2.419894250205276 3.1690514467005184 4.22774644554975 0.6490456824905854 0.47183008310610997 1.1635331952559058
Ni 5.088174235110378 3.3590464878069817 4.6259259184708705 0.19536604504125707 -0.540073845874857 -0.5106691674604947
Ni 6.382222349757092 5.831050983775027 9.14374077809977 1.4160569204550773 -2.2105056858052317 0.9769217564788273
Ni 4.516515551754137 0.8822217711174192 10.560907739149672 0.5513630456354311 -0.9808257195189237 -0.8903030907473184
Ni 1.5914544458105109 4.109242762786642 6.733615704724981 -0.771896076860619 1.1006890062361754 -0.32808690444746724
Ni 0.8485399960681081 7.472509932225019 1.5532448632768894 1.5995136156532581 -0.27646455228548517 1.622089186960929
Ni 4.700294512723732 5.68705125752746 5.6005282036223605 1.3799043817939203 1.6431758324278989 0.9083398936443712
Ni 8.185851104854727 6.42170733216495 3.378308060384937 0.27519519865475833 -0.36821076905154654 0.1283291580964177
Ni 7.437153677600376 3.4916623276500474 9.056342323560012 0.06528596569200369 -1.4878639750950506 -1.7464210509724956
Ni 2.0016881486893543 5.460320654073676 2.7564775183855317 0.22102539748057418 0.7511629580783257 0.8949930400238199
Ni 6.8040330421216115 0.9990601696900138 9.876024443454254 -1.3560972520719934 0.7187757999968718 3.665221456283088
Ni 8.610585929591322 0.5211576299365954 11.28751233484065 0.14766848185497794 0.02828059211224807 0.2796164676509056
Ni 7.448647908622692 2.52108946012574 11.559977104224503 1.2020598905761941 0.4079618236972393 0.3507416657325056
Ni 8.323597969426153 0.9466740623827095 8.351891248972203 2.052991935725058 0.42421736632415324 -0.6607683702441522
P 8.4640850586733 7.002064849558878 7.7237885349885405 -0.7521407486105628 0.20111991680589883 -0.2263982317567133
Ni 1.5126040209974276 7.757713987735524 3.836094776310822 -0.31079777834971634 0.32948429901562615 0.5297344116220618
P 2.6173099668597466 0.4432497320673421 4.492526631841324 0.5236756070224916 0.5173424657156123 1.1965423031920748
Ni 2.193614220607567 0.7822798921476283 10.394898859340577 -0.961651717693634 0.39184357797913805 1.721695008980725
P 0.6790414677206372 8.121602951132392 11.127129191463116 1.5496082461823828 -1.0368109766352918 -0.7437206428676675
P 1.386222652060866 1.361082469968858 8.503553489388485 0.7954928903439525 -0.18293373281517528 -1.7991790594008177
P 4.771797825067352 5.478647056015656 0.7509925953048858 0.8619286533696834 0.8229718124905115 0.7963097298182931
Ni 2.9754518147454565 8.49838384404389 8.890023559282554 3.145570397038957 -0.5960912417807412 -1.221620072096309
Ni 0.03961831548771652 2.687240868399513 5.171461433098074 -0.8054065499132387 0.10638453550452646 0.12833687140590155
Ni 7.313613682572531 1.3967237815228533 2.4248625166223614 0.11305500554616658 0.22846539869838717 0.3071426980956323
Ni 5.562159540931391 1.4953626744639545 12.595612836566007 -0.8322555517852827 -0.2851008878042445 0.3161592997719458
Ni 4.558943057303708 1.2755194142387425 3.596468565188482 -0.3277300353286807 0.22920253397472787 0.4263197573791368
Ni 4.742345007495771 3.927082189544988 8.565179119360767 -0.5462048984732594 -0.1498626612928193 1.0875290718154496
Ni 7.075885398876595 6.775003212251652 5.695893539568307 -0.3215876698763687 -0.6202827514252801 0.12264522033776297
Ni 4.123605953872127 8.247947538529683 5.773481438045899 -0.8192262294051504 -1.2275976298359828 0.3111813869413802
Ni 4.400405427659116 1.3226457614302354 6.093306117395619 -0.006724977428659386 0.19371385414981476 -1.5986916339725952
Ni 3.325777585535992 8.20801198226575 11.700872468557563 -0.597884329125422 0.04162924550501218 0.6392376952612282
Ni 3.5951196022357035 5.858085415139512 7.837215445793712 0.10586620110721123 -0.16498743274939973 0.4567515915064327
Ni 1.8352332927165926 1.9305066748143598 6.348100115775006 1.3602927782105798 -1.9408751257224446 0.4993722543904368
Ni 4.869287294906222 7.212225369570891 10.216441267565072 -0.035364238431906836 0.3316224284045514 0.12402281741157994
Ni 3.9863372493112283 3.3908993008160224 2.2196766997968056 0.25740753565403407 -1.0329988019780534 -0.357906558912061
Ni 7.3686940376314665 0.31933916303133736 0.15124017225314348 0.47512778002077527 0.7484229334393433 0.44293602577957913
Ni 7.33455157380278 8.088619105790755 9.400418910828336 0.3949013909688554 -1.5575436989793754 -0.197115423632196
Ni 8.432287417973166 6.4332475401113545 11.465054985826779 0.38489234347228546 0.30300502177817495 -0.19088975443745834
Ni 8.685583488165726 5.069121397767787 6.635194742404062 -1.109268006154438 -0.7883747912419325 0.4302478887889493
Ni 1.3114733688765448 6.896290337999123 12.78853844681392 0.44075753007102153 -2.732655085991184 -0.8197687321721817
Ni 1.4293857883958645 6.360677563128864 7.667774848370593 -0.4082868111368259 0.1863777254997177 -0.7545372738671973
Ni 5.234803841415849 0.24097149592119133 1.6492833013915018 -0.6101986277164007 0.21316039291020064 -1.2352572032637694
Ni 0.23759035292366704 2.074156976438848 0.6668419506827926 -0.5151228323564742 -0.599010215199749 -0.8027043204907273
Ni 3.412765925912875 2.621797314650858 11.522078325697727 -0.5775250487427795 1.1619442535022313 -0.05347020400399824
Ni 6.527132419101625 9.080626415325478 6.683348214079709 0.1692726903883149 -0.7195129352732125 1.7615450510981274
Ni 5.537736598855175 3.295984538726151 10.718586519852277 -0.8599905558067061 0.6872234791118874 -0.06030625308922518
P 0.5530977991014053 5.316541617061739 1.1947885332304085 -2.4703845658178936 -0.1574175908219418 -0.11812753497306752
Ni 4.209003492675522 5.139089080846825 3.545959235922502 0.12242564812778915 0.8563480739581122 -1.2660749599755743
P 5.283943977882452 9.023063306365723 8.707366435260736 -0.7333513838182014 -0.5655992438394711 -1.0499032910428756
Ni 2.0661937731865883 6.644263230911428 10.09675597785287 -0.1356974255360308 0.40891416030817956 -0.4573475732192188
P 9.144773419814815 0.15237672181663 1.7300206191692087 -1.1133252069429471 0.5928593651070048 0.30659299623974945
P 5.987326548754426 6.475123322571854 3.834385354273183 -0.0697026067024606 0.09374859190807079 -0.5592640456500626
P 1.4158869634832574 2.749751094391273 12.350669853941987 -0.552554751950687 -0.1857228655245382 -0.09545529018653237
Ni 3.04530915320668 1.9899456422769568 0.3728277969783022 -0.5876515956538202 -0.5643090642731378 0.3678063345242762
Ni 2.3856690279132295 4.646657833081201 0.5003714625558404 1.172911551147012 -0.4877624380656503 -1.6938926420564762
Ni 3.8865489332678957 7.494321385012964 3.336465381309782 1.5609516962196601 -1.3074794910642902 1.1454318576695046
Ni 7.220354089749873 3.1244354395642993 0.36665033745766906 -2.2507159394755307 -1.9559782999124702 1.857546700706433
Ni 1.8593160055545475 8.595459521565955 6.469508620602072 1.125537689848739 0.08750775320468156 0.008007700795824918
Ni 6.1026550651399285 4.286336678993659 6.783855609215798 1.2577661829995628 -0.47442484041647975 0.38628973804044436
Ni 7.469631776777031 5.365562213525709 1.0578968394470416 -0.002809187314020968 0.14096741568571852 0.5660250185229799
Ni 0.46434210576253165 2.3852552355964263 10.070013959725593 -1.349533739921863 1.493031635338919 1.230599906997416
Ni 1.6456336531572966 3.139138859888045 2.123651135220938 1.2099621761424064 0.6311014393073389 -0.839222212911103
Ni 8.242586629180876 7.361540028243176 0.2732564920166706 -0.8992456446525868 -0.014747076402187505 -1.141757237031395
Ni 1.2561631291971636 -0.08773408608561033 13.092051433035254 -0.031136830614120568 2.089752026063227 0.5080402144780799
Ni 7.410054878542166 4.037187727353952 4.753956019905273 -0.8053073053312131 0.6361832247056204 -0.17302572967284396
Ni 5.580182495174381 6.990349929300934 7.502707575966845 -0.6175280714982785 1.5531306575133446 -0.22534896455659253
Ni 6.429762489265388 3.8500340601562044 2.618232263956977 -1.2711600878079656 -0.14491945835493106 -0.2903713921745644
Ni 3.244251303740914 7.052041766043905 0.7946955007286923 0.14994005149797404 -0.5028499285263921 0.8620368968127734
Ni 9.276580065793908 7.3445745432542395 5.599114872975857 0.18956357942686708 -1.3849249749369632 0.37951848075488187
Ni 3.728691762099826 3.7286273944061006 6.36918973085475 0.11811956455326754 -0.46390620027334295 0.7768151114287911
Ni 3.7048573246519525 1.7815874176892423 8.107783207289643 -1.3362069409059698 -0.12652192968434983 1.8792570958003314
Ni 3.8587972618876174 5.665276586278786 12.203906914556654 -0.7453581784710905 0.5807736375870644 -0.5177029343788245
Ni 6.262185796344848 5.529846958681458 12.232707779344649 0.41107748650808557 -1.2356073875143365 -0.20080058579326707
Ni 5.961322000489539 8.615247989693973 4.533238278583883 0.3590854097115106 0.31106748707133525 -1.8564814926667124
Ni 6.914340878396568 7.971019329355244 2.289363923638899 -0.24351997903866443 0.44836696698716333 -0.577611952029631
Ni 1.5795923993954812 4.75887830939827 11.413873473930613 -0.016745337779138905 -0.8482321297191973 0.09456234605861778
Ni 2.478983793044794 6.070581562895261 5.351346148597309 -0.841165709790719 -0.06717984028060689 0.026026505970748726
Ni 8.704976554746576 3.570807004777302 2.636697516209706 -0.4611144964608187 0.6704696566923162 -0.051531849330704795
P 7.579893636127897 4.609057904561002 10.715100549467827 0.04496936562183868 0.5905008921771573 1.5113044655061778
Ni 0.7779341532827112 8.370246156607118 8.751187041610212 -2.0069301083699886 0.471008358535763 0.8472911059621665
P 3.5057864387302686 -0.1283206755946467 0.23155910002163774 1.0115221201615159 0.9650592007132862 -0.45488214239786173
Ni 8.363680651847172 9.08176664304289 4.141491896881332 -0.7785608904753044 -1.0169836574967195 -1.699632886974363
P 7.906890715635542 2.5188917631542735 6.932019005708888 -0.11859984662379575 1.1573502063736454 -0.963554848253618
P 3.5443242965018875 5.032441007729374 10.203991636060183 0.9144894581855347 -0.7917475643689075 -1.0121083316822892
P 6.596033437541792 8.757482202056512 11.67112999636422 -0.3607381148235852 0.01606425255171427 -0.325383132363059
Ni 4.750308210748031 3.5965540822672883 13.40948071463992 0.7538312489391082 -0.6111951873017152 -0.593021858826798
