# total energy = -340886.31515985436 ev
CRYSTAL
PRIMVEC
9.15815322287142 0.00000000000000 0.00000000000000
0.00000000000000 9.15815322287142 0.00000000000000
0.00000000000000 0.00000000000000 13.40388296198496
PRIMCOORD
 96 1
Ni 9.130596085546745 7.762963312096309 11.698278422919945 0.39934939943787995 0.7652279208118241 -0.11809179663912564
Ni 5.017248312659148 5.57986112393166 11.551385312577187 -0.20478425303136347 0.0839172076399458 1.2019768439440848
Ni 2.195071894093599 2.864084126546325 8.417584422975391 0.9981508410609327 1.5116513073226352 0.17460695811703478
Ni 2.186243434632614 2.5992395008697375 12.957386167886334 -0.5458601135393308 1.4263246209296725 0.09188299945424175
Ni 2.8316093161224107 7.1617763605233105 8.442274803376653 -0.15608087428838927 -0.6863534178021082 -0.042914797085655126
Ni 8.307268975586135 5.39805347121436 6.03426669462811 1.600556712205792 0.07609102672730766 -1.3738445487530855
Ni 4.82830645877991 5.716363393917121 7.46039991760643 0.5616795970700907 0.5378344150213769 -0.5724790016784399
Ni 2.903748087049983 6.687933525967945 12.78292060640334 -0.05632541406460622 0.2921832485723226 -0.6562457997834504
Ni 1.9221406193464208 6.146137196391303 10.601385378211488 -0.40989580749515864 1.8433974057892446 -0.3691402228443514
Ni 5.4968424672783085 0.7270978176511679 1.5615117875946285 -0.09854447063481739 -0.24313482778510384 0.39477952067901045
Ni 2.7294318034603653 1.9573903501195868 6.297305332539442 0.05210983332136187 -0.6739478450489038 -1.5775473957948123
Ni 3.2921911451803627 4.660272668126222 0.8306169997229996 1.3702267494948401 -0.07715546343608003 -0.2756610825475833
Ni 0.6804791557837416 1.3157793113465994 7.38217463821644 -0.7900346954428588 -0.10861908126200004 -0.10279527549137137
Ni 8.28352188494056 5.165427227678587 1.6750298410767337 -0.5945208119698278 0.3130657484482866 -0.19496752405125778
Ni 5.247163742916443 7.870754772527633 3.5498438733313153 -0.11725310278791419 1.5504379411725298 -0.17884902122284035
Ni 1.53239710349461 8.772219243609742 0.2778180651708108 -0.996534388503432 0.032749683627195214 0.155588508033003
Ni 6.357901167466365 1.972235716080434 4.096830128194824 0.4972287256848727 0.09753454131306429 -0.14967111410730352
Ni 4.6739274742012515 3.250127748599134 7.276297231755392 0.0747748790190454 0.7250171529208933 -0.2604321814129708
Ni 3.5471358074987287 0.5527458172649754 4.08317074304331 1.2988431555455309 -0.410486389891306 -0.25619911716822974
Ni 7.0243491170881 5.665636384628327 13.120779522431224 0.015364398271212248 0.4594985581239505 1.1950886014646838
Ni 5.851959006758767 3.8557564043615287 1.1112383755172621 -0.365354530549674 0.5924683003161733 -1.3914308943762812
Ni 0.6689646100572928 5.201501192218858 12.91228134870449 -0.012847288276313358 0.9267723893179459 0.30526682122915816
Ni 3.7294013678644204 8.148356705288403 1.2135285334608115 1.7496778673468962 0.1053434958345218 -0.3980576772096499
Ni 6.4364689617773525 2.004692210198413 12.987423993805509 -0.13524388293837997 -0.4996185660732879 -0.2026535798416058
P 5.540233796039873 6.1800864694430375 9.581765164984365 0.04543344974245079 1.0952367248723525 -0.9886143623254071
P 2.429456502999194 4.5708066717835205 11.929442109426756 1.8050928537820912 -0.3434605586900601 -0.10022417233008546
P 0.3849821921238377 1.8661110394892557 0.7466752012504915 0.08846343224973152 -1.2506046322541173 -0.2903911896689063
P 7.314039811766401 4.155969816799863 7.214680262772556 -3.320506456360636 -0.9346852164071192 0.04595589790482408
P 4.190257941511407 2.489561460927042 0.37413619156404027 1.1478481804204812 0.35530126007873003 1.2042134465840875
P 2.406524487967755 8.824365766608548 11.662383042362546 0.6567163116619659 -0.7081797696485803 -0.12174482001068065
P 2.6592528772679076 4.789640736949745 3.0285270054213282 -0.7671886440826207 -0.09754225462254813 0.12165097474529371
P 7.245930628144672 0.18464026943024922 11.589988758967172 0.5256479002575141 0.903421116186515 -0.09251189128749229
Ni 8.497227384444802 3.3260305203964835 12.982210257320926 0.014104814832498288 0.019489990403811594 0.250021270492292
Ni 1.7050649195500192 6.4676249981739 1.590960744277973 0.13701074503081567 0.48692168733190977 0.14921448618585917
Ni 4.451054663576215 2.8232479224627847 2.8160615198289305 0.29134661160364017 0.4435482054422813 -0.7975531153070909
Ni 1.2013115574017306 3.905759919565864 5.852791482863542 -0.34010218374078843 -0.15990744712333105 0.5374718894756355
Ni 1.1167360147438488 3.7859621205937195 1.5107646303693059 -0.03449109179833414 -0.22521063920651535 1.0621517693929254
Ni 7.5296502070879505 2.1983321965501457 2.0371221456727846 0.38912309372418147 0.052969867328811995 -1.6704485521009231
Ni 1.4033770444838642 9.210629184332584 4.92083310984446 -0.8830739199887307 0.15154236298808738 1.1150542738189118
Ni 2.590704102303723 1.4978891831118382 1.5980647235351162 0.5280192287031681 0.13263755566378446 0.5809237900116834
Ni 1.402113219374304 8.865641562034543 9.64647942130092 0.2079513379054354 -0.011138790225638882 0.33909122597777086
Ni 2.689520572826576 1.7805372581578809 10.948572788852399 0.6029979962029034 -0.6813698485445879 -2.287985879570582
Ni 6.9611029126922865 7.287188107264733 6.239668496836423 -1.2673875081394108 -0.40262755596851946 -0.458843441038455
Ni 6.406613383102236 1.8931001162854417 8.298008251305069 -0.9786564797817469 -0.8112879483946802 0.541241383820397
Ni 0.6600464006972229 4.125418218499193 10.686767754145835 -0.7113183152775621 -1.4140352620393581 0.12051403292737307
Ni 3.306102379538492 5.130388134423682 5.285874339696151 -0.0506990690167643 -0.5253684213438823 -0.1756261434101685
Ni 6.181277029328855 3.9755816777925768 9.674721333423104 -0.29228994935351593 0.5697628882988575 -0.6078316701461209
Ni 7.906132717442348 -0.022040010932372307 4.82830645877991 0.23462756164504106 0.6177607563343748 0.6593514352919677
Ni 0.47446009406539724 1.0780061858429086 11.845748496899674 -0.5677211752784803 0.011714717333766922 0.005436854744855154
Ni 6.400880379344377 7.278661866851685 1.570010553548772 0.8290259891043915 0.34940494919895304 0.27759892300024447
Ni 7.165595310310894 6.211178398768809 3.869486307290895 -0.02825873773537714 -0.33531813208858374 -0.007335871539780914
Ni 7.929385267827661 9.130028280062739 0.3720746913309824 0.6160818259700551 -0.12087990090722409 0.3612999008643262
Ni 5.537925941491981 0.9890805205253091 6.096367214087648 -0.511623560953964 -1.0877432447087847 0.35474461624431164
Ni 3.9694273989981967 7.9901129801573205 6.347368375738068 -0.8048149390758268 0.6199477366833646 -1.083832596800469
Ni 2.3660912426147993 2.6395445320811435 3.8754775709624476 -1.379673753840353 1.1495687626560136 0.29104913496787943
Ni 7.533652319934891 2.238206794572064 10.714540768836065 0.6249169077631819 -0.383709636018094 0.24939314998998982
P 6.777463629381421 4.11097581126893 2.9610653032144247 0.3058201226294669 0.21934441023372547 1.7326401951383192
P 4.2064861885703975 2.721555791908034 9.439858668932589 0.9142153785885417 -0.877273768367186 0.24292733975998804
P 9.032686272167707 7.242496320781737 4.986284597474924 -0.31091553487450324 -0.002622268114195484 -0.4676044750605366
P 4.859572393012072 6.415661638234449 0.34083623155772474 -0.42605621930510496 -1.405732655710934 0.6000533117522827
P 9.093752836157178 7.011747498604369 0.35144686758624905 -1.1229275059194015 0.5002541427747578 0.9609927439533965
P 2.212911976074926 9.015331572293675 7.456553493359943 0.4213570140572227 -0.6852545283109747 -0.7185639410963819
P 2.21673092586251 8.726172050487508 2.487143708543536 -1.2589625173005092 -0.57597030266115 2.3349002847339335
P 5.010013371814564 6.537107904740803 5.127588487061417 0.8204806706375418 -0.3083665432004044 1.0545040230396807
Ni 7.461705870219642 5.824118221736573 8.483678812944198 0.05824397124355775 0.6986535753256999 -0.02935042813765913
Ni 5.204038000590946 8.1578079191512 8.332509760980763 0.3942830406585661 -0.532468008503141 0.5542905036948712
Ni 8.994634146586387 7.7826258665182335 2.8500813106585174 -0.02184923466460753 0.5961398356304894 -0.9727275158918215
Ni 0.5504462050547541 5.503225699896885 3.502514538793586 0.36175472901355765 -0.07821090128378788 1.488478725860914
Ni 2.178623851363382 7.112706976921694 4.09587768028617 1.569225763302994 0.33450694904119804 -1.346499323970913
Ni 1.4162534075566287 6.519139608617927 6.210756207916993 0.8053335305834582 -0.29400384672082913 1.1083290392799365
Ni 4.7799972018746235 5.389719552013638 3.3206647585726334 -0.17423106283485476 -0.060991709192023985 -2.304341181000154
Ni 8.318991411384955 0.5964393650744778 9.071626738586907 -0.02648159123029633 0.6366799618363809 0.2357843009573036
Ni 5.7540858259916 4.326412201684091 5.174595454614679 1.4337209133937436 -0.19285819101773882 0.8806025756301028
Ni 4.768531194358904 3.199419055616276 11.557363754834586 -0.8518558425147137 -0.840315960195914 0.4978103092199555
Ni 4.3621289982586156 7.748438481489336 10.69454211020022 -1.4774857171845197 -0.4317874653619273 0.21455213105140467
Ni 3.9802157031942973 1.0208501531707008 8.084525294917945 0.15439808726932766 -0.7492533997604386 0.9725791632394154
Ni 8.866896228991136 3.3762904638839175 3.7651905138473913 -0.6642858964791075 -0.07316176889565465 0.27353658000541275
Ni 9.164014185726344 7.911316232022139 7.573502190943796 -0.3415944520155988 0.36365066048468986 -0.43911382382001146
Ni 7.659778402607804 2.2651226061445073 6.273043553697074 -0.8879764994966706 -0.07817027785383956 -0.31042034040563954
Ni 4.326778527802804 0.6942365331720113 12.672459544381894 -0.9421277887280936 -1.0140618558642343 -0.07246782815242357
Ni 0.42893949473881343 1.1992692892899053 2.8380575716270573 0.09472304000619815 -1.0802225108517074 0.2003197895021066
Ni 5.342948864806945 0.622133479041013 10.514823432174884 0.6979269815723206 1.4311750070434384 -0.7676221320756135
Ni 6.027456692081233 7.80738035399027 12.584610877853313 -0.030736509851908355 0.98563291109958 -0.7750266520698007
Ni 8.430839933581025 3.0779819472628906 8.547508391684062 1.393714033983503 0.06210165442675111 0.8753199870749249
Ni 7.162280058936541 7.916939337944384 9.83123874671975 -0.6544491128943438 -0.47271479970390845 0.9409854475935343
Ni 3.6628215957883183 4.867347664881756 9.524249216900522 -0.06986844285636355 -0.1800443270825222 -0.09454409122617265
Ni 0.8447150604016724 5.157624481349999 8.473518758041692 -0.2557054653612628 0.35659529629980524 -0.4775651858176743
Ni 7.973289453155423 5.820015369206986 11.009587151369953 0.013747945713711806 -0.7619412796407523 -1.167060491682874
P 6.987194490497625 -0.1889418538792375 7.4403884375564315 0.47233504776698654 1.7835053574193027 0.853722206299491
P 2.6946674547944944 4.94922155241413 7.391330043738376 0.2257508279807015 -0.10840439414803267 0.06499697369667515
P 7.26330364432464 0.08311023818302944 2.790996570971285 -0.9185705702334439 0.26148659081941417 -0.8289393429278564
P 0.2651376865715576 1.9233952863030133 5.282027915449664 1.8910129507846787 -0.4168321296036757 -1.3711891134081096
P 0.083027814806319 6.975462896545839 9.504545450790241 0.21431996043594057 -0.44728273278404906 0.7338638046782457
P 0.8179869909650695 2.115240274673052 9.816346674178767 -1.4301100561140339 -1.0766880153358878 0.5669395599174495
P 4.395382251684795 2.6152571104104667 5.011108686909516 -0.4141301572914803 -0.6065954837461747 0.29876887220964027
P 6.8485858453295645 4.038635560976065 11.814905669334628 -0.903328813583025 -0.9848548952829748 -0.5255070038042756
