# total energy = -381163.8101946276 ev
CRYSTAL
PRIMVEC
9.31056923848002 0.00000000000000 0.00000000000000
0.00000000000000 9.31056923848002 0.00000000000000
0.00000000000000 0.00000000000000 13.62695920727575
PRIMCOORD
 96 1
Ni 3.293390412605175 6.249896498643197 2.3870753959593514 0.7438569113352158 0.7929714094736795 0.6556927554934578
Ni 8.338806501248841 8.616559402615541 2.6458105286101894 -0.038862481393152425 -1.582595499741681 1.3029358375576656
Ni 2.7657325224484635 7.068463124493209 11.149850770984827 0.30479142425463635 -0.4264089746588333 0.6240370762613898
Ni 6.270863900556505 0.923991132335173 2.466983356403831 -1.5505466988362522 -0.8544585702448834 0.36204654922236357
Ni 6.3917430209119575 8.821252267208829 9.491654218508389 0.09602144710264754 1.581824168793295 -1.0543512995119004
Ni 0.5627969094999696 3.0907738049509064 2.747508014231274 0.24240540581824707 0.847439972835205 0.08739539599653336
Ni 8.596560299902494 4.31908927218759 10.196454067840238 -0.23689167508886946 -1.2603920506581843 -0.13885268333556086
Ni 7.7948364937954535 4.860470941394131 6.971716068533451 0.204179529567829 -0.1489270368524274 0.5665544086638887
Ni 4.971732243731624 6.952937581446882 9.893008650674348 0.28331191422462176 -1.54736701555669 1.5014756523412143
Ni 3.653485988270853 9.077441890231292 4.179524770437901 0.2460481447771569 -0.5739915816682244 -0.21930738634820293
Ni 6.085574262245338 4.831179890586286 10.664812942550299 1.9711982021860182 0.5218933183110883 0.1575407466633674
Ni 2.1566350832084002 4.204252711264524 4.499635175474408 -2.0009471513136767 -0.2462108956072663 -1.2641972833368875
Ni 2.5961684355722783 0.9533743577784277 13.578283715478332 0.4205196057575919 -0.295755025083981 -2.0070244678560076
Ni 3.159308905076955 7.696423776999863 6.648456828982254 -0.2911710052577244 -0.15998329466658898 -0.2875786599207757
Ni 4.0900213373416205 0.5656338399453449 7.148389706076156 -0.6388384029402804 0.7722143794319862 -1.930972779007068
Ni 4.416813006859917 6.555078336971089 4.841318169424386 0.9528647155296236 1.692920250840878 -0.15518124529225533
Ni 0.9990147681598828 4.311873581031811 0.21235546307226166 1.3246164078548928 -0.3320335478000411 1.3483152941337295
Ni 7.065632711446297 6.422607557920224 8.643171802654978 -0.812529019890633 -0.2151475985435585 0.5959860836614446
Ni 4.294881792181106 4.460284054610022 4.290271198296794 2.194134957756692 -1.38832551597808 -0.6652161216028608
Ni 7.263687140176268 1.2316300298837248 4.645716144630457 -0.862631592973979 -1.436498990359513 -3.664464009291773
Ni 5.527731506634388 7.964856798564068 3.120642111051214 -0.0025384501511375637 0.7386306299392699 0.4361308299322875
Ni 2.9026537535928285 4.011700828951413 1.8543292797166617 -0.10504473364718038 0.023397295878017768 0.354239394473119
Ni 3.940763601963182 8.702859068838658 9.042741398698922 -1.3184809843811163 -0.17141621909387897 -0.1317273851446893
Ni 7.812880376969517 4.198089114432104 12.38235413226263 -0.15946213205579635 -2.487086451953607 -0.6145792732825996
P 4.916436773055275 3.0719012811150823 6.97805284195361 -0.5202583538108265 -1.0670646333135108 0.572069424944847
Ni 8.891658791750764 6.504410219203673 10.502787623582286 -0.8984398609218398 2.6070042460578784 -3.106595558437656
P 1.633511440268287 6.881059986966093 13.415210026414655 0.3912493960385649 -0.04284640574156492 0.16163034335170873
Ni 1.842468545570408 8.354262046176057 2.9639452308553986 -1.0481783379319691 -0.21213477985916368 -0.878529752261474
P 1.7426871750975288 4.490459609495027 11.10195161650738 -0.3775125060684466 -0.8739364764638369 -0.1979893415967171
P 6.846471222264521 8.761999804608342 0.944466936192965 -1.238981189082576 0.49215722469923623 2.5069219986222957
P 1.341578541959327 2.1396712260653947 7.353338611323357 0.19258899651675218 0.3211462114635759 -0.5057143945583807
Ni 1.7874430814018238 1.2409312885477544 1.88054784267753 -1.151754457453423 0.5378657824799448 2.2223574429374953
Ni 6.91486666385207 5.370559787407676 4.772161123273555 -0.6739717563083039 -0.34673974366196414 1.0427849348305396
Ni 8.058781820989225 4.470367401089646 1.750178459102612 2.5918051697199362 0.9708999757647794 -1.7679980058123228
Ni 2.909869444748607 3.2151909416149995 9.185428665369447 -0.4275502873521282 0.2673610473223202 -0.08982585981489692
Ni 5.24479261820476 7.139139655542908 0.9881493338646649 0.1445080818491253 0.18914706071473877 -0.6738084912575623
Ni 2.3295695961470266 0.9914545859424732 9.008005527003464 -1.1071149643671774 -0.3866399222910116 0.13824873120297482
Ni 0.8804670143404387 2.4201055713712756 11.909131416185113 -1.0589998540275052 0.2032541895400822 0.3194024892995918
Ni 7.060958805691199 5.762292677327982 13.645764859167175 -1.297567631267217 1.069156997066165 0.6341983330651078
Ni 3.6123425828290645 8.25847490990425 13.212617626240391 -0.5849599077542699 -1.5145926493391464 1.6024256470937308
Ni 7.6369757924454795 8.208877507598658 12.853356277578014 0.21916983232907417 -0.9199399397771447 -2.3904461403200377
Ni 0.3008486994067328 8.183171025945619 4.949107560494794 0.15121711843818475 0.05993550001336774 0.11909838352676907
Ni 4.304927896383797 2.0291547692665635 1.585619734246229 -0.24515982863493266 -0.38083102891871834 0.5779024866868564
Ni 6.575626763268902 3.859538195972196 8.817324138049315 0.23702023024693378 -1.5734567706652063 -1.77714187709512
Ni 2.65769267706568 4.111612547393558 6.698904286258843 0.32486325530384697 -0.6958204767522791 1.2965810989842315
Ni 1.0265181896749416 5.462483037447681 2.603757480554311 -0.7867971623421676 0.8843977810064768 0.24960192356668623
Ni 5.491774088255526 3.8467734055533924 12.701498100212724 -0.7905859399606384 0.06917038834807442 -0.23076499336584128
Ni 0.18082056507920002 5.654839397806894 12.2638268616955 1.523195817627125 0.46441322181674854 1.36508377184132
Ni 5.311540089038022 5.114277058692879 6.602561309003808 1.1665449854990362 0.7303059121236585 -2.360726758878734
Ni 2.1187689981367197 6.682260712697461 4.638752769900901 -0.2652476005237432 -0.5915275336694586 0.4205116353377919
Ni 3.477674509439149 5.54731163373194 13.556480224447876 -0.42898599135739024 0.29161991986968483 0.11024016180519079
Ni 6.725145194585871 3.041046054676049 5.647461702746456 -0.07527187326012198 2.7817909242858865 0.592671931686547
Ni 7.476200882925495 1.4245822666738663 12.710260276918147 1.154146097614051 -0.21824706340448866 -1.191200065043555
Ni 8.559718377446472 0.8568060647479475 6.174034911587493 1.6474618613977627 -0.5791731258691638 1.7724853521597153
Ni 6.8228130658428 3.3492165857278198 3.0079600158487256 -1.7289635176176803 -1.8916986639977935 2.6334765813167937
Ni 6.449915457481385 2.5486100479287708 0.7647794673894531 0.4974544685424336 1.1944198575324332 0.7799336024531148
P 5.876570604097051 2.026724710696682 11.067871208885945 -0.2559823731717334 0.2322588043025484 0.06207337229197697
Ni 3.917347520341526 4.905562028190824 11.001862066192881 -2.210048029442523 -1.2556175120876762 0.07781675116916276
P 3.0039620574199626 2.4610627654283994 3.3503375782635048 -0.32098063241998914 0.012123265626095251 1.4671665946466992
Ni 6.282008651928721 5.662083020670372 2.703725062411855 -1.5619261443177874 0.5966625409031788 -1.378849972387477
P 5.010408348326598 7.342380071335805 7.755865244155784 1.5263256215053584 -0.45200430662943447 -1.0636296394900326
P 1.654385736489263 6.085564951676105 7.16404635929881 0.7367020454579892 1.0427890485955975 -2.2024357643129036
P 0.5972003938737996 0.38149126376371667 10.43329074165444 -0.3736422244797629 1.5211047394260513 -1.2353253374975435
Ni 4.363286544337889 9.031792169280603 11.27869322120549 0.3364177929106658 0.08347112124146269 -1.3868733569125857
Ni 2.466509448429858 5.510311431598953 9.095804194873134 0.1873046081893613 2.7166096024925475 2.4807885347600376
Ni 3.0015133777116145 1.896116045492469 11.259084231343314 1.2614266625702855 -0.6261451237433281 -0.7875029301599406
Ni 5.468339385495404 8.674666665200336 5.621501973610273 -1.9456578918230685 0.7628594205796475 0.5798650097298658
Ni 8.339691005326003 1.4405033400627458 1.9467338861860266 1.2171018725109815 2.843359331916987 0.3973295407943737
Ni 1.3021762129641583 7.826920715373277 9.458976913670405 0.06724848873501323 0.8751986310057119 -0.6727700226907187
Ni 5.212531495811503 6.369770077521457 12.189165407013965 0.965164101722267 1.9243151644812346 0.623207895491875
Ni 1.1518943149700607 9.153285787205451 6.950403244501588 1.2048433668586025 0.3052472808451323 0.5441896678154435
Ni 4.421058626430286 5.061365093740245 8.508796081138987 1.6698931938180854 -0.8498123297221236 1.5517168078849535
Ni 9.131201116984153 7.038175842777405 7.619227985373033 -0.21080346264224986 0.3040946552979279 -0.27659902098082045
Ni -0.1769185055135395 9.318762534188235 0.479532488846899 1.8652109021199101 0.4061463677550554 -0.534611280098389
Ni 7.259748769390597 8.37863711642874 7.053613697623079 -0.4802185642801214 -0.609319567545557 1.3980617694292374
Ni 5.020473073667755 1.9146068359897292 4.501312008993319 -1.1337042848199315 -0.1813738445272231 -0.37687332982255095
Ni 1.2350842510692652 8.726061007367948 12.166230681821666 0.002132472961970521 -0.29836366635142164 0.4758911405493611
Ni 8.485243134149602 2.5716350856426304 7.674240414744691 0.4463026282589669 1.5400218880455283 0.7637611064583104
Ni 9.103446310099796 5.711047304268102 5.31625868552544 2.0838978812752953 0.698287707345849 -0.29181198127583285
Ni 3.273233030215161 3.0882971935348587 13.26493185264825 -0.5210579668939865 1.1467603466729412 -0.6345780850020297
Ni 8.530157320130861 0.36700960437829944 8.572215954528282 1.121914748384171 -1.1930250340674358 0.0840241655314553
Ni 2.732205162639483 1.489681766752841 5.384052664340521 -1.4653727359710698 1.1813825647325007 0.387380657111778
Ni 4.896232837819094 1.6644504618304201 8.91509721873858 0.053894436025610414 1.2142289218385605 2.513137640514704
Ni 8.916266626234277 6.9705811101439155 0.7627581428089116 1.4216912359227194 -0.8822915332967515 1.116864073334141
Ni 7.314746301851481 7.953199965884022 4.86994816981667 1.4895616745124474 -1.4546885167843462 -1.9957301258891111
Ni 5.1828494010958615 1.0311548531531065 12.936345105381779 -0.6473456690803432 0.6045020915522558 0.724145034728585
Ni 0.0796751962136478 3.2670135699673413 5.341467982781422 -0.36906283263919665 -0.17661190436220553 0.8330934743055459
Ni 0.631373907187568 4.779292088249311 8.436518132181167 -2.8405892253710174 -2.2048086354204544 -1.3469718927319576
P 8.77933608452068 2.890643119281919 0.1623586373465629 -0.30798653415316635 -1.2832450439969576 0.7971689924947949
Ni 7.8790692136487825 1.8862840843821433 10.128060488366534 -0.2529633838397515 0.4414797529490268 0.6832290132405137
P 5.081094189945531 4.370464993216735 1.3010654620546298 0.06732922137427759 0.17879605649771788 -0.36591425970788594
Ni 0.4078597268892407 1.2440875715178303 4.217298680874172 0.7635315069460077 -1.152680054591486 -1.1185342619477123
P 8.355686563268748 6.38881019160348 3.34916630865396 0.4260009405871374 0.3456861055864692 -0.6121925182179779
P 7.058510125982851 7.550536467683866 10.974458267768618 -1.1527067940643632 -1.7909052494277995 -0.9822233711973988
P 3.6106201275209107 9.257536230910297 1.8696321313084525 0.3236502088323523 -1.5469520395064584 -0.2510749085677869
Ni 6.42091303431977 1.3411781874822968 7.1977869311432325 0.31157476572505693 -0.7036302026046849 0.14780809275663576
