# total energy = -381170.8541243392 ev
CRYSTAL
PRIMVEC
9.25570297066829 0.00000000000000 0.00000000000000
0.00000000000000 9.25570297066829 0.00000000000000
0.00000000000000 0.00000000000000 13.54665687836247
PRIMCOORD
 96 1
Ni 7.038545687181589 4.363332802594278 9.523218816983334 0.08281343305280577 0.5089907513168073 -0.30932299357640275
Ni 4.19329628127584 8.198359328974135 7.467662295748023 -0.061773838773687154 1.8342972432601896 -0.8842219175502448
Ni 3.0417942608508817 6.352716600215521 8.706097581799856 0.7311911429420891 -0.5255360572699982 -0.039127562129080994
Ni 6.423513473089329 1.7501423843590906 0.6881337570334728 -0.9261614952068242 -1.044943375934439 -0.9895733838045667
Ni 3.702179420044679 8.145018712112877 11.266958105950334 0.6751251531864567 -0.2477214187145218 0.06925729163492587
Ni 0.8747537215638346 1.0637579552081058 10.230028731695556 -0.650762408071376 -0.8987046845474522 1.0494672319467215
Ni 1.507411571035045 2.6837096200165376 11.995618884498418 0.8469108398046123 -0.27969720029016987 1.5415979742833965
Ni 7.172429432261945 5.48194930996908 7.151916943091735 -1.470223636305468 0.5663392073292891 -0.7351655542088048
Ni 7.089646423897015 0.572902104803856 11.643514353425317 -0.7457998939941994 -1.3393236321580806 0.1744300662195383
Ni 5.420028656350858 0.2044825459082102 5.3694073650550775 0.8412377006792351 0.07651885829334563 1.0150123927029615
Ni 7.130177147692859 8.14369514657216 7.0672772406885676 -1.7693226381610172 -0.2434988959927419 0.034117510508999305
Ni 4.214834302347529 0.347873749194341 1.2173813382513283 0.6759211667251908 0.4759219937872965 -0.4604478094110973
Ni 0.9493296980060018 7.087869328905282 9.227779551318529 0.2778004974880893 0.2302147772893261 0.8965398156856496
Ni 8.933160340946783 7.641425163127253 5.808671000910249 -1.2136231699337614 0.4385386680428318 -0.8507831782758251
Ni 1.9157361681981946 4.396523753846139 7.874522640683608 1.267100315916295 0.4659540839413072 0.7758362924552896
Ni 3.6095483436005593 4.443126218863739 12.74203950612014 -0.4634989375325953 -1.7116705348651875 -0.20982824321317411
Ni 1.4382159347944132 7.827483306480541 11.941161104275169 -1.379611790254166 0.29367988772250714 -0.5651919810987235
Ni 8.072639114012055 0.8392553235336454 6.2247972302011725 -0.26810795279067373 -0.3300635685578638 0.6314338829460932
Ni 1.3231860568919829 4.086615047553326 10.347546542586416 -1.0259907460913362 0.7412989208000523 -2.1550138233855143
Ni 1.1059639612617815 4.163798355553677 1.513093647157052 0.6302935986940629 -1.3335648752974323 -0.07489186421288392
Ni 6.05422943152583 2.149164999924884 9.8566832876197 1.5985905896183565 2.232715646243368 1.1390796901992317
Ni 4.350393329685717 2.345191535497428 4.686939949448371 1.439692043375514 2.5459485163971376 0.9210300875175299
Ni 2.7537197581283808 8.78156118016758 9.037842342803597 -1.4665955526345773 0.03579078444636417 0.3020740253234733
Ni 6.277236341582247 7.146550486444823 10.910532087108274 0.008173536949727857 0.7434367930786616 0.33586963371667966
P 0.45357295281986126 0.35170375912965046 1.3301139506488195 -0.3821001254391291 -0.32376128048891983 -0.5187568295646355
Ni 3.0953477588830243 5.805186228699896 6.133004720456276 0.48771770087064387 0.093798985530032 -0.14636467544188986
P 6.521466578805569 2.609765808094868 12.098451596879459 0.24531383771429363 1.2972462433720562 0.3656689764662993
Ni 4.495541265416802 2.2555500511487767 8.06502907493808 -0.7049671762485537 -1.0229748420831477 -1.532591142799096
P 2.0070066562892688 2.5655050359569995 4.323605473825948 -0.11307274615797946 -0.23503096773104684 0.39290724335696203
P 5.887848912924761 0.6047731927962303 7.503737324080217 0.15610118600336342 0.31178791017712754 0.24519608118950675
P 8.834892541325758 8.492366737372164 10.85718499125486 -0.2891344344436698 -0.4859469821234664 -0.3540887278278676
Ni 7.342169771081761 8.837178699986998 1.3057446100043628 -0.010112920064285809 -0.5569968468824408 -0.6810032092337884
Ni 1.9101087007243711 2.2861956840531015 8.577106401368617 1.0710117908867167 -1.2196282384772608 -0.08801271786555809
Ni 4.4818150577462745 1.689258369486047 12.201907218077917 1.890415426409996 1.027706186120546 -0.8229538147683826
Ni 7.839848925798021 0.4243878698618678 9.153476618117278 -1.123088199866982 -1.2662492807699097 0.20947728763165857
Ni 2.6574141675607277 0.6651176001795966 12.681472961862807 -2.148282675309268 -1.0119532941616636 0.9196455484651774
Ni 8.99177670856475 7.8196622373762965 2.6667948226342806 -1.308396860672237 0.9081833134618488 2.1148269667539834
Ni 7.850085733406654 5.232147139490428 4.821377185573027 -0.6262844775346698 1.7116761912921425 -1.102118282483534
Ni 3.602347406602805 0.6605471339977315 3.7434561535089275 -2.789833849195021 -2.4622711926821403 -1.4140956829636484
Ni 1.068395062452161 7.380479126137938 1.0627055817676883 -1.3072524626551485 -0.5930820226407721 -3.094440154022045
Ni 8.148702481939493 1.6671094720109492 2.2144177066526067 0.9590024529962451 -0.19978500004455915 0.9014616784672991
Ni 5.931471041549974 6.241916578621541 1.677956230452682 2.42029844779478 0.9381410361662037 -0.06545334450780341
Ni 7.9254456678998615 7.337764056414754 12.775350781512065 -0.047185399436551 1.4461735373347995 -0.5657208570189999
Ni 4.865149256588169 6.343349828696591 3.922069009303098 0.29247558300176085 -1.8093827394066968 0.38317638922244335
Ni 0.9303832737972573 6.17971825391086 7.0145539792228755 0.20074273597213815 1.7460233013134445 -0.2680521598520738
Ni 3.674060594081726 8.003591569020736 4.987107028247436 -0.7905214052712901 -0.35880078859155623 0.9936670942579662
Ni 3.319715257292488 4.4061126622390345 3.725506568522109 -0.7194671696369415 -0.2565094493197969 1.0924751029668154
Ni 8.966119899621594 6.059431136657883 11.047339708792217 -0.08681869755745693 -0.5400206240394184 -0.2826634820073454
Ni 6.162465623366112 4.073036931132109 0.4791584928492859 -0.3133994776386216 0.5974313007484033 0.34383105465560143
Ni 1.5571424636943432 7.166727919163465 4.4931014620844 0.08214854577529723 -0.8602903464353119 -0.46436334241541966
Ni 1.3018146384757685 4.7855502100834295 5.063022304925561 -0.5432303892259677 -0.95303363700732 0.5436386804079798
Ni 6.727581830737434 2.6977782887010964 7.446624082642759 0.4092825993911918 0.5311760291645948 -0.42866151813843595
Ni 9.550960010260544 5.6208033676044415 3.067504752871913 -0.6141265020158971 0.18670451271151717 0.3138530202362724
Ni 2.1404738947309365 8.486424575993555 2.597083643731984 -0.10211187627110156 1.5186642483053587 1.3064003990674984
Ni 4.41455386344977 2.8214715046882284 1.655943391812889 0.33225466267191167 -3.1132526587428577 1.1036295769217381
Ni 0.6098934477411632 2.240657624889925 6.572065656413954 0.6701223006552266 0.9423447898349061 -0.9230895411497199
P 5.524183083132002 1.1654411092663695 3.272479702184082 2.4257479009451255 1.0977450931165031 -1.2144932312435406
Ni 2.085374694284109 1.6388518105017666 2.1513586015553057 -0.35001224376564877 0.7757560740366575 -0.2647459782969763
P 2.857374376943099 2.8662876190110134 0.3137748134701421 -1.881186194502244 -1.3905657181625084 -0.5139483524323987
Ni 4.961334523015757 6.115770601317692 12.92573281733599 1.1414227365101117 2.7330965444039768 0.44442032363458944
P 1.682362870689997 8.491422655657805 6.277371474847244 0.6922774965960271 -0.559058871617792 -0.5762472104716205
P 7.829019753192144 3.81545071436154 1.9761860905966953 0.1977628274082078 1.0879293925776619 0.2813159668405155
P 5.159443591781739 5.149030925814549 10.231194024713574 -0.8813525664222499 0.5165850187242974 0.5293744571794818
Ni 2.6909290684204556 6.64910272430561 13.415823221095362 1.7899038047464788 -1.1517112629203132 -1.5199328306051372
Ni 1.075086935780408 4.9765508988824765 12.91035724337626 -0.5132209873480709 0.007222228780052078 -1.2062693006718515
Ni 0.013231953125950649 0.9394538628175649 12.598188294390837 0.10678408493579028 -1.0118818174937798 0.9006785204443714
Ni 7.515492066994289 9.11727478665286 3.9979981695358453 0.20054064726366108 0.5147271395799523 0.4580913933637788
Ni 3.6942102596911233 3.4703333135450025 9.735549273534726 -0.23420101563058374 1.0163617076420044 1.5754858852800933
Ni 5.074818698503502 9.528653765833052 9.555608224348296 -0.6706540047889805 -2.348723820880587 0.005233737595113567
Ni 5.836526039335367 3.7948475193011273 3.309367381246872 1.0096336448895513 0.6000728521363086 -1.4258201704894282
Ni 6.732357773527718 5.036120603917884 11.942163496918944 0.9851847678185677 -1.1648097479754844 -0.8398611320466824
Ni 5.578125320693586 8.286714270594397 2.9949354128579118 -0.8296870197271581 1.1774714026035529 -0.3874351644987973
Ni 4.152524909199866 4.916277760412841 1.688374449841721 -0.9883850199234204 2.02469540277321 -1.4768426842838822
Ni 9.090979334197051 3.347621202084557 3.841357427287908 0.2598634533936944 -0.9374095573168179 -0.29611163709245136
Ni 7.972945936116411 7.125697387401196 8.833585636050586 -0.09294795038364638 -0.7020150355987652 1.2410252160957982
Ni 5.188673102114525 6.615467499305816 6.345904402747209 1.766844351823854 -0.3708726321544258 -1.0102000589159825
Ni 3.074614983979464 3.3203446451020606 6.242204430987388 -0.4903762215394135 1.0014763058897398 0.35176187946690385
Ni 0.6196258195318298 0.3550506213640823 4.558179236023874 0.9511320491092329 0.7224259951549494 -0.24763528675861868
Ni 2.961528803724242 1.0403225150046174 6.406688456026967 -0.19715373306929918 -1.369436649493377 -0.16541346454322478
Ni 3.8566293373731195 7.375897553112374 1.6876293657436243 1.0722628896849986 -0.7412019902108719 -0.2393745894117232
Ni 7.0068819269382505 2.2306151870460127 4.749552929657123 -0.6426513489284673 0.4144587442754926 -0.41152254446530423
Ni 8.483823723427527 3.253129729320965 11.195011674753747 -0.0646853559935273 -0.2265998062445581 -0.5201357121900333
Ni 8.39838432827808 3.0776971331057523 -0.02263944973844102 0.6867041162733076 0.28832813649229055 0.26066512335938335
Ni 8.754266111778922 2.4463378587769387 8.765716342061596 0.26206868857512927 0.4198367207579544 0.3909429205417396
Ni 8.442256360886505 5.915162492719584 0.8564403874458953 -0.4178106914668611 -1.6602793248774053 0.6601104249451792
Ni 5.434911826906629 6.768260645782589 8.749582726019456 0.8554265905851075 0.02029680257582311 0.29724317959373325
Ni 2.7092738719288736 5.671589410415081 11.102433355817194 0.44690863727408187 1.7297330487938531 -0.834467471834937
Ni 0.5544138378976678 9.261071389733981 7.897836831176725 0.1991352822757022 -0.013458439497751015 -0.0463958136557201
P 5.939569781746677 8.225802488612105 13.266254761572341 -0.637418125553986 -0.16305499161337725 -0.2629168955080375
Ni 8.939824447165783 4.636607436088747 8.083222084915954 0.36400958648600534 -0.46612660496342945 0.9414490174935142
P 2.3197753748344034 6.0049520683175475 2.2682933031520007 -0.4755705239851487 -0.4237016030299993 0.8434197959322185
Ni 4.935686969775683 4.64751065431928 7.76113750121884 -0.7373810738028849 -0.5091876978189618 0.7401390961639963
P 3.07735467209172 1.1462170139651666 10.357814819585528 0.8323203435849472 0.8700525680283984 1.1344725304445236
P 7.122744818118056 6.937769592025356 3.688320855820081 0.30577615676540887 -0.0360311825919444 -0.3866386367394309
P 8.256235240345546 3.661546883514934 6.008524769707178 0.26341080442532055 -1.578946590135184 1.9411877718668569
Ni 5.276509724362197 4.345228647365992 5.458977580489998 0.4586953454963649 0.5837923698087301 0.7597890091844398
