# total energy = -381173.3143270515 ev
CRYSTAL
PRIMVEC
9.21004776638065 0.00000000000000 0.00000000000000
0.00000000000000 9.21004776638065 0.00000000000000
0.00000000000000 0.00000000000000 13.47983587199016
PRIMCOORD
 96 1
Ni 3.2322939017345207 2.6940494988906436 12.271840681157007 -0.09539101260750023 -1.082297133992549 -1.9061894014148009
Ni 0.4559774929771333 2.523313632975964 5.517580296634168 -0.6833727379072295 0.3657674497173765 0.5156625069100281
Ni 2.5567276863548862 4.22450156010405 5.851030997843983 0.7532234401517802 -2.3756273301396504 -0.5272615246015371
Ni 8.915961753164199 1.8866414494097774 2.614036287717897 1.6810471535523759 0.5572156477614661 -0.7412210163742653
Ni 6.854200455092123 5.6550338128533095 1.734073323763913 0.44478516317317596 0.10447369163505879 0.7311392066582311
Ni 1.1263612144658306 3.542976443804856 3.36270725742366 -0.5661479172540895 0.3182262096033036 1.8581059156440127
Ni 5.070720750968262 8.044046528968348 2.8845096031504998 -0.1839547178805219 0.5814482950565858 0.5270388670677698
Ni 5.441526485005964 2.193133419736064 2.8253470191675385 0.0539114053064749 -0.4290826648362546 1.275853379518577
Ni 3.5212315209747476 6.536730107801207 8.945906381540961 -0.4699032983970423 0.78779783569254 -1.1826395770680536
Ni 6.8317371485344625 5.063076411303293 6.5536940948239835 0.9420534838467325 -1.5512326691596834 -0.9870508744930291
Ni 6.824083598821705 7.512774132300833 11.77221032467379 1.7674351913303172 0.9295175561632508 0.6350951338477644
Ni 8.29772808527183 0.010170655773523607 0.5298595753366633 0.2345378301447122 1.1491987809111048 1.2960699636757678
Ni 2.298146384627594 6.765111662827978 11.110202220644517 0.019488704852230955 -0.6789838648109146 -0.0071186133226522575
Ni 4.616702235155874 3.187818580960867 7.618426274508928 -1.0752839358995094 1.8139274213545857 -0.7660247056815066
Ni 4.8222797118567895 8.312510211973365 12.402379293496079 -1.6877808727317836 2.540772371512837 0.2733185504573357
Ni 2.391306018014528 5.972393639570757 1.95644992763218 -0.10283487048005514 -0.14664055481109584 0.43284367454058353
Ni 2.072463373603033 6.250730493805708 6.572471540256439 1.394362209090463 2.674151433328336 0.8829427937275051
Ni 3.3142541170098863 3.394298642345116 2.7659818141332173 0.0973062273523421 1.080083671280998 0.4594731042026538
Ni 1.0430379121176752 6.625155776624533 8.932453264735395 1.7514892095240222 1.2050673099439504 0.37330900951006035
Ni 1.0118987405426654 3.4346754918526115 11.99350843194595 -0.4457925213917678 0.6203948515231122 1.301922565801803
Ni 5.6431160110141905 3.787457162367008 13.13995491863029 0.6960369636384593 0.14408667804099057 0.009559875774293212
Ni 0.8876340127575412 5.751757734734633 0.12424078166087243 0.8225581219918607 -1.4313549842647284 -1.2190502544866038
Ni 4.215355982649456 0.29109829645155416 4.933201843409818 1.1834273630766714 -0.3595510364940195 -0.0010340976914691867
Ni 6.587836662983025 6.652721449657365 4.391150927814698 -0.48022447781739236 -0.7269372527617416 0.03835186030532104
P 4.128247350659972 0.8663477503073304 10.912736033031479 -0.8974124480985899 0.11296604537678608 0.6793201651044107
Ni 0.06447678155728219 7.617455535471954 3.045566629843594 0.4454906738806328 1.188053034774141 1.0342504149969671
P 1.4282757910409256 8.236518107665347 7.559033439331239 -0.3445982718389291 0.7081995671429222 0.30899774902650007
Ni 4.132189251113715 2.276383041701907 0.8021002989399973 -0.1694909770467081 -0.8907733455155176 -0.21858259236703645
P 5.1426143840101215 4.122831842559971 1.7771818734456613 0.2519012611238242 0.054686592909602594 0.34188858621724993
P 4.532393457694283 2.4243977197208313 5.488140378876251 0.03415196329136054 2.1563374272929443 -1.644251067769949
P 7.022818010015305 4.782759396793682 10.393411831360787 -0.015845965893321098 -0.2708616042764109 -0.8967976973327265
Ni 6.171689863679493 1.05134537522346 12.787269032612901 -1.0221562028365945 -0.4500032170390057 -0.7666551401766539
Ni 7.4151660458317545 7.365413367674936 9.483617522617848 -0.18741927939035463 -0.40106689634961895 -1.0933631619987236
Ni 7.796038362102963 2.837726244400893 7.210094200754463 0.5161685000121692 0.011778223581850685 -0.2391172219852785
Ni 2.707201447133505 8.371740029305185 1.2906353108516646 0.43854689557294796 -0.5028255030463598 -0.12132932973981686
Ni 5.718491042120337 5.458426922698996 8.69535716249056 1.0688916592199205 0.07701739519631896 -0.2528826512004871
Ni 9.100052188373102 0.4362145724312427 4.551520884942724 -0.41708229794126883 0.38936143498723264 -0.928608156975104
Ni 2.5955296176904423 7.901557879622895 3.883190083106222 0.046795620197300054 -0.44773756093328054 -1.7268089331685228
Ni 7.248501021039865 0.5248087851291107 2.924262011417893 -1.651305146403253 -1.5381362409870414 -0.8663414377253983
Ni 5.384332088235538 2.7377788057933787 10.999209171723512 -1.4321671957533786 -0.9301227938474175 0.7144221510138664
Ni 3.057376674123581 2.614695727139598 9.607712785523653 0.23205594426312293 -1.0046485329701342 0.6705917840924773
Ni 4.1755409460570965 0.664348377172488 8.688589619375115 2.350940883136564 -0.05508999899560834 0.47745925636742936
Ni 6.186333839664192 0.32621712967624206 10.34782301580943 0.11080374761814465 0.7149697959872202 0.8446482690226809
Ni 3.383375525667221 0.9491598950031898 2.718869656677539 0.2676580097374487 -0.4644908691322194 -0.2942139058491062
Ni 9.321489367366878 7.626205080871617 5.682087407229067 -0.439486633778398 -1.7730386535600238 -0.09540463945425504
Ni 6.396276879017149 7.724301299873519 0.8036328508921067 0.11557982885054932 1.135967112712179 -0.7999889784420932
Ni 3.3826663519874587 4.498684682786109 0.13765245325138684 -0.694342863765488 1.025290377590202 0.6707414222964642
Ni 7.071281281481647 2.0889309390499773 1.050685935801759 -0.08157621821159498 0.3734473348601375 0.4780817204427766
Ni 1.3775744779618282 3.495636798168787 1.1800244789139087 0.037454545302032266 0.14681667537764392 -1.4496208724534516
Ni 4.854413568593024 6.170584657944799 12.620873862221233 0.21936575038996414 -1.7408666968131694 -1.2625049832361288
Ni 7.050411313191504 2.083727262049125 4.795047442553924 0.24781912063465064 -0.07591593460202409 0.7781549132861373
Ni 3.1060701967846507 1.4618556252800519 6.9196986309492186 0.09830073005512747 0.5050009134311239 -0.18122112099944274
Ni 0.2450121383195839 3.685796654870718 9.792952634696634 0.4215048524889967 -1.941433826439392 -0.6150772959649408
Ni 4.338678522545753 4.7583619802003065 10.413672094487291 -0.16776756659769815 0.1866579757442979 0.8747155207217064
Ni 6.26523631907357 2.8514400055588904 8.962918260812241 1.7322329323975716 0.04058614895247849 0.846707979765187
Ni 5.1559413231609765 7.369134226981741 10.25121329852069 -0.8912842237136649 -0.36749240282828327 -0.25749546738215007
P 2.2054840938212723 4.47673713890464 10.44090160077582 -0.32660594902656653 0.8289848514538111 0.5258808422039266
Ni 7.57727209696803 2.8825607570383216 11.49142543973649 0.934652563396971 0.533039564735895 -0.3402757332041753
P 8.533100066570542 7.132841240904115 1.1245845962473096 -0.8695056943859928 -0.07954530382449526 -0.435801728727643
Ni 4.637461682872548 5.563697768928622 6.476872165210167 -1.4936965226164276 -0.10937884224616001 0.008413163764359704
P 6.539115510178588 -0.0875746604076126 8.330794919849101 1.6277602692037774 0.19297106244651926 -0.8019029076353544
P 8.816456396850564 2.129344628748629 13.102184512647115 0.4691718195476565 -0.5535916778556338 0.9721842417938417
P 1.3351529978451482 0.3983548289845131 2.7809306426997358 -0.6545722687357695 -0.4968772558827249 -0.04553295143479255
Ni 2.4950019460722133 8.783088393710587 9.637813063708048 -1.0573654037478757 -1.1430998671022183 0.6143242198490001
Ni 8.242495428680485 0.4434435389409218 11.718816914625933 0.11430199057939024 0.5480748618024626 -0.3666809626705814
Ni 6.699195350801258 8.871311441482554 4.924521373368573 0.02665642624526377 0.11288556984783785 1.3451546370175607
Ni 7.312759524464545 3.635159812126144 2.9787339180618555 1.0336649748071425 0.654645545175866 0.13019500766056288
Ni 0.07507109952910526 7.62502619475461 12.673552572560654 0.34784428958005253 0.2801535711012981 0.942356359799132
Ni 4.714255061338218 6.211993032804675 1.3997053017943009 -2.081715528911996 0.08849505681861533 1.0084169988736311
Ni 8.383786771813352 1.1385461076908343 9.255956193328185 -0.9282397178920917 0.03623301419010534 0.48869934805762294
Ni 2.4835722767659174 9.327567998907698 12.330032526102995 1.3365841217397303 -1.9625988905527811 -0.3529499862377341
Ni 5.521478909863302 4.194025511969857 4.383885121113862 -0.5452260794997578 -0.4722345176333803 0.932460955062291
Ni 1.4081610466694907 1.2680485896536302 8.353643206404346 -1.058149590212068 -0.006723177656446487 0.16774519800019497
Ni 7.358671612693302 5.427287751123987 12.43123989924806 -1.5859340771966106 -0.5029424882401984 1.380161492110049
Ni 5.131479436233078 7.819441093535113 7.378633470271438 -1.215505731668455 -0.08507240429031156 0.4582785696739204
Ni 8.688381472295081 5.312880537487556 8.47621512740583 -3.294678439553939 -0.6453674623080499 -0.9740503484683032
Ni 2.827788602836434 4.4839301862279415 8.272993580929372 -1.4065142710719647 0.4394115575660884 -0.585749493535101
Ni 7.268569715172355 7.175999524843925 6.925966989474492 1.301736675043242 0.9658757830773106 0.43226131967455234
Ni 1.5571427797062722 5.6384833569762645 4.275952571073183 -1.1464315025786127 1.0656464128097451 -0.3378100452725021
Ni -0.17486104631942576 5.792042483764237 11.10912372404841 1.575023600931694 -1.175210374483518 -1.3288366165838275
Ni 8.159660258865152 4.09211633318326 0.6840477483886336 1.0292707023941887 -1.5549774809140962 -1.676892507954054
Ni 2.5267213506579376 1.8444594305356143 4.750631066086121 -0.33604961093796964 1.8445508026673973 -2.0513073489337836
Ni -0.010015926970666417 5.426375956392865 2.2022007117844513 0.53836817603766 -0.9223763171327792 2.11383169272025
Ni 9.445180309174741 5.062542228531526 6.2654140729959 -1.8088867736068848 -1.0031050997424142 -0.9402344283601226
Ni 0.0920129824371888 7.944559592750289 10.615977241208732 1.259553613917289 2.396628614981666 -2.796584280544977
Ni 1.2266402147937532 1.222799624865691 10.888957531649533 -1.1231051691478464 0.9528760283835331 -0.8425669610136198
Ni 5.673813100295322 1.3799598803392097 6.856734139238909 2.213450884476485 -2.131358131639787 0.1788827026742532
Ni 3.883785052193399 5.913044091617676 3.973195275125383 0.6602145546232114 -0.6728255585190026 -0.5187938534501582
P 4.431921046362789 7.440070015053531 5.343824456049436 0.4451456318363883 -0.20620273064544486 -0.5127553605655621
Ni 1.495592030331593 1.1881330049874488 0.5536988630340177 -0.8880443766201287 0.8099075231073859 0.8622960640114311
P 5.230137468150114 0.4323850345605272 1.3063319952986594 0.5217395663420433 -0.25901318957825714 0.3391845570225255
Ni 8.629096394676525 0.3337463437438465 6.940457157661113 -0.5318807685411033 0.1048495869172388 0.287897219602459
P 0.7895912120328165 3.279651967466168 7.568820036111957 0.06940770116986111 0.27342293724568395 0.08587433136631663
P 8.211789129351564 5.264868558362881 4.2508929520437695 0.7094689207736491 -0.16612745989111388 0.6916506616453056
P 2.7958481571037708 6.91712350158738 13.191785383568336 0.3611410066889587 -0.20535195260937536 0.7002060074144845
Ni 1.9377111644004397 9.046072098281078 5.62039021809454 -0.49775323072977506 0.16227389047297858 1.9595585610645607
