# total energy = -340863.75553498534 ev
CRYSTAL
PRIMVEC
9.25299915399560 0.00000000000000 0.00000000000000
0.00000000000000 9.25299915399560 0.00000000000000
0.00000000000000 0.00000000000000 13.54269956936007
PRIMCOORD
 96 1
Ni 1.6430735360151103 1.0333379148065205 4.584230868536055 0.8491638975048473 0.6247078770761693 1.1122584562413296
Ni 0.5067645472882051 5.51100291931597 11.689543093908847 1.0664136299930733 -0.5438019454587216 -0.1352927338984444
Ni 9.107532589346388 2.4131266176622703 3.324854217390178 1.0679215819971672 2.3408601018617943 0.4940734678853427
Ni 5.8308790942762245 2.998388056551801 3.9077727969363494 0.746838876781675 -0.2940640105348032 0.14259800931060604
Ni 7.937268795538945 6.980286628368295 11.385116651356205 -3.6515228757500724 -1.2278159164943756 -0.613058465762699
Ni 2.6010365210783206 7.295582568830276 0.7614209588927365 0.7637104557260331 1.4008575870068196 2.3719516810602763
Ni 2.4616123323510677 3.713931721170009 11.123025455066092 -0.1229583807028076 -0.5429254563910392 1.8432840201398317
Ni 5.560275138918613 1.1314104510634986 9.217120482841954 -0.42378593521368957 -0.284654030074813 -0.052833598861263854
Ni 4.190701746943862 7.106571558534842 2.853690583702192 -0.5876616229561492 3.276246972321628 0.08561722105018804
Ni 4.553391548214244 3.1337501787240183 1.7848331816865328 -0.9358219011147237 -0.6234554927263068 0.23164405353668494
Ni 7.091924061139352 7.563281082506154 7.9317012660488215 0.825625705173591 -0.1806120266605341 1.1824878819815376
Ni 0.4187046812344229 4.8764229958288645 2.884851908388731 0.5970440926123137 1.2573432365295314 -0.8041492804673699
Ni 4.519507065926004 5.791766667560663 1.0416276765984467 1.0790547157958514 0.03892135965554588 -0.38657487338103097
Ni 8.775571997709879 8.77141740116498 9.120750498398476 0.05295109827573461 0.8729517439530643 -1.4641923425097234
Ni 8.901422036924064 3.635429277769292 10.395647204744263 1.4687442235464638 -0.11210421159712305 -0.2391928124182203
Ni 0.38593148412445105 3.092935200194956 7.396914011330268 0.042925338608616394 0.04191026708054073 -0.26331644493930134
Ni 4.562829607180384 9.049516285701586 0.6736960514022624 1.1708958062685642 -1.5454605425625965 2.288430423307169
Ni 2.6615788934464124 3.2597205069250283 6.149360842289227 -0.8889468338297399 -0.02813815299711283 1.3652030710280034
Ni 4.5270575130989155 7.32274937385438 10.863222525425318 -0.16596882282606254 0.08774506602646824 2.2621293235187943
Ni 2.84897988191821 6.0186687087054525 4.35674033665573 -1.129254476578694 -0.45108745124211985 0.08377733962797185
Ni 8.18793253808084 8.432674361271431 2.0629320662231385 -0.16416185152431081 -1.5147800827596043 0.6187462601760957
Ni 1.4103698645058407 7.576050221107403 7.892522217740557 2.605412476090726 0.6669444171478771 1.544332085385108
Ni 3.4316412280925586 4.0685899193201855 13.446979070896514 -0.8738230908144241 -0.9542456550375501 -0.8336107802615966
Ni 3.3956100500394717 1.1921378834113192 7.45145026205628 0.7868544979426643 -0.8283801279902766 0.22755985616498228
P 8.596174853361328 0.3511522368342252 12.743977846404388 -0.23137460192538217 1.126765134497937 -0.12619051448686008
P 3.523579026021546 4.595085561647015 7.8093701423491675 -0.569869846190367 0.523444464848292 -0.37548673388766945
P 4.449341574612044 2.4980321363615845 11.031504042091493 0.4987580178452055 0.9294540499151671 -0.9025993916161682
P 6.059363398247691 1.6971665680896733 1.1691340026312007 1.2133048673623943 -0.6674185285708183 0.5124144322863755
P 0.40969688672115107 1.6773373912617928 9.723495478872833 -0.19745275236695672 -0.20791328557864838 -1.1185525167801573
P 5.552123246811584 1.4681178311800365 7.012477811842021 1.8061266943632444 0.4821227232813696 0.5067878301282175
P 0.7074445146054021 7.0990303643609165 1.8735786949652082 -0.7894618536585242 0.41896871633070426 1.044515030147769
P 8.056530699474806 4.613628571615784 8.659784594893415 -2.1189720992706085 -2.705847735990353 -2.0515096947525766
Ni 2.6115294219289114 2.705456614639977 9.124380449900846 -0.12193019654860938 -0.6841001029915573 -1.0032097436410787
Ni 7.6361854615200935 5.70353006922624 1.190449211096299 0.24680662020973623 1.809437503904032 -0.27289611820793647
Ni 5.978686500085167 6.12630884591438 9.616576150284946 2.5284349329934064 -0.2235509921159053 -0.7530447484820708
Ni 7.651600957831454 5.436682831457111 6.213701570741241 2.3345112768256313 -0.4054881653457662 -0.24183384958549317
Ni 6.039219619454272 6.3694776592772815 12.972443644377881 1.5726664135534267 0.3372014651542257 -1.0098753285867124
Ni 8.882342353014083 6.304336546412942 9.16086409960437 -0.010383143006536956 1.9846191035776144 0.11409578810585512
Ni 3.8246808660383715 6.858470896712183 8.766053437652557 -1.336717047773169 -0.24288543077845912 0.5754208579155832
Ni 7.68709546194333 2.651918762504599 12.16279327886827 1.1217818223507325 -0.7770920192392617 3.3197035008433664
Ni 5.522365602071284 9.159312371674346 3.8772887917756154 0.16744540737158903 -1.8848582440371924 0.40098822059288364
Ni 9.169777513527979 7.540999860946875 13.262121731846081 -0.1846399168730046 -0.9425957295034476 2.445465176868395
Ni 7.703880402104682 1.0424336128101632 10.635664446652392 0.627712725340764 -0.24996547755369208 -0.10197740757576632
Ni 1.8868067823161827 0.13543614616410904 9.631757545721952 -1.1598670592582283 0.31562708141755963 -0.6180644036177226
Ni 5.22133778604635 3.3557018654110777 8.327689834771602 0.20884556758493064 0.06876878203428156 -0.15376868121544485
Ni 2.23465477321236 7.210084858195831 12.239566336758427 0.6936185840049538 -0.2262244251830104 -2.9971197856023157
Ni 6.4554287668620605 3.520395994370221 10.553947511403795 -1.856578166145577 0.6785416350671734 -0.840465598399901
Ni 7.218542099269412 3.0684610178758973 6.051352151725256 0.5426421208226655 -0.6661872272668785 0.22004863538960168
Ni 7.508327521525854 6.510937507781544 3.6424310221023095 -0.8079002628693698 2.9284739022991433 -0.7385383273357797
Ni 1.3872558730377842 1.429477307412781 12.226294760312216 -0.25910420663016664 -1.1574345385573357 -1.7571924305563864
Ni 1.799264158905741 3.127587681399068 1.3289555023240995 0.7166394703801594 0.06490081443844307 1.0599385637916907
Ni 8.4093382978277 1.2618499777749452 1.2483739100511353 -2.007149423469646 1.5777605402468828 -0.906612112319987
Ni 0.3047484469173702 8.337905145652602 11.226897771087751 2.6571641547417206 2.1314964569898645 -1.008234707659496
Ni 7.288244940634051 1.215168597888498 3.3536190153392362 -1.2627726350752186 -0.3925444607009046 -0.41337219607953324
Ni 8.79544743953269 3.5965944410233215 0.9752494377696246 0.6656750635171503 0.0035491508038390488 -1.555236648112754
Ni 7.596749179840005 2.492572866959602 8.53502918545932 0.0033095239892072035 -0.5130332968172971 -0.2271770189042668
P 4.200963322819792 5.626249021691729 12.3233420642815 -1.0157703539149088 0.8600954568156864 -1.3150711873686192
P 8.874199713906041 1.8398940774550747 5.424297692313799 1.0536231630966242 0.5072719688534876 1.1560132327297767
P 3.2707315757188584 4.7730484911526725 2.3565787649566117 -2.6821892160311487 -0.16886979852294143 -0.30456799538992063
P 1.4953586601960327 6.799843895134279 10.023736789983921 1.295450327813898 2.301929486234868 1.5993704052071747
P 2.9895606955187644 9.26095656554008 12.91928794110064 -0.7641087196057162 -0.24775432883498624 -0.5846842854953801
P 7.769891296873743 4.861359113478986 12.161087025855176 -1.5311973477753629 -0.0033414056684071486 0.6764076194433061
P 7.839658909231288 4.607725158262454 3.796045610075123 -1.9775210590802523 -4.031292810394128 1.133699656834241
P 1.4905656067210715 4.318679975924923 4.5809534562950684 0.30705270948498736 0.06581458450196408 2.1381059918865826
Ni 0.9951137759936535 5.528093208443873 0.544627819140602 0.5016885612284392 -1.5510318660027869 -0.6899033399368958
Ni 3.746252446629545 1.113348597042023 3.1916887571773347 -0.851730629790759 -1.5104968820032179 -2.7129648066511085
Ni 7.0057508815789 7.728919017361911 5.628441057151609 0.39081333694241077 0.034075344417154214 -0.4797678498959479
Ni 5.495781735983322 0.31959673439086517 11.564462904210329 -0.08393263425891352 -0.9597516724574439 -0.6721730125366682
Ni 4.491674044974877 1.6812421568340588 5.191796661482331 -0.006061632813047626 -1.565446241655904 1.681043039787318
Ni 0.7163995670244514 7.179013287599461 4.568047373308821 -0.1900788285003888 -1.727566637270154 0.2596469665075141
Ni 3.263967633459791 3.101716296233061 3.9184174469703175 -0.6872864711393388 2.360220508666277 -0.7344065645555933
Ni 4.998932702408957 8.262678263893074 7.214493912212856 0.2594978425241595 2.4846176786981404 -0.15527843299175192
Ni 1.8698923001690217 8.570904913129436 2.999829673793884 0.7257907978621242 -1.183790402843045 -0.3386821634648102
Ni 1.0986178226556556 0.2557057016895905 0.7071798788343907 1.1175868104327786 -3.1711775560841 -2.5233264081222475
Ni 1.253503772689202 5.403075939138463 6.812343771465023 0.134965946686645 -0.4526635374799881 -1.2303741641398553
Ni 6.758427471671101 3.752692533924088 1.905132346808771 0.8134237637907604 -0.6131116875981376 2.629687289477691
Ni 4.133425683217973 4.795274194718034 10.09503947487331 0.6512195502134526 -0.113755631157617 -0.13812249003775567
Ni 8.783548082836166 9.12069960690405 4.653826375112454 -0.25271013017836474 -0.846334141365536 -1.4812441557856877
Ni 3.563894342605342 6.650454226498661 6.5716492100310875 -2.5366159261423022 -0.3765136324902871 -1.7743239480303505
Ni 1.6614684980000967 4.918986791166359 9.300692644387325 0.11311516936014067 -0.797493208603433 -1.8052646034732653
Ni 5.0118961539889195 3.8442972238895643 5.962010745311856 -0.9068124012562511 0.6759828732010617 -0.13924477656765696
Ni 6.838114298942078 8.50707772612117 13.460603186604107 0.05348383085075305 0.6170421330007952 0.16579707313488867
Ni 6.026607781835793 3.88500116643079 13.409046401551718 -0.5995712299095416 0.4235627634592899 -2.0078127680852584
Ni 4.669368637509929 1.7279975607123974 13.080148552579713 -1.2297061915385532 2.3169907514433645 -0.05193679807860733
Ni 5.6482619062804025 5.925888887868702 6.914089748319607 -0.5865601623618544 -0.3015587762499516 1.0571445459863213
Ni 1.1077135206592983 0.6601792704829121 7.120521379806757 -1.0001575870783164 0.17012346842438444 -0.17305375469730197
Ni 4.878541932596753 5.152180871621908 3.6505431263136967 2.7629776482341253 -1.5013602098092724 1.0299718422262714
Ni 7.718398357514361 0.4150284647371215 6.5675723386776745 -1.3358989227472478 1.5352296088632076 2.138427636892059
P 1.3013787894448965 1.2556874804499951 2.3442408161081305 1.0782059946423108 1.8069149945924945 2.752690664485821
P 5.237909907231014 6.9634646762109975 4.886598518814222 -1.1541250145681285 -0.21753821026292214 -0.03005902416890952
P 3.867059601396137 9.12810200609318 9.790490892734047 1.402217443468824 -0.6073624438191862 -0.5051477234216333
P 6.652637934259454 8.458268156467847 10.035221612325856 0.7707509075125822 -1.3983427910047659 -0.7025819638458287
P 9.168056455716506 7.345770835332574 6.640527609186039 -3.190408379289254 -0.15028817886601212 -1.7896855180880855
P 2.7347238504339972 8.705887662343212 6.12541685681209 -0.26069520526637036 0.40366859563852414 0.30424223661938576
P 1.1619175887216981 3.4119878582454204 12.688249809408925 -0.9362206792150392 2.1601711992167374 2.3305142398510963
P 5.983738637531747 7.5234006568747205 1.8004069042805628 1.4765747753344765 -0.13782604184325942 -0.8013776312595037
