# total energy = -381172.4006664702 ev
CRYSTAL
PRIMVEC
9.18378630907464 0.00000000000000 0.00000000000000

0.00000000000000 9.18378630907464 0.00000000000000

0.00000000000000 0.00000000000000 13.44139957467571

PRIMCOORD
 96 1
Ni 0.5466759007534443 3.912100109314074 6.549993950040252 -0.4615731812647922 -0.871947471058266 2.441430344677389
Ni 4.231236683649109 8.532123202686908 10.00404353326701 -1.39589921456028 0.7388399177365985 -0.2625782812216962
Ni 4.18781574196692 3.24803888868047 3.861902451712408 -0.7437856917776481 -1.9575531005987579 0.704098143380039
Ni 2.045265946783014 3.125729222579923 11.830944756157104 -0.19909774416954742 -2.6181006130813556 -1.008775153543998
Ni 8.30060913355275 2.8017068739270097 5.291018991050477 -2.440210613337675 -1.4472032641508947 -0.2270608050413767
Ni 5.871212956706096 5.113054661521794 7.569873624295482 0.3452744719703473 0.4742309792381188 1.138411974708246
Ni 0.5174475824375109 3.2907159436714024 0.17055025883916766 -0.41306006415575314 1.1824171766446023 -0.7479431655894473
Ni 4.277027042199742 3.9422596635620235 9.503969837774163 -0.42139866592843556 0.0013300316653331935 -0.4779871038464414
Ni 8.325065556501073 3.3057681694364422 2.8655718423178955 0.643888049549046 -0.649862521964926 -0.2610258491329117
Ni 0.22166629507201296 6.09547183465393 0.023750189780944897 0.2869166008567446 -1.1076332987644923 -0.08104168586436365
Ni 3.9994195495666642 1.6784747052760505 10.585546188472062 -0.3054390851409643 -0.09693136051142662 -0.5952206662503298
Ni 8.55179487296678 0.4547912003252582 5.715700229573869 0.015734122905805163 -0.5843654687033807 0.32912074502862027
Ni 6.218929474043452 6.783732332219126 3.174535536555351 1.0857940914022137 0.6341813637842433 1.6310520525811716
Ni 6.210030385107318 4.304670238998259 12.881310009074351 -0.09438725393333422 -0.11072404342014477 1.253373967469138
Ni 6.517457631894809 6.818630720203965 0.9265981199290187 2.060876737789773 -1.8905383251411054 -1.0540185987628299
Ni 0.8748686067705452 1.4570811686574978 7.412918124333672 0.42172211070612536 0.24195674831660263 -0.4791057908319168
Ni 7.792314112553579 1.3444144781843406 8.222238374682378 1.1037275359521832 -0.30852260916229446 -0.19222081454405607
Ni 0.977540582600571 4.905611296310864 10.886377639930418 0.930999540025416 1.3246439186587187 0.08884832639297602
Ni 2.5565365145472083 4.890191719093353 13.152678037287192 0.09368354299809027 0.2881468737194198 0.1343134007043106
Ni 2.512022702293916 3.7683738535344102 5.547306323760712 1.671347923986741 -0.12462368422037247 -0.9863458780062044
Ni 1.6729368821300352 8.027391490776713 9.265814972757944 0.5863519030057902 -1.7496457285573803 0.36542523588660936
Ni 6.597540248533701 4.787608825990551 9.927723513880062 -0.591158323255498 -0.6623395713860142 0.29093420665656994
Ni 8.127880480600425 1.383206791565382 11.963504446160249 -1.3691111478331581 0.5830326088245701 -0.8643004960359695
Ni 6.589412597647758 7.589582029720604 8.183822596540121 0.9628375104716193 -0.9434573061727946 0.43029648263869763
P 7.412950267585762 3.6391855314863255 7.083886020247672 -0.4471369512348042 -0.34734986644213733 0.5231289904904023
Ni 6.256996268305861 0.5306896839204946 10.022323859920649 0.3965803213331751 -0.47420423976524134 0.21333239971169066
P 0.8525042503440509 5.10686478954764 3.5979806374411742 0.3885325113280341 -0.21418574885092143 -0.6965069612963424
Ni 4.7008955156345404 8.82716152173978 3.252159653598574 -0.055048861345027775 -0.00808046301528931 -0.4216002404162804
P 8.656315544981371 1.0745397336257982 3.5483147210669626 -0.32887340490450456 0.10800664448898173 -0.3196395450110624
P 4.910405232765624 5.1776901495842385 3.7742643340747986 -1.230727433714216 1.8647252207327434 -1.1748218807958477
P 0.8356676148986287 8.133344833455945 0.18086181411005622 0.020470352039209907 1.6985941612972038 -0.4192507663474973
Ni 2.959080236166008 9.173105568318958 7.647564782978782 -1.5250534396611544 0.6075390786063666 -0.2510188585188709
Ni 2.9669782923941552 0.17253671181840993 1.2085660743029387 -1.1905830002848465 0.9058050430376593 0.46978631320320385
Ni 0.8968206111916398 8.336260592015158 2.391171421459683 -0.5753642936460348 -0.14021639645230688 -0.13572133679543075
Ni 6.205254816225183 1.360798352964591 6.3052396161803745 1.0592376810699242 0.07165253133997983 0.16183011806734066
Ni 5.014163650516336 1.5997972079428633 1.9754958037936412 0.40452862964597425 0.6269370235170042 -0.6962074277780526
Ni 1.6075758749489577 3.444278034591003 9.085350816595188 2.11123693540988 -0.3580196874511576 -0.4187792260277175
Ni 4.302714092513845 8.489005325953007 5.657673394141394 0.30189276255060266 -1.3001266502436448 -0.5852576415003469
Ni 8.610258856627697 6.114996564352816 9.633585205885744 -1.016436783854314 0.7318470313585332 -0.920280353835699
Ni 6.086774789016656 4.147994844518958 5.058012556640653 0.5220874365997653 -2.828600171329941 1.7619870237315525
Ni 7.2482482438699485 6.066304129327655 11.87492499042568 -0.24593321646584745 -0.382268018475561 1.2840523703896014
Ni 1.1570009509194468 5.636659054302735 8.21184875722784 -1.6799459500683969 1.1601336826560535 1.0194987106090894
Ni 2.0668845797609903 5.836507428233805 1.8577495611114276 -2.051529235136602 -1.0289793964060152 2.336517251512066
Ni 8.907124749156619 7.451494618736385 4.338023914125452 -1.4379856022073685 0.274016862075941 0.46341023447353097
Ni 5.115157748587196 0.047429664407288935 7.8418872726860425 1.8077310627358867 2.6980701489274628 0.7486736159975687
Ni 7.074702233935872 7.6492307218157425 10.417098098319665 -0.7313726628252759 0.7854756153172666 -0.004793050513269164
Ni 9.077300309514264 8.232033801162544 7.731560610965132 -0.022681757868231903 -0.35327625922890127 -1.3019418490755126
Ni 3.9716936986913414 4.090412504343974 1.776012026179149 -1.2666886823001733 -0.31763974097221426 -1.7924270853889646
Ni 8.099052575367685 4.93585350463562 4.637376775987609 1.0741472511919048 2.03031789116631 -0.4127103941258183
Ni 5.178039133464087 7.811076587988586 12.035791864977686 0.8861810981591447 -0.917839348494374 -0.5019816669888258
Ni 7.565327650071141 8.78959983572452 2.1780313535995446 -0.20915924217060752 0.0006042092429021852 -0.7054034924550239
Ni 6.254305418916503 1.9638700487015344 4.09821596757311 0.03026239842896724 0.73999871393139 -1.522881628820816
Ni 4.98060609533302 8.380737669123203 0.7691549609140514 -1.0666067198404856 1.1521228965364352 0.9423008239708482
Ni 5.998491051201326 2.445890257062647 11.229697878760314 1.3198094733845527 1.253405334927706 0.4185995059167436
Ni 3.9386045166099275 1.4952581683556487 5.609082899144294 -1.4244808828527145 0.9865790770629332 -0.3411277967918254
Ni 8.262092333761062 5.961608965373139 6.954525961395556 -1.3773942137775568 -0.2816964901083858 0.3431296577132026
P 2.9878805900398113 5.725668311236696 9.539804971962804 -1.514454323989069 -0.5835697122749627 -0.008528349185985312
Ni 1.1521610955331283 2.0368260471624704 4.858770312606161 0.42510773934890655 -1.1555152100474357 -0.47195298183721945
P 2.7547226231558435 8.142583722485616 3.347109901897639 -0.19151376117470242 -0.3293066357871812 0.7335190197443173
Ni 9.169275929426938 7.2446298320631 11.479439008587498 2.094545333686812 1.2719494164784804 -0.31059183298649734
P 2.684999317476661 2.63600381750321 0.584142993769693 -0.47645369792105036 0.15715739518201968 0.029500323451962098
P 2.0612916538971042 7.23917466299389 6.998398745364285 0.5846428907344835 -0.6043586239958558 1.1264460605956212
P 6.367394563560004 0.6010227930107807 0.2357781011187242 0.313400506079886 2.4450401735158342 0.34821658531780675
Ni 7.777261886788541 8.44661296833774 12.968437508193025 0.7487052405664525 -0.9250978298290002 -0.11475064808103463
Ni 1.0355178255869617 0.7090525897751102 12.1949918823141 0.6843744396988666 -0.8022505207827603 0.2802600147721754
Ni 4.333250182000579 7.208629389720845 7.7400152046437745 -1.3634439222450518 -1.9408576422209476 0.04647088986802964
Ni 1.5681866154576491 8.527714985257242 5.491685640341928 0.6158002901738943 0.9789202749660948 -1.3098058252046216
Ni 4.199910788539561 3.844847242152765 11.84685933945682 0.4454793610267231 1.116565825367432 -0.39760953392863785
Ni 2.579578634403514 6.980100051138025 11.275614055183418 0.060103907270431974 -0.2516654909639343 0.19119854392712876
Ni 3.0820327673083803 6.1955567378799214 4.497317606082247 0.26784775715075165 0.45972404387119536 -0.266506926852141
Ni 6.669274803415168 8.968784690454042 4.33975781298112 0.6282953373171115 -1.4343048109216718 1.2312388261329956
Ni 8.556717382429905 3.808929453887317 9.038117685214972 -1.438578241486045 0.9284009260603042 -1.9077197220163984
Ni 1.5100624318902696 3.2580767671192667 2.2974178205170457 0.8732078258279283 0.3188144780066058 1.5425521106665496
Ni 4.302447762710803 1.7615604200389015 12.966084622139942 1.6082759352269203 0.6519410017605095 0.8885292866763471
Ni 3.257792069743601 9.166309566448227 12.371921199125444 -0.8442258367732816 -1.2691906227864205 -1.975424838672856
Ni 0.9676220933838274 5.866253712097724 5.613357033293805 1.2212660311909997 1.1097493166662307 -0.03818268171730843
Ni 1.925619578712889 1.116022896396197 9.761762393060902 -0.5745921913667007 0.09205989135173823 0.1598017747834022
Ni 2.777112694184011 1.3024353909531048 3.231688993909573 0.1086252519095871 -0.053085824081386 0.7708776628984336
Ni 8.869379387415123 -0.13953202057106456 9.865261828037621 -0.5337982972787904 1.5192468602817062 0.8792519751394793
Ni 4.788811901997397 3.2092373915131165 6.996033002010366 -1.8444944955081652 0.366090380274434 -1.0747411760221621
Ni 3.064317243512919 5.110575039217608 7.349488467413964 2.2958370001838846 -0.21034452072796034 -0.7429487976986495
Ni 4.863154652191415 6.364253708641368 10.111655467754153 1.1925177554137139 -0.5273363437035304 -0.06405594993964452
Ni 8.183405652641564 3.905763296758932 11.522330964178128 0.16690136194266095 -1.138176204548356 0.6552428124402327
Ni 5.516333086045536 6.271139299226032 5.604592946016455 -0.1595148396706027 2.0303034929886064 0.30735995631276103
Ni 0.14111989722437474 1.229617149286846 1.2533664206891595 0.5799130893589819 -0.812161352138569 0.514124730109263
Ni 7.517599512608719 2.51908503396769 0.4986823518666108 -1.6264657187620697 0.3058396630134926 0.3329357478993363
Ni 8.383621378025108 6.1600889551437525 2.3706594347322785 0.9287637087163618 0.7725113418471147 1.032120513138158
Ni 4.289379234789112 6.4656978122415065 1.9834664119336523 -0.07064363045949125 -0.09653463929364019 0.9341234303663785
P 7.990500221162215 4.746171582151712 0.957326150549669 -1.1175387308036624 -2.2110697858388177 -1.3503729479937066
Ni 6.167895173508781 4.037458792470138 2.3788587191514527 1.0510672294439898 0.2185553386735268 -0.30750419520010913
P 2.9784396577112813 2.1743256958227333 7.748496431302721 0.012011936859211569 0.5823533233693584 -0.12037905001140559
Ni 5.8540392763030304 2.341948163585699 8.713897885156355 -0.0886755482605376 0.7503440617214561 0.8632185758257003
P -0.0023786006547560916 2.273556506921728 10.20235821488401 0.704076031892852 -2.1982510368075947 1.0589615445904021
P 4.821138829814932 5.963307965840822 13.301877829708689 -1.3353186247637454 -0.25676578830497715 -0.6177481579288845
P 7.133193768955723 7.819149136156659 6.178863369500964 0.8408736324715971 0.13055470499282676 -0.9108698591550763
Ni 2.7915955251977187 7.134249904381581 0.2751802179108691 0.5143455878708174 1.5050415153156016 -1.5698320294284256
