# total energy = -381172.9021849281 ev
CRYSTAL
PRIMVEC
9.18458645771322 0.00000000000000 0.00000000000000

0.00000000000000 9.18458645771322 0.00000000000000

0.00000000000000 0.00000000000000 13.44257067308468

PRIMCOORD
 96 1
Ni 5.45696691852233 2.6036741142946247 4.17347423584714 -0.24043054148006332 -0.1256760367442868 -0.41444871697316366
Ni 7.007389399629602 8.402821984768785 3.9514708419263416 -0.11030315383264229 0.6410253832892702 -0.6939597693944564
Ni 5.7019749460686855 4.3917753229789165 9.299113628199297 -2.114321744982791 -0.240245936273083 0.7768217962970105
Ni 1.07844495375864 7.494888878041112 4.793688232763544 -0.2616136033155817 0.3701005298750917 -0.7754295439351742
Ni 8.310425045305735 7.804831931631578 8.358886597133054 0.35764122106581636 0.13634251531919744 -0.6806201148627569
Ni 6.263327683945641 4.28673120800487 5.843108974951888 0.7157285285301157 -0.8580480873683546 0.35120677829438224
Ni 5.159312841572177 0.10797950879635178 11.430661424845162 -0.054931104820240884 -0.6914408596273447 0.5061995617249153
Ni 1.1240372407859347 8.58930582759759 12.679839574167678 0.3758055506796689 0.2871726827316087 -0.17485661223399562
Ni 4.987570259959893 9.334387032375028 4.828530879835814 0.003904220150412631 -0.11083948595208654 0.49309490602215716
Ni 8.54881098603769 7.692495255033908 10.908471763496085 0.9340211004605592 -0.8272871520364139 -0.1520262446030414
Ni 2.6281785908838313 8.453392317639914 3.184786571412218 0.7202495563289208 -0.24308212017029748 -0.18937486045482868
Ni 2.8761348706734906 1.292721355117782 1.3799877846022977 -0.2939318558323131 0.5411148855448615 1.6836316264501003
Ni 7.937246114160287 1.8695133827797668 3.7084292343341647 -0.14411418884481633 -0.8100214229774308 -1.1290639578344426
Ni 0.06331210962233057 0.7681914611469153 1.1140719645118382 -0.056577639284728365 0.3194364278613208 -0.1927427484857971
Ni 5.131501913868984 4.959915470225972 12.139152155753134 -0.043907500016227605 -0.40803998523334245 -0.9790873966715783
Ni 2.6761496857959104 5.597206368687471 9.983541661125239 0.977696944081955 0.4211793508287779 -0.9352058647972796
Ni 8.415845728323319 4.625660816361281 1.5418762234362613 -0.5348701901867304 -0.2824523944378039 0.04768059390541466
Ni 6.220702018334506 7.028908885629794 11.498775236251916 0.29897198935938185 0.015880418675682326 -0.2446144976544239
Ni 8.56753835776385 9.278636592758655 5.715364236163042 0.5010699538078338 -0.6921160313174983 -1.0571103503142762
Ni 4.4387085596246605 7.580746391967613 6.700085996178467 0.3295146380329293 -0.7098615282263774 -0.439742715653262
Ni 5.021259322976838 2.436257472889806 11.418428474182058 -0.953387420802313 1.9972463054233216 -0.9935333968935791
Ni 0.42140443910157466 5.1937183023304865 10.6010664111356 -0.7310656731078184 1.252881858324068 0.5635829847403907
Ni 7.7108460587165295 3.7746262225534486 7.936506754952854 0.7109326498033691 0.611019066735167 0.04192826480266973
Ni 0.961295553872834 2.980848340536139 10.809022898573815 2.0140397228315767 0.20644004346723155 0.7785475207388657
P 3.3859896324501166 6.873900620488849 4.615412654825209 0.3059453353534215 -0.219223568385145 0.8640102184890603
Ni 7.032463320577327 9.094706064956762 9.726936256296577 -1.3894380323159683 0.10088905960759398 0.07429485405883333
P 6.6472709503843985 1.684857272650082 5.786314247858681 -0.8055582449997547 -0.8011488030781493 -0.03626669564151819
Ni 6.8040059177737575 3.3395064405393318 12.991693021735115 -0.14867841117673106 1.2861920424404236 -1.5743615418676629
P 1.0175419611563052 8.267082981953235 6.9507636689266645 -1.7548339576265388 -0.6338165242456568 0.5576506784163556
P 4.7673789849412875 8.722372115762667 8.975362467373369 0.2262971874024748 0.05486374191741519 1.5421417626020086
P 1.5274150921057867 7.102064116526732 10.899571899247606 -1.2211071370156326 0.8053183610748066 0.6051356113711965
Ni 3.2753153659958665 1.3137540580373033 8.67404741427312 -0.5532931727786085 0.6406039794811356 0.688444496003182
Ni 7.397899645364192 8.855071020470634 12.84387904314302 0.15181695680571275 0.5457431283454924 0.3328665852242977
Ni 4.018945406117723 3.0915501607496725 -0.030648046450720973 -0.23631600509105755 -0.3477136775394592 0.634078776768108
Ni 1.5847452805877311 3.4518523017234304 4.3207518345918565 -1.3656342450281511 0.9315171030917827 2.748875147394472
Ni 2.799911987909688 7.760415271667035 0.8022231092376152 1.2631624143144697 0.3900376351186508 -0.13336234964495097
Ni 2.8455318286962656 4.259517278419481 11.822149829034307 -0.5859428404928295 -0.5568780619163893 0.25580728104644973
Ni 5.6915320713003466 3.64680433323861 1.5205560429615517 0.6031316935672904 -1.1500899252668064 1.5216269304781085
Ni 6.89749582302171 6.18945605530734 2.874894951505746 1.425200277517242 0.7873774603256698 -1.0814424993017375
Ni 0.7742505328132945 7.23792251896584 1.6240773535058788 -0.1887842780586813 -0.7217171420133829 0.6395020046662083
Ni 0.10206187976095978 0.7662773933353746 11.024776181430537 -0.800328364059383 0.43701246120629256 -0.16009770875726623
Ni 9.412456017010808 8.90435551124188 3.0419460463707413 -0.7694630419390941 0.09001792122104497 1.7968840927190537
Ni 2.73504125397057 8.076686505306213 8.31724092689376 1.0655294276159069 -1.4985435662960835 -0.4723011092052576
Ni 7.93138634801939 4.27950293848624 4.023912430457844 -1.5313690974665368 -0.7089354168676822 -1.6648846848599006
Ni 1.531658371035402 4.159359363424991 8.639513369304822 0.2996764716255742 -1.6841581883775318 -1.1427936487157093
Ni 8.592483694501587 1.9798110811904797 12.754553429381403 0.04198688595474705 0.20510409826462742 -0.22844868652783884
Ni 0.38173161802695776 4.233929020631801 12.985483322851321 -1.381215644406176 -0.6043642804228108 -1.230084400813578
Ni 8.49763447046233 2.6951434105284737 5.859589796837822 0.5619593330940387 -2.085409432823815 0.02107687527495725
Ni 1.8175561773580495 2.247468298867638 13.056956855973342 -1.0902518700632513 -0.052657478294715766 -0.28266888132398416
Ni 3.1995700817263057 3.3884235478534674 2.918422543504085 2.602806920147079 -0.8241645472470321 -1.2553470320351088
Ni 2.0732458789198644 4.3129991251882025 1.0660200452391952 0.4658160157015461 0.43994480436173905 -0.9201805950330411
Ni 4.70214086754506 7.204077317979624 2.0409179716115102 0.7529313628326582 0.0067157214572787565 2.9277876748653964
Ni 1.920451099108005 6.2621704260557465 6.533143279433318 0.7122092025229476 -0.5409847877249006 0.08500658404938263
Ni 0.9008646490128851 2.954589607939234 2.32447554531237 -2.216351088842415 -1.6375412598499413 -1.0992813272553714
Ni 0.5955680776962108 5.489342585680109 3.2844632140778938 -0.17062534776146743 0.32032911487891935 0.4840592781824502
Ni 1.4806747317750248 1.284106213048563 7.042401043092141 -1.221228750195161 1.6559166770333351 1.1327689174898554
P 0.24701302276353054 2.2173887783167943 8.93651350370132 -0.37629277472873257 -0.626362896181089 -0.7516820638065892
Ni 5.636755197845313 1.360283172880227 0.2513683536475642 -0.07119101832252901 -0.49706391797223426 -0.21139327370744884
P 7.637213229325349 2.4812343926264417 1.3797857237008875 0.7054582569523592 -0.3544450827260218 1.2449505192921333
Ni 3.760757497047563 5.570956820676994 7.828428971081725 0.19282708066948726 -1.5606768452917186 -0.62276592285845
P 3.6669461312746408 3.4199817868191773 9.426858366988144 0.04719568384919614 -0.12471881503734006 0.7498887193515924
P 3.4630850509245548 0.3165577927357246 13.150786590919118 0.8450987262965381 -0.5751696611367256 -2.628015301091906
P 1.884015844749166 3.562296953516987 6.476603883842802 0.11311774046330196 0.4215313348515579 -0.014186575913027182
Ni 1.2199702460236643 1.1389162707988711 4.59903929260048 0.34675362761903505 0.5624707255128184 -0.7686893969978632
Ni 8.588644537374792 6.821254571085052 -0.1346653246621463 -1.6507263910816474 -0.6881357065135115 -0.7027809672305122
Ni 5.218479947339668 7.855723725027678 0.04025787923006389 -0.3870356150675335 1.148719527281841 -0.8015709782172324
Ni 8.155297380541228 6.618155811408467 4.976909710493216 0.05787321816770033 0.16065949479800717 0.014471197032981529
Ni 4.733065370047256 3.2693545694042645 7.402608582825694 -0.5317982361296261 -0.3163480187439842 -0.11183964508182673
Ni 5.119681351136485 4.897258221615939 3.364218488781805 -0.6683613521000619 -0.32977406234190304 0.17236881281513539
Ni 3.538334367527017 2.0262942731012648 5.681852435664153 -0.718228412133834 -0.2748445001835589 0.01614601363224316
Ni 3.7609411887761177 4.314992180443022 5.391908819020086 -0.396708105160291 1.677162216675673 -0.24025596357541207
Ni 2.698422307883176 8.963476694077233 5.830701517146656 1.6541413303004673 -0.9994261082289305 -0.7168294749037784
Ni 3.567816889960058 6.825415188736816 11.861254124209047 1.2008303890444674 -1.5817051267169273 1.928949320819136
Ni 1.5915877974763963 6.163619813686111 13.081611041321318 0.7034756793046917 -0.23820396614238973 -0.7400915307555125
Ni 7.9161766728950544 1.087409110112113 7.687551192159856 -0.27002676707994144 0.34814330887771006 0.8620615794031218
Ni 4.213226962823678 5.29885426316881 0.8573095032552631 -1.1645541803212525 0.37489100928519953 -0.38552483484996186
Ni 3.1051892715948646 8.564847273940522 10.68055257745718 -0.8096915504418377 0.6853344896192907 -1.8994945058931287
Ni -0.10264877483369228 4.725974869325041 5.787860013754469 2.5304758746828355 1.9798754182450418 1.9600846087713595
Ni 5.25498867838993 0.5612535443435367 2.4584979489245744 -0.13572493633985658 -0.16321979932601569 -0.045701615802172905
Ni 5.052955330738963 0.7853941915260697 7.379756413334838 1.77665773836985 0.38598994741183845 -2.6027678393790272
Ni 6.745950146964022 7.988734905674189 6.591094345957778 -0.19933608543259862 -0.3398970097085178 -0.04273841940879092
Ni 6.438753284715449 5.773109567951521 0.5338072447215254 0.7905188341681288 0.4557702014297699 -0.1648264816915032
Ni 0.9594953749329974 -0.1119527608849915 9.200458311544388 -0.569998144238115 0.7148929200026978 -0.5619768165955353
Ni 2.6842780447844587 1.5270936315808157 10.993092113630768 1.0955023198289133 0.6331943172806256 0.8282482303981027
Ni 6.204913714265224 2.2643954916539606 8.966597616545378 0.05442871126252561 -2.1522450023911257 1.355576603681833
Ni 2.8810027014801927 5.696923423533429 2.784412998312879 -0.13181557398312138 1.550596064016949 0.8009274310959625
Ni 7.391562280729053 5.703664909971389 9.707243584536863 1.2137607239528903 1.4907112147358583 -0.36051391462792104
Ni 8.045091527994794 3.259352554784457 10.405423698721055 -3.009488591580314 0.2338752568600488 0.16859443337436772
P 7.366892481584146 5.192055892187065 11.89011485014093 0.973205998190137 0.29640679973536693 0.06078062162248241
Ni 4.796172663392248 6.6596793266482734 9.51825418653057 0.8631147032579846 0.9497572802488935 0.9622065617558396
P 6.85598149236833 1.4659242859720767 11.240636923948463 1.6137423576581302 0.1437722321243653 0.35241416833892214
Ni 5.85247357927361 6.344739858041116 4.961572369617535 -1.3997211594095313 1.7038680081016333 0.6696677296163112
P 7.729904075554087 8.230950818946512 1.8380561742647619 -0.31052189898051036 -0.5147883318351909 -0.8757681303559369
P 3.307562448943657 1.3089964422677347 3.4933877569255927 0.982071676110883 -0.0962973264718535 1.5222625071795786
P 6.116962114633199 5.6602493699274685 7.555141601924363 -0.05273409716892209 0.8337758450845512 -0.26411862912562256
Ni 0.09580350256909868 5.85958244916868 7.984403454714868 -0.3544677084338411 -0.7490405124186842 0.022559373357754695
