# total energy = -340873.79394293105 ev
CRYSTAL
PRIMVEC
9.20026879553676 0.00000000000000 0.00000000000000

0.00000000000000 9.20026879553676 0.00000000000000

0.00000000000000 0.00000000000000 13.46552335968832

PRIMCOORD
 96 1
Ni 5.018810920075267 0.6086768898233965 5.551485311067943 -0.8908335093294916 -0.08571209475683947 1.368984906667939
Ni 6.240707792353929 7.770381249917984 6.278784943985193 0.9774925413806328 0.9034884790893408 0.7603842195662776
Ni 1.7665343725245175 4.840141703973802 11.177003343460566 0.15285054027654968 -0.6033792908017221 -1.3454922228626376
Ni 4.821336354967037 1.9434187365186864 9.84446864120105 1.6996711964114664 0.5401484078665343 0.9944661931204936
Ni 9.299907503184526 8.852443239831755 6.736437584779302 -0.10676351611050001 -1.476016331727845 -0.8571715983006722
Ni 8.813526103677832 4.518049500755668 12.324131472927004 -1.0553555724066985 0.16732327997142796 -1.265831990726833
Ni 4.889547146325237 3.5796865060163947 7.896573053984373 -1.0399353811968866 -1.5404301792275406 0.20126004192818886
Ni 6.201100636055433 2.25628307033673 4.616708581026732 0.43684045440480257 0.7344908967392834 -3.014055899236022
Ni 1.9832558995320408 7.324563834643592 10.492941292829126 -0.1976882654165305 -0.5785686595159455 0.18483737759579136
Ni 5.505321123342283 7.903647140506537 10.40351744217303 0.9477754739321742 0.08403290728220367 -1.4176193798461907
Ni 2.8546501391733448 7.560743929728076 1.2289175972429789 0.004034575080689826 0.6772218878144853 0.09286850329596265
Ni 0.7416713724884182 5.3084261751554935 3.1003966735421913 -0.09894170607323605 -1.136976784923616 -0.06868727806406881
Ni 1.5035078936818413 0.6591210424991287 4.305291449458572 -0.18051946694672782 -0.5665839763502436 -0.5900764030452289
Ni -0.04044162066000042 4.131445014154243 1.0957179485883042 0.37361214257277586 0.8555978260556492 1.5297768132787524
Ni 2.3715992368977883 5.7511430999136035 5.401331407447677 0.6247065915245886 0.31726281724876976 -0.36711830731831613
Ni 4.116117366676127 4.913955458905937 1.009481991000135 -0.19525317361247663 -0.44139259255185914 0.2234296360466926
Ni 4.976655289376147 0.1820346743532626 7.922009956593916 -0.5498823473248465 0.24499219270881675 0.42524169382360955
Ni 6.929513501472593 6.223070877458641 4.606528483827129 -1.8054492086802454 0.2229269853786612 -0.5938433262868288
Ni 9.581343719484414 2.0709436595043917 6.036310945155341 -0.9128076996077376 -0.0068072527298205345 -0.3596469386419354
Ni 5.54798276881409 4.310040628106955 2.9848219794336326 0.13689041740286748 0.4079430546441619 0.47216921161308356
Ni 7.597425400613584 2.9152983097470244 2.332619538917424 0.9136227393098653 -0.2210400527685935 1.319504026328992
Ni 8.627579475118269 6.744358096012141 9.520529024049178 -0.24864264497721045 -0.1251463894930619 -1.3263716999831028
Ni 2.9567455197643824 5.051674279494136 7.696341168378429 0.5245811495558966 0.9582213518558464 -1.0309321492570116
Ni 2.0318885193215537 3.3593308729141196 4.812025683149597 -0.2559003549808883 0.028875802494085754 -0.2299260424043137
P 0.18557033757405522 2.6728160306754383 3.772379691536163 -0.2067082095269537 -1.20230723070031 -0.27455062309222394
P 1.9859147771557957 0.3512552146083728 1.9822190292614623 0.20566459875378776 -1.0171284106046998 1.2144325532089342
P 0.16212989324947688 6.49037548119767 11.563773434896687 0.3302165491959603 0.5539745151163492 -0.9017270163135438
P 1.9140698797028433 7.921063248955561 5.533050732885528 -0.07040066121074973 -0.01930461386588288 0.027658128036900754
P 0.8794426346076049 4.72639878334237 6.534522050020599 0.28178647871903084 0.004395300854218237 0.974667927447644
P 1.225466576493254 0.8665834191933403 11.742434370756415 -0.15441222833671472 1.946418681248493 -1.598301340512712
P 4.761479407492468 6.102188548398026 4.786670662930542 -0.5422610833341629 -0.14884501866158237 -0.2908092510429314
P 5.721647038800251 0.8467614405069033 2.934016256202144 1.304825598381211 0.1895790060458348 -1.1134303650622437
Ni 8.266358529568542 6.483604083512259 6.960221237959816 0.12226443995957655 1.5431470639380713 0.24152763119898402
Ni 0.21541140875969378 1.3809971170800335 0.9072771272128247 -1.6306543029221208 -0.4752033704537171 -0.13032279148767878
Ni 6.121775920235307 4.840610917672112 12.99703083767297 1.6666412625396911 -0.6044139027138237 0.9077665376394044
Ni 1.825719700391702 2.6356009442114616 2.2252717249858955 0.1573098615994839 0.20643798658470255 1.0508751680378419
Ni 2.8854250376213058 1.2194220000267935 9.120602548523197 -0.8624814405493598 -0.7758002970110316 -0.10101298677996796
Ni 2.041300394093531 2.9092721338177525 7.483545395980096 -1.1436248863677532 -0.16265467085116503 0.33196027135994444
Ni 4.359004457565862 3.8845650066945785 5.594170877238095 -0.7445688498005757 -0.6227286418626113 -1.476843969835463
Ni 3.0164920640158197 2.38979736817733 11.380332959502214 -1.0104142318093179 -0.04653516744706179 -0.1632809915812543
Ni 1.8272101439039798 3.699179594519269 13.29339356974026 1.2159574744938928 0.1481842451491319 -0.017884079369272426
Ni 0.8261252380498701 4.741643628403139 8.859950659004712 0.8490294288095119 1.7246345512250232 -0.49908197684352756
Ni 4.663800155826698 0.43299868104194145 0.9321022119608465 -1.0105677266680468 -0.8176187757087144 1.9788027540061537
Ni 8.746778155026126 8.591836431629382 10.97659573272447 -0.7790630269227036 1.0077665097738258 1.099470560448042
Ni 6.287150748217997 4.693967836547434 9.145163585562562 -0.16135369265155436 1.6540683109706869 -1.5404862292764565
Ni 0.2491267130503955 6.544059048445458 0.18993218491461675 0.15151433796362937 -1.6996879085820147 2.8803585348491554
Ni 7.284735871898833 0.9704351310590315 6.413857767325668 -0.11148688972809832 1.0809200511393642 0.041475236425651145
Ni 6.91639391845711 5.9999091624351015 1.4275072349048397 0.8617815862688578 -0.18383696135573502 0.5833568249332083
Ni 4.111232024052549 5.9374393386797495 9.66176878742842 0.2513199346990575 0.25006369369445325 0.2415389440528937
Ni 7.409519114843434 9.1255440127852 8.42793640670236 -0.19989195793606865 -1.3284710057142926 2.1078047697998796
Ni 3.629257553202527 9.092561049874604 11.137913242257069 -1.1028613312971458 0.41696171320300446 0.40145976091266344
Ni 1.7722661398587713 7.161075061722736 7.767142755372787 -0.5588017613016634 -0.277355953751503 -0.019133378395341242
Ni 2.661766508093674 6.313067904848163 12.7057043326342 -0.8235719079683558 -0.5705655867058109 -0.09308421885119453
Ni 8.452590366454528 4.237312504868948 5.09896274004202 0.17480930393582797 -0.5843377007892389 0.5348007704013757
Ni 7.402572912054731 7.098172825343451 12.649673776868005 -0.031186710015449516 0.12456300618576613 0.42554302711411235
Ni 5.806951929206676 5.375496133208 6.580965005884666 0.7800243623947082 0.4617906965922369 1.4880038431070244
P 7.749239032688263 2.943846743195162 0.06334476929867118 -0.8095051454626445 -0.7831382254333416 0.2689975544844787
P 8.033784939773026 8.283765437748974 0.8035109778450606 -0.28132496570158 0.2947204131718795 0.5053935208838521
P 8.291567265516946 4.100200902007973 9.899919580045806 0.32648485006767 -0.3263814917205863 0.2066724711930118
P -0.08117948996873756 1.362890988486435 8.033625775126344 -0.092187418068538 0.7585430525924807 0.8086181148720009
P 7.714471217670372 4.875305130541248 3.226271988368938 0.3675883049761992 0.7660568444710226 -2.1946028985320463
P 6.7583425042754905 1.005230546882705 10.664788509767913 -0.3389027641160486 -0.28986051397641693 -0.47997353814885085
P 6.360863300195595 6.892298415008616 8.609599390204412 0.7754855939840902 -0.29517575554174325 -0.7005939868815224
P 3.606302883059728 3.422196308219027 3.315360029221342 0.6126869413558932 0.13737944122414406 0.35024004350573873
Ni 3.8338715267399404 1.188775905339153 3.615815960786242 -2.0781000436465953 1.1389894444782707 -0.831834147977148
Ni 8.089897377929711 4.386991674629748 7.507527736124879 -0.7962989311850157 -2.0252355915473963 0.3599966086718703
Ni 5.854029703603751 2.4376111640619498 1.070317847053138 -0.9438761388777679 0.7286238964355451 -0.5152830120834223
Ni 4.046710540400666 7.264900092809503 6.7208578499417 -1.0421868962352245 0.03875140973658488 0.46919418814515973
Ni 7.373628867057038 0.5476137871361137 12.838594852264107 0.5446637792383846 -0.18842458072641743 0.8721726996951947
Ni 0.8197770527197975 8.9251069611896 9.168190017800397 0.6422314877822294 1.0091772740784233 -1.0983171635698892
Ni 5.267457379105039 1.416243346064828 12.406809686649755 -0.9228054342503978 1.8365503009604243 -2.085237168912009
Ni 6.574677542327316 3.4299153335696517 11.004011613108649 -1.011692327190793 -0.915389601402301 1.3475537333773566
Ni 4.0498662325285135 8.141225676417356 4.3771437071264 -0.25277029399233886 -0.6690468082028607 0.04497373649721287
Ni 2.0370222691971778 7.200893824198902 3.4538801932041054 0.32983551170745773 0.8082450478032984 -0.10430528437799456
Ni 6.993216161219583 2.405759834188455 8.795787065801147 0.9258465350695668 -0.8435105558738117 -0.9138410259682583
Ni 9.023393430582596 6.790433041132436 4.672967303454067 2.331738856286816 1.1827113108462532 0.31373783481464673
Ni 2.370375601174745 0.29263294317916 7.015483571298387 0.7895276738994532 0.10362471337120219 -0.6544501413356084
Ni 0.1018938947088224 8.223098866638104 2.4423364220119868 0.8253837643661138 0.0053836329094165344 0.21146423615470034
Ni 4.880227274239203 6.715800462295409 2.508936246339324 -2.355253908689621 -1.6142087557715876 0.9115925962537139
Ni 7.977442494901482 0.798260384558289 3.2701020679522217 -0.11765856575644898 -0.0540085930059715 0.996032252056033
Ni 0.9164847560220083 2.625563451175071 9.73387681256317 -0.17057161170539656 -1.5447192935211975 0.6099862545952784
Ni 1.280125372212039 8.350853796338669 12.833895355066135 0.735405695244069 0.2330872137411147 0.24294765147496222
Ni 5.494464806401 8.383781557637697 12.643843566659791 -0.5182706339568365 -0.6501782534331318 0.4437649494387777
Ni 6.40194249946918 8.138171187244046 2.3449000574371066 2.1651108026102 1.4960999898515976 -0.06865565349518499
Ni 4.314033544676884 4.449424697310723 11.763373262050202 -1.2653429669055565 0.055210069513240395 -0.8246324880223863
Ni 8.45834053432597 2.1880814792471237 11.671336535113323 1.9841012834009315 -0.37953879246985606 -1.262301351865755
Ni 2.418309000551091 1.295480620495939 0.1366377890283678 1.328975456154537 -0.2701267829929154 -1.0806521421899582
Ni 6.848771944288945 5.8279285416016995 10.962847771363995 0.04284563441061653 0.3390809415651257 -0.6371219344698059
P 3.1229207711147766 3.864876431902759 9.465602500514299 -0.0708896850320263 -0.7010698980766765 1.5629029064087598
P 3.55554500122493 8.070448010121344 9.093415754827015 -0.40393110527129145 0.4709070570712084 -0.4023313648843394
P 3.7739593776538056 1.9736600193881773 6.8417107381428135 1.3527936416200572 -0.9130097883162147 -0.6665397255102908
P 4.680277836879104 6.515161004790737 12.956001319849792 1.0727573128229138 -0.7720770825231735 -0.027597450002294403
P 1.9916465444900497 5.417476958803829 1.3239204907746647 -0.4432638414326431 0.6675915638135729 0.055930235508716585
P 3.957541537184631 2.875258740824595 13.477911396587126 -0.07740845998715057 0.07360836951477001 -0.8084301672309109
P 6.547039935470014 3.0881621563654806 6.408094719078194 0.6409263958175607 1.9036848898253924 2.3400468619318797
P 7.912562200774421 8.660047222987583 5.042300125823395 -0.26508793501742733 -0.9495099401247777 -0.983221730554926
