# total energy = -381164.29062956927 ev
CRYSTAL
PRIMVEC
9.30894160027387 0.00000000000000 0.00000000000000

0.00000000000000 9.30894160027387 0.00000000000000

0.00000000000000 0.00000000000000 13.62457699424302

PRIMCOORD
 96 1
Ni 4.611770627497146 3.836354419748748 3.202129720173202 -0.17342065111841748 -0.8056086386217157 -1.5392107049981427
Ni 6.607114307804547 1.7717242879746682 11.038999880955739 -0.003900363495670702 0.21156708028115176 -1.969424655225363
Ni 5.266496408903279 7.954993181063469 13.19179220484395 -1.2080500467213582 1.60824739598183 1.1797483715631878
Ni 1.5038129520602537 7.890333273514424 10.373671215199137 -0.5660090776833799 -0.06803113253730864 0.5047301762682405
Ni 4.524536536848988 1.6458394722842362 11.984532339856605 -0.3994093061415379 -1.4134583064899657 1.8134851916108443
Ni 5.080224489805037 5.329936845117898 9.469353163825286 0.9494978559399195 -1.0096382728752418 -0.7063023501202094
Ni 6.234784575262197 1.6519182110733994 6.697065678471935 -0.5763986484478202 0.02559327508807205 0.11803034727357092
Ni 2.4422007983720175 6.89961986712014 2.7695357622506314 -0.6798919784474806 0.37309586505798975 0.7962493088940029
Ni 3.3164407289163655 0.6467861852142848 5.383574035055537 0.1555095751659515 -0.3911774051500489 -1.515557327245261
Ni 7.170035308293796 8.422730254877079 6.911352856966787 0.32335298930690765 0.7081309186885159 0.823570365306459
Ni 2.076592121581238 7.783671421988802 5.376693796404588 -0.43615654096390044 0.09017244452103826 -0.32008434585796486
Ni 2.18649348474335 2.9826127783525425 2.38712165339848 -1.3117529216286634 1.4074609512559504 -0.48470873884099114
Ni 3.966083828272142 5.082886847069509 7.0663867611266005 0.9532298121785261 0.907071825565225 -0.42730628966212214
Ni 7.631302667775907 8.81875124349664 3.227580366190923 0.6657887062768791 0.6387391583582548 -1.016042633739689
Ni 1.8585580941390067 4.189749765312296 12.648089514048769 -0.44026979180132564 -0.5003454169369834 0.3785733432327932
Ni 5.506145798471754 1.4370771505602387 4.407278317231937 0.14735583571056557 1.0357023169521453 -0.40941398276273366
Ni 0.836487518355296 2.0237824965415414 -0.02702851159928779 -1.1610510522640005 0.6966635414788648 0.6545712402945049
Ni 6.965759896365168 6.932396650085902 2.133949164535952 -0.31235380998292656 -1.2940920140137906 -1.7134571944519652
Ni 5.579220989122488 5.528803762044224 4.568579931693042 0.8530892007011823 -0.08404010637105527 -0.20388051027017146
Ni 5.471860966985555 3.7537561819597065 11.638018163838154 0.8258501624795713 1.0203428037769395 0.46593402933664924
Ni 0.22387725001184489 8.881195622972454 12.728420093692266 0.09225426675073145 0.24476079342430107 0.44410227817353837
Ni 2.9912700939328203 5.152945940679373 1.1284606062179936 0.563311733356875 -1.7319182293706301 -0.1481215102319965
Ni 6.734488554132446 4.372149164753124 1.2770769261186203 -2.202546064638523 -0.3077736468114119 2.1883098664344827
Ni 8.779467510433443 2.01661461159873 11.708865724791728 1.002430699383209 -0.5882555477864063 -0.7783955685420336
P 3.8690660401241215 6.925154293611218 4.616810488416676 0.15791895593839256 -0.8640346439690926 0.4705468455183122
Ni 7.2342204598271485 3.6670433920346626 9.97279468270143 1.0161359647844435 0.5698551909023476 -0.21425568285690844
P 1.2775405114045317 0.8684618705651234 10.757162368581007 0.30213238936523457 -0.524430225800329 0.5625643136678892
Ni 8.802125474005912 4.5181412940493635 11.713811565402265 -0.37963649438998487 -0.9041623652279138 0.899443876706322
P 6.025510261756571 9.066154981321429 11.05846953206988 -2.385172293515608 1.6752889109123597 -1.5060794696618125
P 0.1473903323071615 8.415003833445217 1.3976230638678806 -0.30752322136350263 -0.5350080013161754 -1.2009190921035318
P 9.045209862982047 4.4526435817667425 5.13465293976883 1.5401298743783025 -0.733160350853318 -0.0045436535066244324
Ni 2.6058147538977905 3.7426226879446394 8.173356745034239 -0.40075039355046466 -1.0105695264402594 0.591710339104226
Ni 7.683860951395531 0.5278076732109587 5.202231200473163 0.9762237019705381 1.6153040457182954 0.9108518614329474
Ni 4.161813631918302 8.070749868419124 6.658426124159441 -0.8424052386247749 0.6337360487167085 -1.3456739998561404
Ni 8.91712813710135 1.8600940694838948 3.568699079725148 0.4761022281189027 0.9003455625849849 1.3637815080901285
Ni 8.056125521347493 4.652487937548906 3.1685858804291436 0.214806670264372 -0.17627406140681257 -0.2728729782794849
Ni 3.027854233965609 2.035921356236899 0.26152912563286757 0.770778418316408 1.277835185835296 0.055065059294943874
Ni 5.777166320841881 8.479040041914823 4.64831008461081 0.5864981987756673 -1.3748398227868193 2.038701744354631
Ni 6.849053696978128 7.966722447333523 9.280952289809614 -0.2730233878144201 -1.0338207836587163 0.13135226119345766
Ni 8.46561654829465 1.1372733811210574 1.5358980806737426 -0.40928774159751447 -0.6961768316504332 -1.880108130946717
Ni 7.642389617083553 2.9936252561283156 13.556985702844536 1.1376216175964664 -1.006693588424621 -1.2497255720832736
Ni 8.963533210399937 7.7643832952336025 5.576770875723855 1.7764651627430696 2.896566769177902 -0.9191102447869978
Ni 5.332543348733466 0.04957290608565086 8.274763699092047 0.21775366870783786 0.24585994002575076 0.36659483071467835
Ni 1.5382932713176196 5.600501229355301 6.5311319347283066 0.5186113051257069 0.21734614885677406 -1.0044623851012573
Ni 5.662731503176979 1.7589151844924502 1.0641479221863077 -0.024849197833195915 0.27157277141082264 0.17172783679702683
Ni 0.059870457155439795 6.851613655886275 7.9598868916016965 0.39404469939551495 0.9299564434728823 1.4194304649130005
Ni 2.5220156626572914 6.140969062984731 9.031854324634708 -0.061176828619636574 -0.4360899493920231 -0.04659867369514555
Ni 2.4746517683858347 8.637776112102891 8.334616469258666 -0.39223130033585996 -0.915973756040545 -0.9632031213411539
Ni 0.8859831602266283 0.7559903086592322 5.895068719209638 -0.4889808838537837 -0.5979660902059508 -0.7366678497859442
Ni 3.5797348298546314 1.2494461260053067 7.5344179974911105 -0.3353459000027257 0.7408158105160467 1.6505358723373962
Ni 1.4102673990858285 3.207721601322743 5.706980625627832 0.8308334746267756 -0.333077158573207 -0.0476746803681437
Ni 8.65797651512354 2.532990904667128 6.883217512225031 -0.7545383023084619 -0.9274850991142543 -0.3325660232647434
Ni 7.247643953447322 7.891543435907366 12.034711258032875 2.564000231692526 -2.6017162581860616 1.1794763488487234
Ni 1.288981200488577 1.5668810306155059 8.055339846686229 0.1760020386923485 0.8398575325022568 1.2217267728775023
Ni 3.572874139980798 0.035357221545174754 0.9150447446460588 1.1486447081798477 -1.0490216597688709 -0.19092137900634215
Ni 0.027602873288861084 6.7238018893086196 3.4262815839588296 -0.9859869520048891 3.333348088209995 -1.189028254203217
P 6.636726050665693 5.710812185942717 11.80869295147967 0.16768657684811766 -0.3801198617843066 0.03289495095580786
Ni 4.672595251154713 6.1823286899989 2.2997200018036072 0.282510758479565 0.05166374692287877 1.2266452932250422
P 0.3524802766156544 8.995816619467039 7.928849949799325 -1.6574907063886744 -0.1899603006446535 -0.19480194500767095
Ni 5.9205240196981 6.590972603270997 6.589445005973445 -0.33050374141907596 -1.0162100125554887 0.9604990921464297
P 4.555256043746749 7.126004015073671 8.478614623288996 -0.08194105775018147 0.0783440844275425 0.7444104698458406
P 1.9080258091858866 1.6607803233663294 4.04106269745639 -0.5387199029501237 -0.077377349638899 0.10670412362747429
P 6.467172990473019 2.872311130706611 2.914896745314244 0.9328113964231742 -0.5893750061028301 0.28257812138239075
Ni 7.350535683671854 3.152203074311153 5.007113925176661 -0.6695882825286275 -0.7377749668071939 -0.9214018690346518
Ni 3.2285829391887684 6.0997397611513415 12.587774089490388 0.3831056838855079 0.25805545365067817 -1.3523439556771484
Ni 7.341850441267122 5.3659252128957 8.385286899545301 -0.4996941565062297 0.8282639141273864 0.23260333212616072
Ni 8.251566747807644 6.444310230187897 10.463075220107255 1.1428998352762705 -0.24475770810050748 -0.864321321971576
Ni 4.048793773358993 2.7452440794476898 6.035265101537832 0.8283006809025928 1.8456921153606922 -0.5987392209265495
Ni 2.75836968694037 8.581401162474757 12.228561586393381 0.28153322505764417 1.0601758766134775 -0.0899508154285354
Ni 4.192924114358398 8.40027708801726 3.103596436351559 -0.44511220749529146 1.5207656109190777 -1.3912064370703008
Ni 2.442284578845375 7.42162806978646 0.5152052282296893 -0.9615709850543699 0.7717096718814258 1.1983549309207813
Ni 7.814958774317098 5.961455435403996 0.14298999566759432 0.19717250212237655 0.18094369896833998 -1.1897962427174928
Ni 6.2733887555970504 4.042659180920925 6.794794669749345 -0.6058781459641759 0.5131258565311034 0.5323525659711993
Ni 0.13256770478191754 4.397553266063425 7.835807079665046 0.17027130685615838 -0.20634414131931558 1.3212312934327437
Ni 0.9068333273628725 3.093072678003704 10.055877916341796 0.6077247122546116 -3.2265087245562363 0.10045582872491732
Ni 7.070262073466461 0.7112748082400213 12.90632979065528 0.33264855567622065 -0.2399731422276706 1.8105356220642173
Ni 7.603375843323397 1.0067247857470563 8.479977452322279 0.7110038693609367 0.010570319316678569 0.6678841553533271
Ni 3.775967316340936 1.4575382039424443 2.7652713361567334 0.2306120127277448 -0.37870189839085744 0.6551985894658586
Ni 5.335568754715821 2.9399685174135595 8.736351286161213 -0.06195073067118363 -0.26511596004188537 -0.6168377302994731
Ni 5.330802576675926 5.787797132016803 13.789161874189517 -0.1713066900992082 -0.9563097366554304 -1.439586113925269
Ni 8.10045470069511 5.9899407963455555 6.1960351754401914 -1.2783602051008307 -2.8638674791726677 0.7016573951490304
Ni 0.7768563009959996 5.843576309389951 1.1625238848968684 0.40726891139527277 1.745792159139245 1.8521504693915265
Ni 8.684795575539434 8.998665155561197 10.35301653583406 0.22392251652271114 0.7134045083826295 -0.368955617637371
Ni 0.8384377415962296 9.075166036678105 3.2467772653195786 0.944709947632973 0.2682074544830155 1.1566488094312468
Ni 3.8061375956911316 9.140989561912672 10.148088567107392 -0.0475461252100794 1.1410339857121252 0.2778390640355086
Ni 3.3435390575767845 4.7052510178811815 4.77549629032073 -1.513712560727038 0.968019568893191 0.6383182687707523
Ni 0.5387298542543355 6.4453435226926405 12.727507817426819 0.9580190060370531 1.0966071228573178 -2.380417295329126
Ni 3.5101039475530396 4.478001138369622 10.907727049934271 -1.9202751900839057 0.23617922240287714 -0.6015694912864931
P 0.7362441819830107 5.014903647410614 10.021217003619638 0.1438020569210362 3.9815633043794842 -0.9185502585184697
Ni 1.242520273541084 5.080606156405887 3.51674866998444 1.6153482686926695 -3.8717031516215323 0.8973096039721385
P 9.200939145070727 4.083087913786676 1.1392180189971004 -1.085906191500046 -2.8424607313621175 -0.38385413201575824
Ni 3.6221742940809625 2.282943427460836 10.104040517792596 -1.491730142918676 -0.2006038964014287 -1.3314771395304683
P 5.909409143566001 8.846482580177984 1.7294216651881542 -0.5565798139496801 0.42006323494646364 -0.744451093275789
P 7.370158932320484 6.79131033295182 4.183998701263375 -0.7490991335707615 0.20171461296710422 1.5148862693201652
P 4.391837575992144 3.6739226997914645 13.606238381343129 0.11453596096706725 0.3024517203778662 -0.30651020671795604
Ni 4.830037378476481 7.232982370609754 10.855981436906214 0.16682294329624173 -1.107580591149686 0.7191146713935291
