# total energy = -340860.9597444801 ev
CRYSTAL
PRIMVEC
9.36697783026382 0.00000000000000 0.00000000000000
0.00000000000000 9.36697783026382 0.00000000000000
0.00000000000000 0.00000000000000 13.70951888322263
PRIMCOORD
 96 1
Ni 1.5895105869177153 4.592882190494614 6.499683231136642 -0.42811258761350146 0.4659723387737523 -0.048790024919509525
Ni 5.016016684803948 6.950138389992321 5.267636192915766 4.615487300737284 -1.5715901497701128 0.21476964637884946
Ni 1.6398018914568606 3.355804148424235 8.548584137163322 1.7709622306469692 0.2395946758423293 2.319599135600489
Ni 2.372009189747131 7.190663649436572 11.280822944191835 -0.1440349988674487 0.4732950976874107 -0.30500431159639085
Ni 3.3889164154284965 2.930009432381036 6.859324602203633 -1.3260127739817873 -0.18029346697885076 1.0462119582342175
Ni 1.4185632395831267 9.150469608125846 7.024811938099244 -0.09369151341789025 -0.023589614394481956 -0.35327985877332707
Ni 5.421775435041741 6.876120530340929 0.15754320190796942 1.1655162871242057 0.7512778863896351 2.732049848307017
Ni 8.02227331758518 9.026872334258453 10.255693385278123 0.1461186208693548 0.9168019083687953 1.8959245291536833
Ni 4.803367551697657 0.44973671164797757 2.166748728836868 0.6742324661688582 -0.20773150858514547 0.09901395407206819
Ni 4.958203696982081 5.6464330338621656 2.669201855611658 -0.37442409695111 0.3442205767845362 0.4750552749116271
Ni 1.266218710429716 5.832264509137284 1.8269438069452444 -0.629938015126857 0.25791841385218156 0.7427243403926693
Ni 1.8700047412154823 3.3954170981161784 4.327094191556589 -0.7510922527413904 0.8035039335738872 0.004055658126612369
Ni 7.404596058520115 5.726286520767775 12.557837096692953 -0.06036384580003797 0.322943926793947 -0.573043101712026
Ni 8.81638697305541 8.609105118306529 1.3474575733720806 1.225916642589134 -0.267434580872733 0.0230126588450894
Ni 5.817801895203881 2.5191269452121743 4.197265067268283 -0.9474114057245361 2.2488606314343467 -1.064361632560051
Ni 3.5905031475922047 7.71998220563001 3.850893893843424 -0.7908960150018896 1.0406293219401175 -2.491821138425115
Ni 2.5806773572305626 1.2747520273295412 2.089084304674935 0.15349331606687114 1.1884225022984178 0.7125061649380762
Ni 7.4205573889233 0.9698287945743165 1.0033541453055617 -0.037718083376064075 2.2423133172341316 -0.8945405258674335
Ni 3.648044493053924 0.8208891619006933 8.067572022884361 0.11966325489130358 0.16063018422196854 0.7176193177949254
Ni 9.411471081338501 0.4247231337673044 4.098378817894227 -1.9025939707540585 2.9075489792210183 1.2913329632114148
Ni 7.856215532733256 1.3883641027170055 5.8395145500598575 0.007024253836633065 -0.4263668085669882 -0.044856494193058226
Ni 5.695703337806272 0.2503559027882307 10.674505955967723 0.12891716938940379 -0.24407533732150222 0.47275310914101165
Ni 8.893243027021454 2.174075578978518 10.466025128043015 -0.7167065761726689 0.21287654312119467 0.19267178603854557
Ni 6.502893294475357 5.7202541869768995 9.399260288900948 1.4010895005119677 -0.37254667742273906 0.8429564831425548
P 7.977414860248996 1.1204216988536686 12.444047985422497 0.605500450909783 0.8309856839339237 -0.7450303628180266
P 3.6935492718677008 4.808341416981748 7.728741266698097 -1.23857778299657 0.44693229142316576 0.5094718047182839
P 3.667302999690631 3.6524282387280382 3.0223865687872666 -0.24904630817353235 -0.22994943944308138 -0.2565521296322743
P 0.3258968330520401 1.465613569756367 1.9346322054858929 -0.5494164634320216 -1.7117196429355683 0.16982059247198494
P 6.881450340786594 1.0574287722331148 9.015735934190175 -1.053468896906947 -1.8580483229331999 -0.5698762739482702
P 1.4263003633583797 5.940153361005765 4.470934441441777 -1.4424827187467737 -2.805777002787839 -3.2782981984237023
P 3.508879301856665 1.0727531481366428 -0.05333463567059795 -0.10143259081588983 0.21352343267657417 0.7174871630924353
P 3.7033845987006497 8.983624997127286 11.236308254945907 -0.602455236325556 -0.10093173992007133 -0.3997083254391955
Ni 7.137253141244691 0.9327842702324627 3.5422248066115363 1.6609814931507525 -1.61710021838677 -0.7360286735400485
Ni 3.820705997350826 6.982276491291224 9.24909920230445 0.4939971061214525 -0.09172230550666138 -0.2340866015399065
Ni 1.735195194758529 2.991297569017212 11.189133343966116 0.742516081036605 -0.26500565971626616 0.0496999383282886
Ni 1.5185276281176325 0.40195201040454365 0.16050035684240938 -0.5743289104029851 -1.6465846009991318 0.7360374152907969
Ni 6.231531943665329 8.05103930682707 8.761506786025349 -0.14594558562660026 -0.10370056091446012 -0.9418236272241135
Ni 2.961332606599494 6.379895507195879 5.667720427919842 0.024781320709737965 0.17624860748551582 1.946928788115692
Ni 1.436810112602731 8.615690103795636 3.243452868266975 3.7548555118021527 -1.7215284014958738 -2.544163399472257
Ni 8.002199883868027 8.224150426064908 12.774899949802755 -0.3315146991820936 0.5859204718953264 -0.6375297114311859
Ni 3.1674810570181036 5.806374182121788 0.13680096596617694 0.8361595148253792 1.3260652244862774 0.7916241514171657
Ni 6.109302248576615 8.281251523563629 3.51754750323877 -0.30851181052901705 -0.6789542971245598 -1.0521388652416137
Ni 4.227045500220658 4.458400488265426 4.970509095896791 -0.02719584368850155 -0.3633171884046711 0.23466484264087972
Ni 8.078006836305223 2.398002553519925 8.060237679160362 -0.18250281592534376 0.9398618755120524 -0.5948465707403626
Ni 8.814363705821204 7.497104332617451 3.3175391068573017 -0.15296392592596236 -0.3145063375495551 0.6653801579845509
Ni 0.9642929106140565 7.229115093864433 13.263370051914473 0.22661266176036457 0.5885054590136832 1.9855063912785742
Ni 0.7734585324232456 2.046656578113181 6.999764639098001 -0.20858202951089883 -0.018181298894717073 -1.8011117576471565
Ni 5.754490491333499 5.269515208689755 7.4196740829039225 -1.568709485788208 -0.9453344685908495 -2.1682488340185495
Ni 4.07115088642945 3.2203576474676243 12.382875999312729 0.5055413593156262 -0.12028083387064446 -3.67192303667298
Ni 5.484843297485783 9.37503353716691 13.327270638697039 -0.10830386401442638 -0.11628045446199974 -1.2538678763864213
Ni 0.9768446610484867 0.4684163390482316 11.598006614367675 -0.11481801098386034 -0.28487051696099325 -0.6519646559095933
Ni 1.854539860642912 8.616954645817016 9.150610112794888 -0.28611595933232015 -0.1524479055214923 1.202164791585175
Ni 0.12088272366149752 4.752879540621852 10.891760832125215 -1.2673795377196106 0.10097159201907126 -0.17249916774541257
Ni 4.478436454070833 4.646124093083643 9.989880095499673 -0.4205620289597531 -0.6861582710721666 -0.21666249252618813
Ni 8.616280223405614 2.8548488014214337 3.8573655388995047 0.11644089129926398 -0.5983155031255696 -1.1762460148368838
Ni 0.7024980543702095 7.430973468388291 5.6224245327140405 0.27167021622063536 1.9510644075506203 -1.0661428928301897
P 5.084002210664465 0.4805475121733289 4.555714022044003 0.5693291431955485 -1.1307259189178978 0.4280429107178305
P 2.830522759721273 7.233892252611866 1.8487014232953147 1.2335739020240757 1.0178156664797116 -0.41499250529177567
P 0.10841152923731828 7.032024511110073 11.430229052366677 -1.0483305472391171 -0.301827456530306 -0.998321819421158
P 7.273767477686022 3.7772806876388723 9.684870686547434 1.1498963211987616 -0.43459382446247086 -0.22965581946206254
P 6.98724098959738 6.432856400446825 3.5686837091877557 -0.3812861141782659 -2.423739612265845 0.1642004180717301
P 4.608281502221631 7.503473877614027 7.229879439264023 1.1213244230983397 -0.12838829346912725 2.3206054653778163
P 8.35660886105989 3.447422559617638 5.842489502252376 0.12139026488473932 0.9292864139890512 1.5365087326859472
P 5.213397643874329 4.855251242485947 13.264850971126178 1.2385590139434928 -1.9323802008775561 0.7628967015754862
Ni 3.623325038280446 8.860271264686235 6.0560294349603945 -0.4961131240231908 1.5222334537138558 -1.3970976057437554
Ni 7.0517045317539075 5.199262874168691 1.4029503607591656 -0.8908558779269947 -0.27887856104361647 0.3223384319994642
Ni 0.7348197484366604 2.4667468045932694 13.531459517331408 -1.0855351813138725 0.7553227458829702 -0.6934596898295863
Ni 3.9231058001487287 1.850493326174499 10.53333904158551 -0.6417612330140302 -0.633458883795922 -0.6644193367331784
Ni 1.2978509949200672 4.815638292794003 13.051845892858314 -1.0413649145545614 -0.5141141885863016 -0.7318115501349073
Ni 5.391595032131491 2.7216316412136248 8.758682642177602 0.5677895666225704 -0.04485058065578727 -0.052831541978734825
Ni 9.169896720365404 4.524699958097437 8.235459178527211 -2.211400429705359 1.1119859193062334 -0.3406896808131423
Ni 7.40307860809446 6.656858310811721 6.7081640590613505 0.8364685614253657 -0.11846923458320241 1.1572111096926199
Ni 6.0586549988758955 3.0901285532214446 11.320730953688766 1.2075705359817783 -0.4221327158809827 0.034498033776869615
Ni 7.652989579430724 3.4218694438078434 13.375857153251808 -0.06414002501301858 -1.0419213012786634 0.15529540227261643
Ni 5.217284939717828 2.1874609904492646 0.45220303693856373 1.630741206208972 1.5779045220239147 0.8040811462335958
Ni 3.6344249071347736 1.9358920640183037 4.86846992174943 0.2072160024013076 0.11119506951929237 -1.883495816472027
Ni 6.122312980929916 9.428612650961641 6.865823411495728 -0.6853092928083101 0.3025334814583951 -0.5263498114205452
Ni 8.802336506151198 5.145131108675727 3.4125052759650822 0.7130527814701655 -0.38258837792945727 -0.24899282922777763
Ni 5.508092136723287 2.5092166825557363 6.344559519629578 1.5968589516392306 -0.061763040140409765 1.659631406880761
Ni 4.652025289183413 6.384307353803802 11.937331010291174 -0.9143490759529285 0.28977643890304283 -3.5487602532688496
Ni 8.805792921009633 7.1398477941330025 9.370525210686244 -0.5609008099225372 -0.7998519386435967 -1.022183456530104
Ni 8.492223967619351 9.137440141816672 7.818621166786551 -0.4783486009509182 -0.07134502740189003 -0.4813889304391387
Ni 6.588891518907076 4.728797040348032 4.8764346630885305 0.8434213385941152 0.30126747026177797 0.7295818894734403
Ni 3.0644442997205434 3.539677925310699 0.3583562216941523 -2.1897807945530547 -0.7274995530231149 4.778936699575602
Ni 3.3068335877740855 8.168210833830269 13.30301765942478 0.06407343344114126 0.3164966285067065 0.592167995466935
Ni 7.976712336903785 8.314832139464697 5.371608711309145 -1.2916080712496725 1.3357078897823642 -0.43112000698125746
Ni 1.4254573353441273 6.007398895609327 9.354142366275932 1.387732105368455 -0.13911416452706363 -1.0322079306456418
Ni 1.1794430268292981 3.372271295635972 1.9982311755789148 -0.3383188665881206 1.2643392082313902 0.28485071946665136
P 6.602276930377823 8.34898414101987 1.094612864546217 0.5080736388191767 -0.4576175390511538 1.4922057970035139
P 1.8510740788065394 1.041851487925311 5.2699798107953875 -1.7564768925466008 -0.7736431414587128 0.20677428687819874
P 1.9718612592930884 1.421944718618074 9.419316862057812 -0.20991540361034172 -0.11312828198626325 0.8315693243515356
P 0.23372202336923004 6.5095625827658905 7.329397022950975 -0.6405281319378775 -0.6826024354001083 2.2780958741503796
P 9.021664294525959 4.807460921055751 0.8131239371916317 0.4175952330219453 -0.8708385542648035 -0.45695702264901944
P 6.428069874721457 7.268812346357803 10.72503892853762 0.21483906616420417 1.351245580406647 2.3834074883057017
P 6.596029156094416 2.618735388585107 2.238709600133484 0.2601681291183068 0.8678876991665957 -1.286774654416771
P 2.619681453356657 5.025955048394195 10.969946060260398 -0.47351749811086186 -0.5820710162422492 0.6720148896922491
