# total energy = -340861.6631116773 ev
CRYSTAL
PRIMVEC
9.30425575124533 0.00000000000000 0.00000000000000
0.00000000000000 9.30425575124533 0.00000000000000
0.00000000000000 0.00000000000000 13.61771878053235
PRIMCOORD
 96 1
Ni 0.7973114376949356 7.6766435758739915 8.983581658770454 2.789885528368563 0.1846923673774948 -1.5783837756531784
Ni 4.316774524683747 4.109317537124827 0.7294164235847438 0.5893328400109851 -0.3850226984025627 -0.37280507329044826
Ni 4.380620326748119 7.2734343543261 13.19536510218711 -0.29286304824816656 -0.5696816414389608 0.10324007633827381
Ni 4.291522774931094 1.6471602851737073 10.762491133948785 0.155694437483248 -0.12514356127958448 -0.16248189271872662
Ni 1.834492167826588 1.8442709404831976 10.841760600554414 -0.42104462502312645 -0.8615712700302646 0.2486218190416041
Ni 3.332393584344414 9.321654577999482 12.3826597735689 -0.4293341187254283 -0.7150315024630912 -2.049271806560993
Ni 6.798935926217846 2.1414488649856813 0.5197105974424729 -1.5173154475869481 0.18805896985688259 0.2181611885589017
Ni 3.1419633845700767 7.268679879704286 10.77965004216317 0.3208595334610925 2.489985370767957 0.4732411045210237
Ni 4.663637174196978 8.915412169119472 9.072913677829105 -0.495359790796934 -0.39208140502155703 0.6149592823298377
Ni 0.8880176953086572 2.1518045014907305 0.7063074439013745 -0.13229637027428184 0.32784830607409987 0.11899142563525958
Ni 3.3588362788164257 3.993600509979011 7.269056702056896 -0.1648208252645484 -0.5198089249782337 0.051833696841839756
Ni 8.04441288776534 3.4923523469632842 12.64030670721873 -0.390969660014617 -1.2848974919987162 -1.693552227997922
Ni 5.853307210535772 8.553932534027238 11.693943885768242 -0.1193783766610331 -0.1842658213630375 -1.388091288480087
Ni 5.304570126835616 5.119136312329213 7.090241934998553 0.30728488010045146 1.019963823170966 -0.69373505497816
Ni 6.365813522851687 1.7148394405535152 8.65497209793252 0.15944156323050604 -0.08893574390045973 0.6836409039669515
Ni 5.317289044268143 7.535693407486761 7.072634561663284 2.3759348340777406 -1.854754996893909 -0.23915938807712359
Ni 5.030373713714508 0.9679403206588101 13.360098808790159 0.2695110037857874 -0.24478984689002356 -0.1649064429998192
Ni 0.45782706288835684 4.597065225235949 0.17202079960462494 0.1961844271774944 0.8261918620897063 2.0575515300712826
Ni 8.148722897521049 0.23650952573233835 13.329281253325627 0.2139497215807154 0.8435198118451925 -0.10824190042823938
Ni 3.8553671842328177 5.518084184803149 9.793005376431493 1.9209159089916983 -0.5603727053332092 -1.8919748004773158
Ni 6.530415109024931 7.9801390899424485 0.2552399227209404 0.17453830966262843 -0.7682821342571154 1.204907901547951
Ni 7.275230075660758 5.946442809291872 6.145553879559661 -0.6767626887898797 2.098268033954038 -1.5377246073709194
Ni 0.5311278495137628 3.9585979003366076 7.107345948104782 -1.5832956111324992 0.08716142560885634 0.4746768085262858
Ni 3.8860526192675446 1.5950750622130028 8.000804772100008 -0.012949875292448666 0.03851126870132077 2.698050094322805
P 8.92796360995084 8.850207945734583 6.5856516833641265 1.2817576608181538 -0.05430118454572583 -0.19291449817697098
P 4.456775658997738 3.865220390934387 4.979699946331356 0.2837873111991435 0.6824648813809795 0.37523425155723117
P 2.186165117495354 4.033329681476369 1.5085296677125408 0.11975452905352924 0.13433499797086543 -0.42410269512315996
P 5.547206504893717 5.853521208415032 1.1796363270781967 1.3085053612256432 0.895189215195026 -0.8147712789575903
P 9.296719172937907 5.268525440563774 5.230660841892663 -1.1867425434928336 0.3311501167538232 -0.8757832998645885
P 2.0523792259355162 -0.08133501135326746 9.704585174423604 1.647800218573788 0.865870925846883 0.7397943112300679
P 1.9860677961318467 7.313526391792638 12.635703891963523 0.33720763580181284 1.2255266062395667 1.006843483738924
P 6.309029650802887 7.522900056009275 4.780976863522921 -1.0438092623299957 -0.7614854230502563 1.063286397218001
Ni 6.69106238655968 1.6054958285073915 11.40339617382056 1.127364972865465 -0.6140676237535038 -0.3879794670380415
Ni 2.0410094255678883 4.949128953640754 5.548525848340631 0.7606148475198449 -0.01835716235094903 -0.8065044109631078
Ni 5.473944796141915 5.65818766592896 11.81959413621396 -0.817023822437193 2.7316425855662696 0.8493929827965178
Ni 8.604082471818984 4.428230202755608 9.69038222821969 2.521407079612348 0.04865092823848396 -1.0679853453555672
Ni 1.4480492149059192 6.6312267186675244 1.4037963143261223 -1.1172546239043404 1.0142919695971693 -0.3041345073969278
Ni 8.745916544490115 0.5146062828093464 4.280729838411905 0.2846252337194066 -0.39349422620868363 0.8291373178712753
Ni 1.0971206056867526 4.150256261852784 11.669036393473528 0.3914877373016161 -1.6079154665637083 -1.281943808687031
Ni 5.644305716543934 2.6999554170868274 6.57436189959483 0.5569441392676343 0.3527504686324183 0.05587804211454247
Ni 3.61836918508043 6.376494808303435 1.8664578684346258 0.8293219230782555 0.35183669856889727 0.5947247004505177
Ni 5.100602235134193 3.180957519873455 2.7335251713637514 0.9087319868764673 -0.7545131054974812 1.0815936801676214
Ni 1.3615289418956311 0.018556407408508255 13.409571396772769 -1.2656718109998848 -0.1679262036627495 0.7575115260041728
Ni 9.336448344435265 2.8867476529137486 4.485526739289069 -4.309169412535791 3.793211485872532 1.3041730523988766
Ni 2.9869358774298016 2.4646414882016576 13.066132713327693 -0.40161454132297286 -0.5505459490507745 0.11105108774226036
Ni 8.54237664854721 6.612915943607383 7.767042793052253 1.5152685923602485 -0.9166270733538279 -0.36623924714747247
Ni 0.27270214966853784 8.769781960155388 11.183646403736512 0.8398012253430247 2.8225243974495067 0.11951541645952966
Ni 2.4261776954686183 3.8068361869189493 9.469026543615628 -1.6948899729727391 -0.9512438920967489 -0.17369910159078472
Ni 3.709318283765833 1.9672080699901269 5.8752150108186 -2.9999354006742402 -0.7613879782404436 -2.9114904803672697
Ni 2.9771291920063323 6.423071911937106 7.551338513311775 0.4739203899762354 -1.2877886975035822 1.1751712937154664
Ni 7.291112440004082 3.8771949679173145 5.52216224004139 1.1741191983018682 -1.2349931509691054 -0.9457479019791842
Ni 0.4447378360821548 4.9836663505021574 2.89846357159044 2.2770646046723884 -1.8643323561696987 1.9668489240783869
Ni 7.593826396600459 7.8255302743050725 3.128793210739981 -0.1322500904173787 -0.14780706431537124 -0.3133226016540991
Ni 3.329676741703377 8.66442987377024 1.1509587504062633 -0.04575123809318572 1.2920037640261943 0.9643264363123197
Ni 1.862693366610778 0.08258364245747013 7.506045396953663 -1.0381502642720057 0.9346199103868226 1.1311972021273615
Ni 8.311547370870876 6.0410298719246915 1.8499130410911597 -1.85136988247176 1.7336064157063305 -1.0371776159460913
P 5.180535095165527 3.7259542928143756 8.765997919394739 -4.1191610322620225 -0.8422936527475752 1.9044590489872557
P 8.391405796857251 3.2449707985389873 1.2232770076381985 1.0376033906296 1.1232221543416847 0.3035696360323933
P 1.8781477351955815 2.373580738448814 7.342456113791873 0.5194785382220086 -1.2193297334002358 0.5946406253771436
P 1.5219529172955006 1.8249366973048582 4.165047237011882 4.647944649935041 -3.1238869985282522 -1.3636946048032774
P 5.543801147336801 7.075337447920892 9.842056481634518 -1.6471114200368793 1.5490451745900613 1.3011941722762106
P 7.5765949151922385 0.23988790094795673 9.655861579018403 0.8730324765923289 0.990569429169249 2.5826654122021977
P 7.076165526671071 3.816400961696299 7.97877136436631 3.9503076887993127 -0.20047045614735798 -1.6128769243340417
P 5.605795402532795 3.183748796559452 12.420952367998531 -0.26903894924537536 -0.540991729703436 1.0314219444092367
Ni 1.625006852542511 -0.12027239069736402 5.241827809487774 -1.0142258922459242 0.05216691181154242 -0.5870029063262278
Ni 3.5283225991901657 8.282071489066746 6.403268734275518 -1.9565593692269208 2.5074894410899913 -2.3032404917368074
Ni 0.4461092833605413 7.269219526530245 4.114770761343704 0.19405426820836905 -0.2641749362848547 -1.2591916025921797
Ni 8.236006119492176 7.409685873625236 10.019971527174407 -3.405792776433967 -0.38797972414835763 1.2335283934981207
Ni 7.356912135748652 0.754615139080363 2.446055307175165 -0.7581810412673716 0.8667684979604879 -1.6414951022913666
Ni 0.8747005142397654 6.4459975977847614 10.980810839944043 0.4404968202104672 -1.1651889856917739 -0.1676968612607628
Ni 4.146748557484048 6.44743045315024 4.91873381138137 -0.0017079838300422198 0.00199234783968044 0.6257455743120642
Ni 5.858005859623867 5.797630544905751 3.355310896362012 0.6712898386007664 -0.8460986283159622 -0.33637691237040135
Ni 2.8795182462970157 1.9680640615071658 2.205879904728551 0.5275939682402913 0.957010619377197 -0.738755071332276
Ni 9.046081135046615 2.157861571899344 9.389062979540746 -0.2391858704396848 -1.1639222031642085 0.11598297782623895
Ni 2.726072462612139 5.398533804341896 13.13980473975234 -0.25492693532402544 -0.4316295996278243 -0.30290783407867833
Ni 3.4454309858716736 0.5303155879981377 3.9853206529027814 0.9844360625780012 -0.43310489862177015 -0.7886570983690417
Ni 6.206654926216136 1.2261799353916352 4.315455181236832 -1.0331967769214723 0.19625847494853943 1.041044297990349
Ni 7.735074301167529 1.5014184251421825 6.317287177665627 0.2029186605775344 -0.8892898189914555 0.42809407567074015
Ni 3.898129543062292 3.9823330564232027 11.459650633724584 -1.07106604116342 -0.6216487785348713 0.2902821748948678
Ni 1.2599078620140993 0.24375381915806263 2.5578022084479324 2.443582100913069 0.18915580246548713 0.967741889751772
Ni 1.1726432485542122 7.051211513098257 6.282847475488235 -0.5923562002183411 0.5817591414287853 1.14237121646631
Ni 6.889661722768368 5.747322434768464 9.15624073031061 -0.99797369205312 0.9795661360802096 -2.7498040869666447
Ni 3.1675407832694296 4.740118155393296 3.448115263618041 -0.20634465553994785 -0.7443181672423503 -0.6078028737907146
Ni 9.0983896601422 7.320104500515971 13.077612303911637 -0.46533316252785667 -0.9343674280563845 0.7879878402161591
Ni 6.513667448908949 4.201457580529589 10.64721791979604 -0.13622424457377827 -3.503728666950508 0.19156055525223784
Ni 7.156507773949685 8.421700453155939 7.9907003504967 0.21366921422581914 1.164815404402439 -0.8767752314642125
Ni 7.338750228778431 5.47931335163465 13.4651866543157 -1.2633074245327662 1.2886731569910646 0.31574818037645624
Ni 5.048461186639768 8.275893463335073 2.9700105060314774 0.45192331687985393 -0.22954269092296598 0.21912946600944197
P 7.391505358143775 3.2630675757198677 3.1113896006027892 -0.9349358989653447 -0.2938884041888874 1.7324825865145324
P 8.396839482139326 5.427991077634784 11.599463822075052 0.0405079874163754 0.25229258302497193 0.28627536772831985
P 4.985285290980036 0.9291490181279474 1.8963356940815381 -0.09264173199713722 0.21903459230279052 1.028321965327674
P 9.000201850584443 8.809427393352166 1.6690420335408 -2.588385602515426 -1.9876532624182475 -2.2658869907890136
P 1.166046531319639 5.455150199789536 8.581750397479885 0.5407665010665075 0.7946781077521411 0.6571747393556231
P 2.6539551773015964 7.639863853408171 3.7986214596320598 0.3040877133193924 0.1391830700917861 -0.45856807588988124
P 0.02295080733782958 1.8006898071591642 12.15469899790021 0.9311329802794867 -0.6423746982283131 -0.4428912885845727
P 5.4334433714280985 0.4515513424726735 6.403024032352713 0.09983567864241515 -0.06024866037841236 0.4327693696592224
