# total energy = -381167.9093694668 ev
CRYSTAL
PRIMVEC
9.26237673764270 0.00000000000000 0.00000000000000
0.00000000000000 9.26237673764270 0.00000000000000
0.00000000000000 0.00000000000000 13.55642461093397
PRIMCOORD
 96 1
Ni 1.600057021792731 1.7641678092526356 7.6515983130881695 2.27656838176226 -1.6723380558141518 0.6869769103187201
Ni 8.608026682978453 3.914141388347658 12.21408105051965 -0.12177541613829995 0.04515217105660611 0.5824363700014679
Ni 3.025675706288228 6.781356356862772 7.717008289945778 -0.11064845298720298 -0.16646530284650687 0.5540264514002071
Ni 1.4898162162645796 0.8472564426143533 2.118557450361164 0.19463405197123898 1.7608148578003224 1.0041942190415352
Ni 6.2869584845155915 3.4865808250822408 6.271066098855601 1.2542908228564527 0.022664017256419033 1.5970343008748302
Ni 6.4225041027393335 1.8255866280610016 4.502278216186949 1.6029437243807296 0.38180547701684564 -0.7369365300662986
Ni 5.005906972989628 5.47798251788572 7.518473880090866 0.5109838704874361 1.3333064794297231 -1.3200948658354554
Ni 2.5566011713897097 5.796867617257523 3.1074847208023306 0.11630539416266422 0.38295681701246953 1.0329386381640793
Ni 7.883616214119713 9.097274673971771 5.998812434152886 0.4794965985124323 0.12319492219364589 -0.6050800755429128
Ni 3.279853843181484 5.010223240455273 12.11757264444336 -0.15657889697073032 0.018937717444767386 -0.4169588849895271
Ni 0.9831179078779624 8.429846345560787 8.159585018050906 -0.3678292173424117 0.0500236402162945 0.017045642628377097
Ni 8.844671141089588 2.4780099064841172 2.970619213922249 0.12552639854029993 0.06760921450854161 0.6578802500630799
Ni 2.1946367587502693 7.167291799976659 -0.08371150665453923 0.47118473621262724 0.778888191907736 0.7640457275782647
Ni 7.251894347253934 8.97681746712472 8.337743125764884 0.5671431912878232 -0.3770818462889312 0.7137210111817837
Ni 0.4784100842088717 7.994635059276865 12.097928996286404 1.1743894212441193 0.5477599016652049 1.6772817729726726
Ni 4.903428038998411 5.35202345937645 3.1533464519812995 0.7583561333926553 1.0342645560643542 -0.4195443863285162
Ni 6.359093872975787 5.088610733077081 11.669952552314532 0.2743619041201856 -1.8903105254010153 -1.4702550037640356
Ni 1.1869272411699674 3.9795059795602414 10.548864136035776 1.2786959911736944 0.6553369148159358 -0.8188765593752155
Ni 2.517977061235753 8.593308766663192 6.366896498969479 0.7978158820501744 1.0652684606450364 -0.9179424497311417
Ni 4.7037775127709445 0.8716720671625138 10.137222819322304 1.880878176343522 1.2742510680284633 0.1407010493982093
Ni 6.376738700276335 4.918210791949422 0.6111723582836286 2.126574594208215 3.2487233129800632 2.4540243792923153
Ni 8.321985970802317 5.354635449559523 6.0568208459208 -0.2810220897491806 -1.6340551010735536 0.14236249626103226
Ni 7.136457348489243 1.8619414559637064 11.963327214231652 -0.752831089809368 -0.8588950087496822 0.9217543672780641
Ni 2.7446459398179175 2.0392418676104778 9.750119390527262 -0.8247021649180571 2.1439218272374108 0.4984718540633545
P 7.046038028747534 0.4996153690497513 2.5828516727295967 -0.5941667710645188 0.3856824434737487 0.08021456197737799
Ni 4.490029649456111 1.6983030497071234 7.828523598485244 -2.2489066541809337 1.2138995635235996 0.6672161827520251
P 6.510135447143789 6.43640692991945 4.368476703464884 -0.6191226696789079 0.1452788985768788 0.6957433436574404
Ni 3.16180485423372 9.25585582263985 8.929318147774234 -1.565330542013646 -2.1178559833882944 -1.7392687561984304
P 1.5915541601329393 3.158979829390325 1.8688076556896365 -0.007597609841599819 -0.7078694374970131 -0.19897535965907023
P 7.870778560241204 0.138390094057861 10.896518176927529 -0.2328676415311409 0.46609575172549406 -0.3676736656011539
P 6.1402239154366995 1.0939051936217212 6.760073268058992 1.043547781138493 -0.8677000086358218 -2.0811519430990413
Ni 6.6374190254976675 6.639910604785776 9.439378698843319 -0.9848078440951232 0.5111201389549843 -0.5901159980339127
Ni 9.146337482481485 4.768345539601456 3.691007958889178 0.8966835403523654 0.6056958547500407 0.0417616573178184
Ni 1.386957524835398 6.33826278814695 5.856768332551684 -0.33583929469937646 0.15031234723572823 0.3948083170344168
Ni 3.572276332790732 7.885978120136322 11.671498442958343 -1.2769684669596266 -0.6584484638617241 -0.6150109615033795
Ni 8.750222687554842 7.063701380801155 4.423597106228959 -0.5475069051141345 0.7833953357494702 0.8009269168753304
Ni 1.8747883722187515 0.7540259915940536 13.18026085042674 -0.27422152188757937 -1.7991646612231142 -0.009163925887455186
Ni 0.6292951242134204 1.9976537969650905 11.480244261060509 -0.6968507177890064 -0.522860310210048 1.096415575671802
Ni 5.194905766201015 3.3403278995832064 13.392785153801206 -0.3545798085316732 -3.225398522211194 -2.4078946748137886
Ni 3.293886343633101 3.9432715625525003 7.929749332931178 -0.41865941262040157 -0.47542371399463923 0.08022098973528119
Ni 2.324569376793363 3.0067989829084287 13.027126905399319 -0.29549945742974915 0.7636194386741236 0.2944000537179833
Ni 6.10888003323982 7.576068263627633 1.3012434923738359 -0.7198536064420828 0.9536005652543835 -0.7700142864568739
Ni 0.07657669800907335 1.2037940288415152 9.376016633437759 -1.0726657815503722 -0.8449308332601062 0.3958174750252215
Ni 3.9914637076678567 4.742299736783008 0.8769108673311176 3.063187109545034 2.2889752400670447 0.05303337357689576
Ni 1.8873481548011892 0.11573154233852673 10.87078822114895 -0.23171578731488482 -0.14955361469283276 -0.5189761446642933
Ni -0.09243296040057412 2.00895389633867 0.5798405171762452 0.5436939591259475 -0.2444383770878758 -0.4681433782831421
Ni 7.549012861766792 3.269396620072655 10.268327127997166 -0.20740857802808796 0.4532109253430259 -0.587337406847511
Ni 6.641624144444884 7.115024209185584 6.524747772366543 -0.05558570768510427 -0.3644793270335723 -0.11793624489786786
Ni 5.991312687871913 0.7202599979330826 0.6235524507612733 -0.43602181515824906 0.1662390457683137 0.2181719871921791
Ni 6.647209357495925 2.108265097554671 8.440026623611198 1.51839453958374 1.3320211849593964 1.487331756740664
Ni 5.105171862322949 6.348368040947422 12.940799703611091 -1.1671021435540867 1.8660071727689607 0.5283146484563999
Ni 8.925976282320146 4.556320478322266 1.1466025586840523 -0.023557989825598136 -0.9242462804619824 0.3858878746163354
Ni 4.004060539756437 3.3936606636758877 2.5011602903974985 -1.2552927817584059 -1.5030319410847404 0.6350195434148225
Ni 7.335459508359208 4.697367948208225 8.326572699662805 -0.21629353922254363 0.2434359039652904 -1.5848598702958252
Ni 4.904326489522376 8.586287885249115 7.566965199968327 0.19029145873182712 -0.76382024183102 -1.1454179737124337
Ni 4.715420320076346 3.493648018378996 4.736397750454446 -1.4086768259409224 1.4466916146217987 -0.6716091696133981
P 4.149303866213078 8.33563871381597 0.16408022161733676 0.7266585451790581 0.7702060907527059 0.2828205764105
Ni 7.479026344662884 7.094498782782426 11.842105861320402 -1.3366100898816593 -1.0965983811065694 -1.64609326318501
P 0.699214952206271 6.38246284897541 2.0560354825073937 -0.9274395905882994 1.4758746639436582 0.5346732436845759
Ni 5.342798132346872 4.190966035870751 9.181929090557647 0.15253943679403406 -2.42223037471017 2.549874076703789
P 8.952170283163166 3.0459880980310645 5.219033330838914 -0.29006388823647467 0.5093005692477421 -1.4232871196549295
P 1.580791278598431 6.399885379239102 10.150738479163227 -0.46433814560443903 -0.22593594740831413 0.29414628583596436
P 2.907126549007535 0.35184989746243356 4.1919848972896805 -0.4985363887527028 -0.37503499106223154 0.4910447083613479
Ni 8.410386092459238 5.588519719463014 10.234924219496396 0.8430582988277416 -2.7391792602629472 1.4908490258653035
Ni 0.8248609423886334 5.622225507676503 12.152331564868959 0.8238884107675102 0.8394099034418768 0.2868852333981769
Ni 5.425427793422038 9.18347035001319 5.073573264771338 -1.0494266085167732 -1.2947196202954605 0.8600121530732607
Ni 9.163648864226747 3.4651106362724398 8.634466136799668 1.5525369897934036 -0.13394753272445964 0.011219779975219387
Ni 7.56897328320127 6.409814646885395 2.510500470896119 0.9201898510044216 -1.0350140326358692 -0.6316051184166348
Ni 4.713104725942415 7.726007614987885 3.4366353120886726 0.40877609206841864 -0.03949882942557069 -0.5134783547745156
Ni 3.641336612241067 1.5267823610186422 0.9569535466398578 -0.5941387460400607 0.3689854424340419 -0.8365747479859271
Ni 4.325918861996207 1.490936963825402 12.330177530493685 -0.5255761664793142 -0.8839619790206389 -1.077905946903389
Ni 2.0631851109553168 5.133783343441792 0.9386427544663909 -4.383806223315076 -0.6727710511319833 -1.1908884473404073
Ni 3.0620212718143978 8.456920272174699 2.072872630574027 -0.37366279330505325 -0.5589660547936696 -0.9807871529715044
Ni 4.406427438844693 1.1757382903148164 2.935169320207084 1.9090515534539443 -1.02571820915624 2.2351080577349443
Ni 0.36657707615422996 5.774749062090221 8.306021338605348 1.4214122712297197 0.3299846356908123 -0.42134775808584213
Ni 0.7712410446233446 0.8581675221734325 5.452583228949465 1.6788827989112054 0.28342761386687965 -0.3700707050784207
Ni 6.376646076510978 2.7379585039591268 2.158548687291793 -0.09111861048439146 -0.5346878989725953 -0.35513850924862067
Ni 8.918093999888248 0.12307845940666061 3.606374845769335 -0.9747052084434826 -0.735495683854714 -0.8545436737595219
Ni 7.823447816143669 8.881127855134187 13.076906621852899 -0.41915203598610395 1.9034131242212444 0.847779872673127
Ni 3.55992032249208 1.8373313215082958 5.677959079767244 -1.1412468730538798 -0.8602301826213379 -0.16848413304874854
Ni 6.865264225899868 4.241344101848538 3.8542814275102537 0.6259512625649671 0.14250467826585136 1.0801466633084493
Ni 8.908368504525741 7.730666590385352 10.129347020553979 0.6650297166236676 0.991717683841079 -3.2413717577109984
Ni 5.670686261711395 8.430022330714966 11.254353422107345 2.442367768889994 0.656834582407385 1.1527358475300857
Ni 1.42725812514232 3.6622417960821894 6.510568000128008 -2.0937423781695426 0.5983792664839693 -0.2733833422570002
Ni 8.752788365855237 1.9469515478085537 7.010135204819773 -2.389626729742536 -0.26960947703686466 -0.05126882547730525
Ni 1.6424231320671188 7.851170109115082 4.1243519500635 0.48855150962584887 0.941512780851914 -0.9596470285587796
Ni 0.3149587779583104 8.480113263020145 0.9809347657284929 0.3870433283770173 -0.6788118580094246 1.0877051923819978
Ni 4.43940149931186 6.532522611230626 5.4347837199607705 -0.5722684283295305 -0.32097651865493104 0.249083589169371
P 4.829949605940536 7.687522440481963 9.504002299933045 -1.979811911996958 -0.09845371069322398 -0.3330180232004974
Ni 8.398872958425336 6.580455409802983 0.11842689391042154 0.2668856503477984 -0.30571239340700895 1.7755673335191482
P 4.155222524819404 3.341161513471421 10.901682878083847 0.0383793711091468 -0.017880479824846623 0.45740902258477356
Ni 3.618551165963194 5.681513979881653 9.829396997534152 -0.038716699843907514 0.6942518467135786 0.054581177679989865
P 8.837622472545904 7.271326813225877 6.996416698932717 -0.7633222191486789 0.7382233671985222 -0.6761240267646162
P 7.373333366013772 3.1402327792820257 0.2182679030642653 -0.2781761356599532 -1.1030443938422294 0.06055770697839894
P 2.8778203896485137 4.865795003133776 5.688181038512065 2.941947511305546 0.45268976273223327 0.1996764994911529
Ni 2.1101638847444932 3.5874203184266356 4.147072559705623 -0.39112469753524254 -1.2100300532658645 -0.7178000663471638
