# total energy = -381164.7891477 ev
CRYSTAL
PRIMVEC
9.27473648519944 0.00000000000000 0.00000000000000
0.00000000000000 9.27473648519944 0.00000000000000
0.00000000000000 0.00000000000000 13.57451435081598
PRIMCOORD
 96 1
Ni 8.985327649163775 6.3422688818971915 7.05661650905576 -1.4510174956906623 -0.9954007891196213 -0.004279344101644243
Ni 8.960693948946 1.533475662766041 6.470591354074549 0.3584367203839182 0.40333589488945376 0.1335592961471055
Ni 0.44013076697832887 6.327651897129415 0.56637755312077 0.13289338042833243 -0.2635082492351333 -0.03421598376007656
Ni 4.7216663441892175 7.720550378343947 5.299151321775652 -0.1651095601495608 1.013937157360912 -1.1451873457588666
Ni 1.175860371728034 7.848866358205735 7.959334962567123 -0.6721303322241908 2.176197656551981 -0.656724796302398
Ni 5.613191118185207 7.47426902458537 7.354834532422581 -0.05192368545248477 2.5861094048867397 -0.6405049920094259
Ni 8.130623579183059 8.43006772271885 3.534015927387074 0.44023225369517094 -1.2109353386889534 0.5137871442641861
Ni 7.186047312248187 4.608857723801871 4.33523815665402 -0.4700647636755711 1.0045552019253796 0.45956874924025365
Ni 5.718069838841304 3.1199842689979076 2.5694516757611914 -0.35247536059416074 -0.27174503532262884 0.08239305768593552
Ni 6.159296879677215 0.5405585415747457 6.278701692683116 0.4163161091992056 0.022499209543780607 -0.48977072674493066
Ni 3.029221697337087 3.603402086298675 1.8578076343004688 0.7756712276323351 0.17565879642031684 0.33539475096279014
Ni 3.22016997297095 6.777244750313381 1.9698251196619951 -0.2810076915714773 -0.03169604555170025 -0.5234071838524533
Ni 3.175957303943039 8.037616521282516 11.770040394892742 0.957418653448893 0.43754519378131096 0.40828835379872264
Ni 1.2496779997526073 4.176877595284153 10.93652446050973 0.6643090364075591 -0.7446902058697884 -0.2772623655964322
Ni 5.570397483846046 0.9046939723917794 3.9023472490092734 0.7156336548234643 1.041260013545581 -0.48430044765897884
Ni 2.7299352243222668 7.634703417042848 9.532662313245714 2.002812229546873 1.1290701284820297 -0.2943085224454415
Ni 1.9978802701848664 6.281241115544422 11.361366751795673 -1.1520611900605642 -0.8096295868556509 0.9727707104249311
Ni 2.276660300736773 5.983772490889045 6.800370378371739 0.19048326302765906 1.0958368203501967 -0.132978483942971
Ni 5.550605196095771 3.782562171805734 13.401222624557949 -1.174239011709184 0.0730362990613839 -0.336498268439614
Ni 6.881112524687951 7.600628035039796 11.372266422163117 0.3227066139721603 -0.9373321671116632 -0.782157349577311
Ni 7.271384163040258 7.065911650003898 5.319309034145121 -1.339183249925474 -0.43473420669507706 -0.5274983232026915
Ni 3.895361517456552 4.4038489475919 11.59203779650435 -0.059897961907212964 2.988432799351279 -0.6131857353691827
Ni 5.563534178815492 2.826077143169198 6.986354815015936 0.6665901191322521 1.0338716915013098 1.287530301635873
Ni 9.120349263535145 8.288730012772064 5.675585980702171 0.5904854655581895 0.7102541356791059 0.35406378812720307
P 1.5236444420465978 8.786115583283662 13.112899817592615 -0.6067268671177164 0.053833500880687925 -0.5417226943321897
Ni 1.2473778650937188 1.4650652061371612 0.5987324714979183 0.96594623130393 -0.3826431424267926 -2.8902138303766804
P 8.046510993612653 3.750851847617266 6.3159230653163885 -0.3170663849672475 0.37861370955242535 0.33440307647348216
Ni 3.640473208200198 1.2531560259505237 1.5485536019392472 -1.4917388846694244 1.4081793174792134 1.4005475119655686
P 8.582804083858274 7.80567391019588 9.192905527391941 -0.37351958285896963 -1.0054669151063715 1.725651679635628
P 7.264882572734288 3.4949340426063293 10.68998434160203 0.07727321996086692 -0.4387191594847541 -1.0236978362921014
P 4.274512746712055 0.44035521560230106 10.102044881001484 -2.277001098424304 1.3185367773197163 1.0466333620423522
Ni 5.0182445941379275 6.545459809747718 10.205089058772385 -2.3275921811082942 0.7760039283814055 1.3007596558419534
Ni 7.368852369210662 2.3156327436264896 4.732999144752507 -0.39509859458132596 -0.34912187074089546 0.43634037483993243
Ni 7.763779925299914 1.1214454925195692 2.623274826779184 -0.3661304894837501 1.3291335789989562 -0.4896691681700599
Ni 1.0430368699137467 5.7245899786203305 8.91525237732816 -2.2638632754907655 -0.13124427486068366 0.15131096370357167
Ni 4.449193134476199 5.738761776034773 7.95032177360943 0.13386680008519525 -0.16568291615452754 0.3003549857498376
Ni 4.623511807515759 5.468338283094393 5.7397801421055235 -0.22738604959127937 0.050791885840886716 -0.09156032600750037
Ni 4.653209513877699 2.3522215792285683 11.475894908335269 0.7285045972488615 -1.1501642301481676 -0.3724214646987844
Ni 0.8494759010000091 8.438711777162737 10.753513504396338 0.21059648883776633 0.9837287520983315 -0.9347037283498806
Ni 8.844833940241017 5.9588790980484925 10.886448303048962 0.15224401704080232 0.25253580938402964 -0.6952139535165317
Ni 3.9061758602479397 0.7748671379496165 5.501058626090736 0.17503864633781469 0.5757692423939375 0.13765840591714357
Ni 4.61670415090437 8.511351513648282 2.805417667553576 4.325517514876512 -2.0471542459973584 0.5907999114748147
Ni 9.014478146070577 2.3533994707675956 10.244889735634032 -0.00995608277144737 1.0431083796082294 -1.59337896351043
Ni 7.7378941356508895 0.4038832416804727 10.620129808495774 0.5871841690990984 -1.102863645289991 -0.31208821502636575
Ni 2.5203261787945177 6.684812726077561 4.460083530107114 1.072342336772682 1.1305513410132466 -0.1074345740355956
Ni 2.189208810016368 0.9164348613622917 7.218031241164224 -0.6983378438574941 0.4471474927577654 1.6435866947130726
Ni 6.699262765587837 8.329316259817615 1.6386743618323458 -0.3084292781175398 -0.1488766432304662 -0.5411861051024293
Ni 4.770099018337266 6.619592778814236 12.822472572909126 0.17006150483819743 -0.4913298437019345 -0.17065800077161578
Ni 5.6602696808002 1.3992331262630036 0.7380761130912327 1.804320494392441 1.151896639458242 0.13207268429924998
Ni 2.0201118136419467 1.8770211784914108 10.926181274333954 0.27447914642434024 -0.21004730120251566 -0.4318196041514433
Ni 1.3811010163512005 3.0021394666759793 8.470157771360164 0.5464949189098524 -0.12431540895133428 1.0620406977363581
Ni 3.0054041739337567 5.402626774795096 9.511526116172563 1.542834417793659 -2.6038808699375475 1.2922158800370003
Ni 8.896614794275592 3.822452813611701 12.608606423315127 -0.4027067459458871 1.0899204548657615 -1.55794787639633
Ni 8.823372199915742 7.695081951838673 12.461702943978022 0.11546001544323342 0.6657879349459308 0.9091531335742857
Ni 9.100668272623203 8.598775180159105 1.0822959021621719 0.2462173233651695 0.5777165959282954 0.7217048007182087
Ni 8.388118089403717 4.261630137674975 8.636513155616976 -0.5154725023864091 -0.3402595352542591 -0.4841081291425147
P 1.044307508818052 0.8776599703606164 9.23339809959856 0.2577428075062658 -0.17143318837474347 -1.08201945485113
Ni 7.103761849773753 4.455212438482726 1.2861963473570748 1.8456859447131053 -1.6753853272809083 0.015745949980347073
P 5.965380688354465 6.8204093741136536 3.4836819322508306 0.5722686854398467 -0.09139320430201679 -0.16787915247489796
Ni 9.378891818983444 1.345847742809122 12.17240257978266 -0.8580059212765094 -1.5122935688923247 1.5905962585589701
P 2.821421225432254 3.050711261871945 12.735080440502498 -0.7307473705364512 -0.17219192091763894 1.1796344716931426
P 3.244896420554002 3.9992292918311216 7.394947767905213 -0.07803735182040109 -0.8343224616166407 4.319453310960303e-05
P 3.3119342161767706 2.2391718156915004 3.917116339456105 0.37571221963491425 0.015211417633115737 -0.6839532930010479
Ni 6.810374109190599 6.446275777319676 8.993712938458538 2.961544202490551 0.6247060773039564 0.21381602421632853
Ni 0.4247792230775532 5.858684119338923 4.8217759953227315 -1.4153953756116784 -0.1266949649271044 0.13836880172060684
Ni 2.547862871545486 5.176211906679017 0.1650754706159775 0.3186442709773286 -0.3607070044753336 -0.6623244018773625
Ni 8.313586306666505 2.4863713683663273 0.7469909898417314 -0.9514855757939098 -2.0402107247999894 0.25220876506191403
Ni 2.7769303143085105 4.193924561022206 5.073854986884822 -0.5130566938560649 -0.6684168879283456 -0.5924986393334764
Ni 5.017678835209732 3.269919659705943 4.9455761059691445 -0.18426505003208912 -0.6011316324181261 -1.7009307798501803
Ni 6.651423674577565 5.342443009466355 11.388080775416627 -1.2199817651619376 -0.8609297797915239 1.3531065448747859
Ni 7.79653829471602 8.896837387952258 7.605352585827046 0.05793261065072603 -0.2597485250823849 -0.14837913476875736
Ni 3.700230335648662 2.9259846050464065 9.506816404963757 -0.17845230000505397 0.22340546767697655 -1.7652093873235923
Ni 0.9353757282993168 4.123575684459022 6.540024814142441 -1.3362185108701954 -0.06274802976149838 0.10090551466782623
Ni 6.71126427465478 2.0312322227387507 12.211415831513099 1.7913947874697083 1.3667938125538912 -0.13954482430657902
Ni 6.859437465422537 1.9561717800194554 9.000052220875272 -0.46930423136046273 0.25137109965196713 -0.40404989023734283
Ni 5.83258501074976 4.355277152395933 9.215045250957395 -0.14993233818849017 -1.3165002065056617 0.3975640254026831
Ni 3.3980872437832867 0.8224493187580684 12.537801229714775 -1.1174230311614046 1.269243587511543 2.104948788408323
Ni 5.828485577204483 8.825690884047685 9.241326144382505 2.369487278680184 -1.3918643823692738 0.3613981170050873
Ni 4.451613840709949 8.725876169535756 0.6467477825022173 -0.07961652338206289 -2.6585510077869183 -2.1745385236820036
Ni 5.486275623539113 9.154897657101113 11.91862723890964 -1.1981906374287754 0.5336039218797971 0.2696045919408583
Ni 1.5206116032020147 1.8857023318814095 2.5827822545725643 0.4630153130279574 -0.08169346051574963 4.045000132677892
Ni 9.021304352155019 3.35686103991732 2.9533524975925696 -0.9893509833811154 0.8068209137622621 0.7409826751112142
Ni 2.7502005236354585 -0.2610012881018116 3.13899747887985 -4.635746822317268 0.1480970847519643 0.0034743317018456287
Ni 1.7125151766982387 0.16029341646225592 5.048700973947839 -0.9005260540269072 0.38008258078846796 -0.16490927121329663
Ni 4.590122756015763 1.0432594635904133 7.9806473796343 -1.0228676270813222 -0.17261229628450916 0.0956190694579063
Ni 7.024648347191819 6.415372355209125 0.08076162326291955 1.0315229887634751 0.5285637883527284 -0.8873882310933686
Ni 6.5592698924375785 5.502200346157306 6.8975362281313375 2.0309190150854186 -2.68592811424829 -0.1562438822288148
Ni 4.452355819632171 5.169784514265268 3.5301066259406157 -0.44468129060546 -0.19489244783894824 -0.7006505511510708
P 7.165281177162495 9.568374686245917 13.265110301170914 1.9656150516712858 -2.0768486877379972 0.8308550718933304
Ni 1.4354787966135543 5.3978688349563475 2.7483372290670283 -0.31076126868482606 -0.6360945216465561 -0.9682530250602357
P 2.9117942581589085 8.243580595354848 6.610055567242724 0.7016638229069335 -0.5227662078343448 -0.7686647144075149
Ni 8.11797283855917 5.9622922010907144 2.5372535004313623 0.6745314854665158 1.7277407009541728 1.0102080293357827
P 0.7913984283367254 7.589591098571743 3.0325596750134336 0.639597392593492 -0.6855543189395806 -0.17721508516384318
P 0.2591444858489508 4.229047988252896 1.0530934667308147 0.6869373153300362 0.9400202554667875 0.5331820038510301
P 9.316287347420952 1.419516975049251 4.245755498634033 -0.5086500801479369 -0.6576406232484481 -0.22088115859322605
Ni 5.314720821984831 5.713803460038526 1.4944995099817129 -1.0637515097798778 0.9694786699372208 -0.22421407962120096
