# total energy = -340897.53433056345 ev
CRYSTAL
PRIMVEC
9.01346603764762 0.00000000000000 0.00000000000000

0.00000000000000 9.01346603764762 0.00000000000000

0.00000000000000 0.00000000000000 13.19211864121424

PRIMCOORD
 96 1
Ni 6.430485965316017 1.8501580841827137 11.391354263137512 0.42300431985265863 0.6947709524418423 -0.8981601248978919
Ni 4.786817370627627 0.2596959784936246 5.978206472464122 -0.6473628954715237 -0.1620175514877984 -0.21162390166101616
Ni 2.824270380578017 1.5473777388558414 4.91792904778867 -0.06401018430337363 -0.19479680280134837 -0.39866291489381667
Ni 3.538668671547967 4.404285879329923 5.0669477775831036 -0.38642574939767643 0.6499509679136741 -0.43199752449020434
Ni 5.048135772976896 4.455437298112074 2.5477543734342833 0.5923369169446315 -0.2503765969491817 0.17517080104030477
Ni 7.363478830436576 6.257472488043175 2.5154861656386713 0.019867428347888363 -1.3953914216859258 -0.5818730412988301
Ni 5.136008051691819 4.657663418252397 11.368122956217844 -0.5424420889967174 -0.3708623477417806 0.8826255195974025
Ni 5.5648236902047366 7.752896609654908 12.392834145937794 -0.22665199963873223 0.36689282157107134 0.3188355610525283
Ni 1.8857432474165339 6.426682282721115 0.3323490200960077 0.328044481245306 0.15068130053937276 0.3509704939138601
Ni 2.678171112377158 1.5985832384331804 0.4286479880478345 0.15609167292166667 -0.6233557339236491 0.4225968000015948
Ni 0.5617074751822381 0.1464868472330413 4.889896267602878 0.0036813055063291437 -0.060807875315992056 -0.2844385716298972
Ni 8.50470979742921 2.3056445681892677 1.2301659333330044 0.8937632813817769 0.029406735296891293 0.08301320776843768
Ni 6.978721013070294 0.7066737507239051 4.752526541091977 -0.4272636093496448 -0.19138237780316072 -0.5022562608064511
Ni 0.9692630517600972 7.513129404188127 2.474247756614514 -0.4087694072001992 -1.1467050679549735 0.49658029346759636
Ni 7.693101277108514 3.8884272009616354 3.730572570580039 -0.6021472181668339 -0.22379756090907263 -0.6341181146464757
Ni 7.463492247671246 3.8990360502843826 12.563487897847258 0.708433023309967 -0.11020030970619085 -1.053904698892785
Ni 7.72954271959948 8.836378300852434 6.8239399745485585 0.6739403888497362 -0.5085269243065113 0.4063165747843325
Ni 6.821526168389994 0.6721927370585101 0.273208966517977 0.4851766796163451 -0.6739684138741941 0.11180056431377519
Ni 1.5719845006664621 6.586121480401725 9.27404606419107 0.3129137962514546 0.019222595675037864 -0.5895125601219589
Ni 0.09502897061149118 4.813172744815998 1.2765600448317684 -0.2448710937499202 -0.21337482291385185 0.47655191406181147
Ni 6.433604624505202 1.8987496786592906 6.996506383914513 -0.10929245317994081 0.10027842260678858 0.22969258623726893
Ni 3.4637307163488837 4.036815889492128 0.653139171567129 -0.42278937562837504 1.4084629101579034 -0.29742521369755226
Ni 6.026385250204096 5.645359007705797 4.551505521337765 -0.08118463920013116 -0.035504106443880794 1.0459926431345599
Ni 5.267415370533223 2.926771514391342 9.208876903296145 -0.01906601549251555 -1.8605060404450733 0.1401760301326747
P 0.22819391529651165 5.624745211273237 12.319446506867436 -0.06901046573144244 -0.7132186176240685 -0.5337103655506744
P 3.8756280794337665 6.033641090225176 12.602655012415708 0.23782164310230658 -0.15855350419859793 0.17498593872300833
P 2.4761072346224005 8.522150853877399 1.381953599841074 0.36951174725115715 0.3581119900546478 -0.38290668050082444
P 6.279185927311228 7.627059612717885 5.677874184466101 0.2888901796433476 -0.4567225380407102 0.24228764929346014
P 4.659808623128193 1.207416846837098 12.365974919007584 -0.9411014043461082 -1.5469386697700198 0.5196708567384728
P 3.9884316047304385 6.064881762912213 8.126054997799914 0.15302049019551064 0.2298843905331009 0.5999358123378119
P 4.884478273271609 0.977780777002235 3.8301866912769014 -0.2858128262696045 -0.17528315824845297 -0.3087838332434811
P 0.2328466663758678 5.466576912279549 3.4252540332656687 0.593401867874036 1.5153472681169837 0.4437621212253003
Ni 1.5159567968515109 1.1139652327519287 2.739818712158747 -0.25552291703681157 0.2934978536186881 -0.4526439970959624
Ni 1.7773112530642396 6.557638928269285 4.710944719018374 0.5354589728106649 0.04015986004833729 -0.07230327755010128
Ni 6.011107425563436 5.595334272156733 9.267674445171318 -0.40024491466895584 0.8097637984406699 -0.5604017587989315
Ni 8.547875285455241 2.325699529738216 10.032711288715715 0.26489381672875023 0.27505764463562954 1.0423087665250697
Ni 2.1660530223427186 5.398218787161694 7.031913981870798 -0.18463348911510138 -0.38687466400963694 0.31199976907761756
Ni 0.45560546175596767 9.078452953580578 9.429726646606102 0.26015527360250035 0.0747514819802777 -0.6412171875851022
Ni 1.534398348010679 1.2461026423283739 11.43503351871783 -0.23109280901890525 0.5631610667116237 -0.27861887962432663
Ni 4.091734937005721 6.68918144909866 1.5905477336148035 -0.09450526756843723 1.1652406648653157 -0.610279103245349
Ni 5.574323883226127 7.974312398621168 8.025385400250297 -0.5166806637618973 -0.9882819186866528 -0.2152933800928034
Ni 5.1670143742663734 2.761843115999132 5.073754747004123 -0.03913373277666808 -0.4732169361513076 -0.8175089896037275
Ni 0.7084394886867991 7.499410909142059 6.918658881934305 -0.03638342372504056 -0.31360876543595023 -0.11458095527238976
Ni 5.088308790335847 4.213452780042577 7.223476270546598 0.09365706063552902 1.2905683171312483 -0.535647177562071
Ni 8.005174505741888 7.307018480260121 8.89829450191679 -0.02909846002785311 -0.29821762769186055 0.32032397267259677
Ni 4.601888091481657 0.31991854932200525 10.340140779735597 -0.1895612654340219 -0.29003174944695853 -0.1139500065566102
Ni 8.142665914041963 7.268828425391403 4.478090841869815 0.16062915578070402 0.06205254635637056 0.969171680219763
Ni 7.05034201283117 5.898583317708569 6.984646465529744 -0.6668675411633548 0.6594406525716643 -1.1138121738816948
Ni 2.3699826875314685 5.0843158249577876 2.677129155723199 -0.06404875085079292 0.5482167866969655 -0.3220615241889937
Ni 2.2429108457709823 5.164346388370424 11.282981757659925 -0.4005722161013875 0.5559820324646811 1.0448009368193039
Ni 1.1638637797788862 3.416941815045246 3.890632796058726 -0.3250380903188144 -0.7739557876031252 0.054872740778479694
Ni 3.7690168051861415 2.4136979969752446 2.6179629630941608 -0.28056623315868456 0.39386960727023135 0.2292220743587536
Ni 0.9378150693581724 3.3745965524129033 8.113509154662843 0.12297972085904627 -0.09610937883076351 -0.10967966131603045
Ni 3.4151661622699008 2.6027193896237866 7.070737683389804 0.7019222187746428 0.034041920076057504 0.2984672818088215
Ni 4.025918609261709 6.801002506616081 6.063058338767784 0.844028890271127 -0.2129055965869172 -1.1700200885318301
Ni 0.9630888276427804 7.603092806983659 11.418978733319632 -0.5879920097123744 -0.6173313821064401 0.8047660881157624
P -0.07298203310644448 5.5817239387010416 7.930323079815105 1.608533302653365 -0.22762619062654346 0.600957568734107
P 8.417315232405118 1.528503541335168 8.0428652146017 0.7573351483273086 0.36298448765560065 -1.2144322960986182
P 1.8089395047834584 3.2684089110609187 10.286963133827065 -0.6719958635288555 -0.4667979199988412 -0.46139963180140536
P 4.062459199877188 6.117358161176474 3.6749549794619316 -0.4210348548311136 -0.0773369833192668 0.928977881609697
P 6.80057887372044 3.8137686632043573 10.344045413148184 1.5294929634897465 0.49807796105904545 0.12855155851986894
P 6.222509253954018 7.696688636522663 10.216279534516117 -0.690623763042688 -0.6391561912910154 -0.5359899056134705
P 2.496225290432402 8.42512990730981 5.733149263881351 -0.6390371492146478 0.6829400212451852 0.02641525676873515
P 6.932427852389215 3.919397469672731 1.4724911604121869 -0.027175274863211262 0.30349198871692246 1.100526255406066
Ni 5.39683071341853 2.6710234339464543 0.4567240328697765 -0.1442766825646096 0.9523985745264822 0.5792780268781443
Ni 1.508800104954942 0.9559772030755351 7.100473107277436 -1.2973781409642302 0.5372001238714877 -0.3597497827683869
Ni 6.837227625926294 0.5994630809962771 9.270022453029071 -0.27103952461517195 0.7903020901716324 -0.65257786401356
Ni 2.737317475381294 1.5279807603150155 9.09979143266866 -0.053769994632604165 0.20144053337011114 1.0071540730008075
Ni 6.5444882815726935 1.8060642091726202 2.550722507743528 -0.9206565062281952 1.009722347948616 0.1407236751060286
Ni 4.016138998798515 6.830620755447472 10.47743118774689 -0.13728765284128613 0.23127047224735006 -0.7442703447235504
Ni 8.298716048557447 7.141999947209264 0.3423422497001962 -0.8102852181617787 -0.001983606088932068 0.22282285570062915
Ni 7.432855477197143 3.8153279927989496 8.124603829795698 1.06476015355005 -0.3038455154015993 0.38224770676058684
Ni 3.2419543887480358 8.365857355783568 12.445378145196038 -0.3712981497276186 0.2575278632819823 0.21164986980294517
Ni -0.021446640678457946 4.744111569360697 10.219894835674447 -0.39512456272325497 0.18922265114768058 -0.21939686073821568
Ni 8.60071222235409 2.3799966481071455 5.725339997056178 0.5195965518571116 0.35129059625744014 0.5646700471569823
Ni 3.400185782002776 2.9223278757200464 11.742079937438463 0.6126946546653771 0.020602249631383872 -1.0396114221985644
Ni 0.9163990744636544 3.3574889942017103 12.648642616603976 0.5540699030436329 0.09627007277834387 -0.48258912139482685
Ni 3.0070724817799195 8.181018211296244 7.838703903340229 0.51078769531623 -0.2035228698204366 1.3448666734634966
Ni 5.6935449962184626 7.856884965335907 3.4317581502336334 -0.328228572231654 0.5156442520775828 0.7077542520753876
Ni 3.17403792345755 8.301699505758661 3.512744141027928 0.49336692873662136 -0.022927812440766963 0.42070549651615285
Ni 3.575867245171568 4.393559854950935 9.46512072436359 -0.9534586403598806 0.5267110514147058 -0.8281140188130836
Ni 7.208726635005609 6.199209444693779 11.449980549161255 0.797421217714917 -0.9424149809512091 -0.16752202624579537
Ni 0.599199887793028 9.029690103252573 0.261285953872157 0.38897525529240756 0.5993974233358387 0.13852435346186467
Ni 4.747185161220558 0.389555685246061 1.5902575000139605 -0.7449424310899107 -0.889642574345184 -0.43286167226271255
Ni 5.973286922795172 5.5921615321723595 0.4337685380055684 -0.21863915663658473 0.3936839736219865 -0.1709189677424863
Ni 7.776403728630036 8.629429124599012 11.319695406820005 0.9522929021865536 0.47718594810138465 0.7993490308652491
Ni 0.1056738737976973 5.007043382099747 5.620924403093191 -0.6307882789422944 -0.4627815997505965 0.6418939019371526
Ni 8.155311806650131 8.918121422779365 2.3155864210380273 -0.7018563985337137 -0.10259395811384266 0.35315413182874017
P 8.49985153932814 1.7512262828518088 3.498048586282127 0.7198669761785216 -0.7154189677094969 0.8785343802471645
P 1.7648456297733648 3.150269413972347 1.74588490298039 -0.046337706724275035 -0.22654221353374535 -0.9574693041811705
P 4.713582960476971 1.0404874590229258 8.142847986052429 0.08178190646449786 -0.07686312900664181 -0.011411841381367442
P 8.50662966565839 1.5757611428637697 12.22863223289428 -0.21171594715419023 0.08514773761293723 0.632453068239227
P 6.330039901719843 7.752139478522274 1.3551998304614827 0.23839062823189913 0.08459623598484141 -0.9564285216214818
P 1.8019180148748601 3.3770482151281005 5.975898123856173 -0.848139827115707 -0.12028726162854766 0.12825588165632104
P 6.82503240661136 3.8889229415841933 5.814703103025121 0.48631824941995605 0.6199752474871904 0.6475019921525493
P 2.4287054176399634 8.655964768104678 10.305550703133239 0.7759234528524572 -1.073331954379461 -1.311731838582741
