# total energy = -340896.4207377406 ev
CRYSTAL
PRIMVEC
9.01985486858322 0.00000000000000 0.00000000000000
0.00000000000000 9.01985486858322 0.00000000000000
0.00000000000000 0.00000000000000 13.20146934108058
PRIMCOORD
 96 1
Ni 6.459713204598029 2.0529369514790154 11.328497235236998 0.7644529903190125 -0.9608685596707065 -0.08027421157071982
Ni 4.552717500888939 0.36320429000006954 5.938812992285775 0.13022174713344026 -1.2353376787927177 0.44383796876855824
Ni 2.6541012421228802 1.5314360168489936 4.799328444099862 -0.16746366220403416 -0.7741532483259119 0.34598898153886865
Ni 3.6533117171973255 4.385913329380334 5.056518774795912 0.36258339556244007 0.48504606757575175 -0.8624948102857984
Ni 5.0546633907003455 4.491824462341673 2.7447570949634974 0.08276406787210908 0.43744286387549175 0.13206908475482415
Ni 7.181617269200375 6.158828894146288 2.556622771246839 -0.018827931339780477 0.10808480602508484 -0.7655966170051525
Ni 5.063205193026557 4.531881636714123 11.217076775073073 -0.2263028438294296 0.3285718145036857 0.8132872382128962
Ni 5.742445345270946 7.584516135417124 12.207028369378923 -0.9094146147657887 0.9661143814506781 1.093970199455103
Ni 1.8667310726803548 6.474460666903581 0.34256596064145606 0.408055154741994 0.20747619804122977 0.3398440449833954
Ni 2.994366237850486 1.5919682612114143 0.494838244369954 -0.5106892220651528 0.28498184572787694 -0.018718145234793572
Ni 0.5129510144346503 -0.06764169377479738 4.480657882320711 0.9265299342898364 0.2531312768761834 0.8536846681933362
Ni 8.35580390407017 2.473045700312886 1.3698768908025776 0.7853192922450605 -0.05152027936647901 0.07969365647690146
Ni 6.887651187243043 0.6134800001435592 4.80627192818721 -0.2540563597936141 0.010858539981058717 -1.0832834091652184
Ni 0.7473319367647802 7.41460913391885 2.502430582697612 0.7249713872846224 -0.7636706036270332 -0.20748314001976526
Ni 7.592814401668567 4.104340527672439 3.747830773772174 -0.10174060897461187 -1.3416815908672957 0.32314550128179187
Ni 7.345120173917645 3.857800841313022 12.575072713368694 1.9412109117953085 0.22487073936859336 0.2656049838631619
Ni 8.091080190794552 8.97882330246104 6.7854490185019145 0.10597547299156587 -0.011629613819128358 0.478634250512137
Ni 6.90673719962136 0.5766158543069904 0.38364418255701804 -0.5881185079879097 0.6737380430309429 -0.822504643046106
Ni 1.5626807932565967 6.5436429518476675 9.210427011553323 1.1864463524086533 -0.28053306592790395 -0.4781969058644023
Ni 0.12714026279763627 4.869440676055388 1.5349086608781297 0.03055576129966996 -0.37176480495139197 -0.4946756202457158
Ni 6.486691589769837 1.927921766430118 6.826796032085185 -0.5614898496567878 -0.24473045440699784 1.1085025887433233
Ni 3.5682725278292877 4.369767789608507 0.5847265075823127 -0.6882429215153373 0.14178476938069132 0.18018522353576066
Ni 6.048949025151653 5.689453699371793 4.832503469396388 -0.8468082527884772 -0.22290718788431935 -0.06158974778733909
Ni 5.433082371475341 2.9178959103725233 9.312857382616366 -0.6845608446780598 -0.8431014933608514 -1.1132922968224825
P 0.19854323594944595 5.381957835482761 12.422490146641229 -0.2936274372180169 0.48547672735526715 0.5655308524953808
P 3.957542393713506 6.076784296512467 12.511876905936653 0.18555677226031914 0.5406410312322366 0.3534158701305591
P 2.384470727933364 8.537644173232204 1.179070886147139 0.2608294168513895 -0.1318158310934375 1.038470880836218
P 6.390287383579172 7.724513298991723 5.928476238889957 -1.3047798327449398 0.5768010260925615 0.15999152219670512
P 4.883367331590417 1.2321121412467093 12.445447480622937 -0.6120012281427782 -1.6951769080855388 1.4748179405443698
P 3.9034322858413315 6.133203487167651 8.282614999703377 -0.2460070071265763 -0.7350447123602245 -0.600769878203333
P 4.6243080870168685 0.8410743838567489 3.731540014340946 0.1904873767927171 -0.2550215519203608 -0.508276498858602
P 0.23292241183789275 5.588323089359655 3.6608595315442893 -0.06478434346523682 0.04281580961394562 -0.5255129173415466
Ni 1.6066525845346182 1.3020160145604869 2.591963463637898 -0.7507502960209393 -0.7762697804482824 -0.5302756288375126
Ni 1.757599851619272 6.454779344120269 4.887566975902016 1.3616737177185068 0.7951835866336499 -0.3512779978519499
Ni 6.0192737034481265 5.740100183069451 9.12305979770757 -1.2359994807464325 -0.5278230535319619 0.1531027654966718
Ni 8.720224070473169 2.319419536405756 10.25882185189134 -0.4157481525108775 0.06782698694630254 -0.3507990013330023
Ni 2.297095396218453 5.1486412559979255 7.01543185971878 0.3124723378386618 0.6770077149211502 0.769298491336772
Ni 0.6190190928663967 8.923089620757061 8.904786531759859 -0.16208440016999184 0.798080962786103 0.3018521391206543
Ni 1.4870853916768847 1.1035250937678434 11.501146272540097 0.25443842572338116 -0.8401436962841079 0.013021866180964669
Ni 4.012013295770526 6.79102148468685 1.6603622108616143 0.46514392933518606 0.030195806857089932 -1.0047824874448372
Ni 5.452781733967895 7.845081695712402 8.091550125220312 0.1337099627923568 0.8394613255051028 -0.30784178104518595
Ni 5.2114735632887355 2.5799309775733072 4.789849478878514 0.6135929981099304 0.9214805447913872 0.20042829005551288
Ni 0.6234613712673045 7.235700317508686 6.869410335242726 0.12274832157453053 -0.12817772012021797 0.39518421231659684
Ni 5.140424168438074 4.457332538270462 7.133558581793518 -0.32981545710279975 1.1167010653937155 0.36299194385476835
Ni 7.9961101414886455 7.195904718920248 9.072155346167747 0.8684697969223107 0.3326480414555884 -0.2942596714853771
Ni 4.548036196340571 0.4007900242063289 10.525663427032004 0.1918184368993148 -0.33674226612962005 -1.9425810526699578
Ni 7.990914705226873 7.146421796468715 4.630059146323302 0.8044357013595372 0.31543142046698575 0.3917805859516866
Ni 7.203282960000335 6.027626088827295 7.022323028649326 0.020914381555163983 0.41868743764485955 -0.7497966738584184
Ni 2.3574382236338303 5.157724249601405 2.7290733717482722 0.019324154249908656 0.08695008092899863 -0.1636805410125181
Ni 2.3534063486181838 5.063683245321478 11.440102602420659 -0.4261091840302274 0.003116691252110761 0.07766299920011786
Ni 0.9942224954689589 3.4225838359887546 3.844175448922339 0.11936397848332991 -0.38743850693290693 -0.5015198968610588
Ni 3.6783237740617265 2.6090109888718387 2.8894716425049487 -0.20995088483396743 0.5214539167808245 -0.9862471476448113
Ni 1.1110386326672468 3.435013195656675 8.269795982315824 -0.7346924712271283 0.08224573347479384 0.15901681698826162
Ni 3.868768984532319 2.6022190383421258 6.891905852667831 -1.3166971530078162 0.03917898419230672 -0.03553881633655815
Ni 4.132121679905527 6.7680569348214465 6.041018768968752 -0.10017429292875651 0.7612393684777212 0.21075332613060477
Ni 0.8910795558908458 7.2631026358476865 11.448010308967005 -0.9582198091939498 0.3610744151170814 0.2555324301185083
P 0.0076001295037663045 5.421167143520824 8.097490601473789 0.8707189979678037 0.6396886667557178 -0.4168812376740562
P 8.52328456467536 1.8518934118285917 7.984512412416794 0.005110324643371844 -0.9465318313330603 -0.09255585715155026
P 1.7856786590548575 3.0802262339890465 10.484408415965866 -0.5277243231705685 0.4342084160985941 -0.36334315654660004
P 3.9931798393216007 6.20168222345129 3.801864212880069 0.014029224399556483 0.04978504184292716 0.42011105746526356
P 6.9532796494664035 3.9855490423121225 10.337185446854278 1.0604694965944963 0.2085408918603183 0.045591829697186
P 6.324027531532333 7.872420875069055 10.241039208505779 -0.09706042989012316 0.17386416641373928 -1.2395576304113363
P 2.327780941639546 8.491967629430787 5.961836171206215 -0.28554337465830176 0.05294081386308947 -0.558013203962097
P 6.84661084871689 4.092253922480121 1.618842918055079 0.24469163074926245 -0.12704386362609088 -0.2488442194650553
Ni 5.33742681321823 2.9294954434152998 0.3595196793873368 0.20527019152884649 0.24868686795158457 0.3926863855954076
Ni 1.4827378217494989 1.3498212440524895 7.02563692323713 0.14371721051671377 -0.406727437069506 -0.6802624744130219
Ni 6.909163540514444 0.7840977661859787 9.09050533840898 -0.61004127620293 -0.2436459630935675 -0.2069545212098049
Ni 2.7413412760184745 1.6702605993228452 9.09564034164479 0.36203215104466036 -0.6768673326885439 0.5534227563779373
Ni 6.222842802392467 1.9806247769813958 2.430007463988152 0.46732345348500803 0.1817965338869385 1.2318425211552655
Ni 3.9709278579712666 6.783679323025248 10.371720666227672 0.0561948020240129 0.7435933732611839 -0.012217110891482186
Ni 8.148103711709352 7.17473512012445 0.22932258785859874 -0.18906941339926792 -0.9630424273935736 -0.29256377184019294
Ni 7.35949782218373 3.930618127669425 8.133768456759984 1.415128495103537 -1.1174109469765465 0.19949472249764996
Ni 3.4338857138290337 8.497262284093392 12.429037659110708 -0.728557561973984 -0.966190228993936 0.2696853245801226
Ni 0.18722602435631092 4.790390670155782 10.257752999118738 -0.6390482049582413 -0.43852915496113504 0.18784222586038615
Ni 8.609604573399599 2.2892210631342045 5.650321060098009 0.2853315157578118 0.34838602101613547 -0.41744122394258437
Ni 3.5627884562196392 2.767841608895362 11.63239507911766 0.06318871684334279 -0.03775125060684466 -0.3221697676320839
Ni 0.9733595717302792 3.2358728453313104 12.689212659700893 0.12477846463068187 0.553964230703704 0.1697714844016044
Ni 3.000517778702098 8.430226724549135 8.168250458991112 0.5038328612649515 -0.5003299903180157 -0.45340427230075464
Ni 5.609736224230223 7.893175560552281 3.502534925365011 -0.4410588633615243 -0.3407660425770325 0.46528174046463094
Ni 2.9861401304360125 8.238175979955981 3.359615328893166 0.0575482307281138 0.4046242746835741 0.8512583181400307
Ni 3.4196794428007498 4.014863569830804 9.392119355099569 -0.3039861547445217 1.7590924757925768 -1.0803112139107718
Ni 7.151355656946476 5.980289891775591 11.181631452368407 1.5759540831657635 0.2651720100908014 1.1637543101277763
Ni 0.37919739422879967 9.074244344498 0.60633537329816 0.6804393663105185 0.4804124254584824 -0.03243986569626026
Ni 4.7620683266454265 0.2264218026124425 1.5507637613311565 -1.1806922235336956 0.25146134537292825 -0.4455685783064197
Ni 5.968564080768119 5.605379634448216 0.28187767279408976 -0.5983671822991115 0.32481466145409865 0.6504075958351185
Ni 8.106729638562216 8.937214713093756 11.055768400985123 0.19467107585676152 -0.31175551427729536 0.7052934492397208
Ni 0.09826410021354245 4.825541043614336 5.82316763221731 -0.5447589100553522 -0.4971431079496018 0.10797913368515596
Ni 7.869345104643249 8.688014169621104 2.598709412909043 -0.7919810205359522 0.4602084397067816 -0.3262935599924703
P 8.529986316658862 1.5921125788853525 3.383246446015071 -0.4820134513970151 0.23021143485521642 1.2092551227730528
P 1.9237816531590184 3.2398686409284716 1.6013245564099152 -0.43092820268542564 0.4081518282208583 -0.07152449040254778
P 4.732302806395688 1.1192647400817197 8.131695694168048 0.5311929984454593 -0.982242140250476 0.8525140449240028
P 8.514111372525669 1.5526236553540342 12.528959608603616 -0.18142989457613914 0.5478308641124565 -1.1924514209521528
P 6.258317890617381 7.755857293800158 1.2445829922458873 0.45969216219199543 -1.7351323654325537 0.7645838594699219
P 1.9661930095875837 3.3549078667663967 5.835564520408594 -1.222184172129895 -0.981126024368162 0.8865613643166989
P 6.788973977687852 3.8374881287062315 5.8915913473877595 0.7621649656157842 0.6854890129192839 -0.9845756734796591
P 2.299648015076234 8.406693923842601 10.313608448860101 0.516054343031808 0.7990633813040303 -0.18999501053733087
