# total energy = -340858.9607122742 ev
CRYSTAL
PRIMVEC
9.38251407010543 0.00000000000000 0.00000000000000

0.00000000000000 9.38251407010543 0.00000000000000

0.00000000000000 0.00000000000000 13.73225774065660

PRIMCOORD
 96 1
Ni 1.9325914789500913 8.739915045044997 8.345999575178116 0.21291665233051071 0.5409230812490298 0.37947142956703034
Ni 6.982748431284052 3.2520356647456303 5.480090955386627 0.618493006514709 -0.13981376169724952 -0.5633161042322492
Ni 6.860803896178777 5.922702611423386 13.390983947516421 0.16913565058981841 -0.4194808800804324 -2.0646495745686444
Ni 5.242845643374742 0.3662792747331906 0.17622237888337888 2.8136342940487284 -0.6071829808185285 0.17745059821341697
Ni 7.111936267235774 2.189240768268372 8.194436319720426 0.8274804989941427 1.7320529551762816 -1.1805122463124058
Ni 6.166985747224028 5.248268736495527 3.6590566302372753 0.13230845445913988 0.08971067439327131 0.5994689000037224
Ni 8.786958970490705 4.483978524512716 6.435965536506559 0.3084889277108816 0.630319823946308 -1.0517025490351437
Ni 9.085238474647955 4.242078547280724 3.5973159347839587 -0.9621610532298849 0.29754271311202307 0.6430069324956732
Ni 7.436083362628329 1.0447147919032898 13.653901694471374 1.5854553377879792 0.8075860740630608 -0.9782363615251927
Ni 7.666320874896417 8.375301166555648 6.875357113721425 0.034580309078030766 1.2914322077934404 0.4223759422400403
Ni 7.5335020060074225 4.708211227788931 1.4978320489216117 -1.3729086672023774 -0.41591064623067076 1.73008657547853
Ni 6.036090293715241 2.8837156932066077 11.344671707025705 -1.9656888423320147 0.39819548833909485 -2.0208603452978355
Ni 3.043284109651588 5.54933484732557 1.0348997439557919 -0.1464844888492058 -1.1631071634620809 0.47442869707122165
Ni 1.5055088219171595 5.46884225929232 4.6682951982668595 0.10661824878188735 0.3680109943359146 -0.05483648822390555
Ni 8.516442325406816 0.31038013252728097 8.576179854110501 0.9240858436247184 0.07264574849118458 0.6438736513713428
Ni 2.639760945397709 8.188317044057145 2.1341710403044645 0.5369635823806495 0.7376790646592779 -0.5607426870781181
Ni 5.8451655153158235 0.35193247249963855 7.182629757595412 -0.2941082335091773 0.3353392151345063 -0.7480879186974277
Ni 6.136820964553915 3.164496808660979 -0.07328681724300247 -0.146598902939883 0.5062412135961281 0.7175295862945965
Ni 4.391701498832915 1.9717822401361138 6.140653721543258 0.35025084213901614 0.6858507671340769 -0.48360136470942516
Ni 3.3568195816538173 8.751802690346096 0.15564371081794845 -0.1932202023428479 -0.4942058796981489 0.029621936631490924
Ni 3.5615741857626437 5.11985026669589 6.004140956872856 -0.33676103518269745 0.4256281306287509 -0.8432058801491994
Ni 1.1403132275567212 3.246884664532289 5.279750824138232 1.1884451280062371 -0.47829306512263436 -0.24363182202618042
Ni 3.7234131706076763 5.980874198532158 12.647876637503847 -0.5376323263128999 0.7155171838502581 -0.6860639115861475
Ni 3.975624530780401 1.5142251774694255 1.567866886794953 -0.8842753964959996 0.010959841445613384 -0.5210736506232703
P 1.5867707761024936 5.248981807563313 6.9998124095864265 -0.12194382339536418 0.16322699841486726 -1.0431888551371775
P 4.599467889951728 8.613607640906565 8.396245752669019 -1.879752804489827 -0.6691627649554347 0.24748024923799314
P 5.016464344381123 2.9586632154364247 8.046746166062494 0.19132041421697374 -0.3169720254812283 -0.49186900403485617
P 5.473261423409776 7.504500655079484 0.4538303280861069 -0.14628702812641903 2.450120673362535 -1.762931647033009
P 2.868788113353373 0.40012106465942104 4.061507373135262 1.634269788187521 -0.06839417230368221 -0.9000856240553788
P 7.201698779150228 6.3662328155856205 6.893662398632588 0.5589020343249536 -2.3398188050814737 -0.3031744574765037
P 5.261582523932196 5.194056570315772 11.540397517864408 1.7502681926327275 -0.9344970116557132 -1.697538980559812
P 1.0958119634185108 1.2019094322936703 0.4300240751875446 0.22740867529909867 0.5343297443022281 0.33490829824467483
Ni 0.22181107639996123 5.611099937315416 1.8110654039714373 1.7417329014682068 0.0005126779703604073 1.1909835781573748
Ni 4.015612805660656 4.77978104496082 9.636927486022092 -0.06682040005865911 -0.44907427746683304 1.1522177702430867
Ni 8.259183172675298 3.6568160858821823 10.247765742468987 0.562775915458063 -3.3574634932009597 1.2412697280064364
Ni 3.5559071472765638 6.060222119851332 3.1195160980548233 -0.65839627046755 -0.7178640868158799 2.0774534112015317
Ni 5.092537768296915 7.045479920221028 6.9466961210476885 0.3253083132610655 0.42993729952706605 -0.7321293384856423
Ni 5.2173815002435795 0.47196578949296897 3.862005100391515 -1.8269390031229054 0.8637165985080415 -1.2784324530996627
Ni 3.1977109083972772 3.440839994969793 11.79798693509048 0.3386430826967587 0.3004208059907665 0.3784715275476062
Ni 1.0266815998995704 3.443701661754983 0.49715127195685216 0.8024086436271793 -0.10032393113274335 0.2272310120706538
Ni 2.788736503480463 3.4730314006746634 7.744746495084497 0.1378869769881819 -0.6375173701360118 -0.6865213108385403
Ni 9.032593188314518 1.7780239424936553 6.312087265255619 -1.0239274358044044 -0.5527673821821255 0.5960544750055348
Ni 3.3847888560362764 7.729831112499527 10.044858555376567 0.27590070936221517 0.4432468721517786 1.658203673295299
Ni 0.31075261833505813 9.144320165619558 12.926476318441638 -0.8422792545698721 0.05580605122602647 1.0904462454622446
Ni 5.654878747871791 3.214045865357982 2.2827544092999372 0.0493482114158247 -0.3852504981426526 0.14051567286028058
Ni 2.1439419904359287 1.2912591135899336 6.5198696066483155 0.10230419478756574 -0.19083139039569713 0.2588147004142059
Ni 3.4971819918388536 2.610571944188775 3.4472360547975427 -2.02907064902277 0.24410053413248284 0.8988334968158327
Ni 2.173093461588663 8.132800708424467 12.203884813650362 0.4154745871345167 -1.264798664366312 -1.4873636384198643
Ni 1.394964041382394 6.116836209627836 13.40757223235647 -1.6862029867217028 0.42702218276280013 -0.9571278616813516
Ni 3.355552942257094 6.426646823552295 8.29484704683 -1.2158913971426477 -0.18979009361537635 -2.1511831367855145
Ni 7.387791562813999 5.66303215258107 10.756065317619814 -0.571993320291273 2.302542951449151 0.9423167648104481
Ni 6.2731488936975355 4.446495380883757 9.150572672982346 -0.7824327147258847 -0.47670463758959186 0.0476314858350341
Ni 6.021584926994248 8.00578023321825 9.920018576435524 1.3561293908615095 -0.019807264533914272 -2.9271937500351397
Ni 8.190521934858848 2.4882802560636574 2.0440332278280184 -0.35262165636403786 -0.2262064274608814 -2.195649594629006
Ni 3.9209995339824544 2.3747612185751046 9.674719314363289 -1.2744048199975084 -0.6318025791394216 1.7001648482184333
Ni 5.080584445397468 7.76517504292513 2.6030593651890985 0.8156215427730276 1.1544610577513086 0.225953688020127
P 8.869881629662853 4.8853906231053905 13.655878590181668 0.14829454547475107 0.21423357136972138 -2.3207836428268935
P 6.7507657714027 0.14018977192651974 11.530454867725833 -1.0324496143428026 0.09326856694785873 0.627986547827441
P 3.9271919932553234 3.6455101564521715 0.15501132937099177 0.4254509816209382 -0.11352294632152062 0.17437607305315128
P 7.88741043596595 2.8836687806363583 12.233176084262437 0.9756863414098295 0.38356488291011365 1.4588871282467262
P 0.4742035190938467 7.621819610758208 1.3710208037787046 0.6651456733762415 1.6907134729975462 -0.40312789264370574
P 5.139487868602124 3.221326696260628 4.4453788617118315 1.6225982653868636 1.368724711028017 0.8438820802806177
P 4.205327239747651 7.432311591980309 4.649921421003132 -0.16547439968814728 -0.1936961135380019 1.370272258020795
P 6.621784350760074 0.9269876968634007 1.9410957896848318 -1.455304038881158 0.9269215133013005 0.7744728364488597
Ni 4.296881811845617 0.7875006752392112 11.910605251230251 1.1311833181702906 0.7052284003297403 -0.8008515835527046
Ni 9.279569105647452 7.057958663907264 11.637498094017213 -1.8058166193219933 -0.2178714252326248 0.18805717008466968
Ni 5.392853278002974 7.661244934795475 11.853451666895882 -0.5439742093705277 -0.6636603470799667 3.810025986326709
Ni 8.309914426142578 9.063883872670607 3.873059578444991 0.014938623587703304 -0.9094848058820918 0.1811948957471976
Ni 6.289502615686341 8.082660553342327 5.10868788973084 -0.2526790198301132 -1.3218786972087557 -1.4192641145384655
Ni 1.4436780543289653 1.7285124158528506 2.4058773881698676 0.043955579645343655 0.6719968919701201 0.6664006288292652
Ni 7.550277941128469 8.402745020151318 1.8104058132337364 0.05928038292787209 -1.1410524976548864 0.05781279724341011
Ni 9.134937651569755 7.052057062569938 5.625734782730296 0.11873020155407293 -0.5830547203117572 -1.4130957809442244
Ni 2.3093932431901347 7.859215981246295 6.165536148803333 0.2736653922737932 -0.4446558366841633 -1.0857231289549625
Ni 1.5724155296062967 4.970443112966844 9.176416807932526 -0.6787753483445342 0.1098084735844109 0.4686316307734703
Ni 6.916113816502359 0.9237131994600198 5.157973297783044 0.8388080081918199 1.205987764875691 1.0688214681036174
Ni 1.3744444831554772 7.6708620116965225 3.7666487336005683 -1.7233194319580256 -0.2401173811150187 0.9908234541615838
Ni 5.747380953888788 0.9769261278934712 9.454302479551128 -0.06508799074858468 -0.9389614751849701 1.8221384964104683
Ni 7.76047440338618 8.130539522538465 13.23403794374836 -1.8214630676099985 -0.8807771535347542 -0.8567990454526019
Ni 1.6750696158251792 1.5266007135011141 12.10005509842104 -0.01020933643283403 1.1466731862757735 0.7461104832560828
Ni 0.8355588504537014 4.330386769517459 11.515431586229289 -0.3506218523251897 -0.13268486396195214 1.3197107430231594
Ni 1.4822683346158005 2.5799192707880727 9.95636737411586 -0.385025269505724 -0.5210214572290962 -0.7684788236489539
Ni 0.9190360162061936 0.6016921817511496 4.574599536462728 -0.8470689626490314 -0.02629132959636117 0.46205834843132687
Ni 5.339382330433153 5.783203392530932 1.4144083634992033 -0.40838785549106443 -3.2062468889834066 0.9422002938372418
Ni 9.217991665938603 6.8811639516668475 8.089947952004808 2.2525193112328563 0.6403440409515294 -1.8350829723862785
Ni 0.6285740227552371 9.005890553328781 10.574168394239116 0.49987439083783597 -0.6358929471587113 -1.710379841078222
Ni 8.577137808794985 1.2501074069675027 11.011526780659391 -0.7062082477445063 0.5471361520382771 0.0603245079216703
Ni 8.488247870687163 4.898066399586672 8.589815461779077 -0.17088811450455083 0.43536027031485025 -0.8380423336703888
Ni 5.643009867598791 4.649411012238823 6.867680340725877 0.8745661396280356 0.32729243357062987 -0.4332501659503829
P 2.698523630891618 0.3833535738010201 10.691991190922312 -0.5017932051271036 -0.12022941180741874 -2.395609943909165
P 8.066109798558475 6.545307478740139 3.452605667588245 0.2534076704660217 0.07347364370911862 0.2529410152422482
P 8.75068617117417 2.1258149732917113 3.9302131627793595 0.5762775494889237 -1.119261369921724 2.8645927873744665
P 2.092197425451271 4.191403588897744 2.4340568308670427 -0.5512692003700441 -0.2663071521365091 1.5652708924203043
P 1.6276316247893807 6.219077465228528 10.956446731930027 2.3987166078589466 0.4019264161364368 0.15908109456729377
P 0.3844297481625324 9.042069527504818 6.684272832583161 1.1097503451074953 -0.2550236088028898 0.19084218902897454
P 8.14116052844284 7.666668027916261 9.564380010886213 -0.38547264145578775 0.49439099912576145 2.822517198360655
P 9.342863545427416 2.527030039089339 8.328422373357217 -0.1973187978922537 0.726608151557097 0.7797009176170185
