# total energy = -381162.76793794415 ev
CRYSTAL
PRIMVEC
9.33060457349274 0.00000000000000 0.00000000000000
0.00000000000000 9.33060457349274 0.00000000000000
0.00000000000000 0.00000000000000 13.65628294527900
PRIMCOORD
 96 1
Ni 5.570342841881184 8.757565341613192 7.766096249902496 0.6180788017954258 -0.2571640521846603 -0.060409868546625
Ni 4.544181629907909 6.854971126658761 1.0249109109821266 -0.5107103051110753 1.054964764726183 0.4966651398719188
Ni 7.504661111834879 5.973098381305672 9.6076048638954 0.01635555853988796 0.9114200752315916 0.09488013440935272
Ni 8.921056192112344 -0.028174693081111667 7.514096219015836 -1.0107890986502335 -1.027345717457334 -0.9845643606257495
Ni 4.599400146815453 2.4585116257944866 0.3388782216230277 -1.1877401315194125 -1.2047574920130155 -0.3084321063310172
Ni 0.6294425736030578 6.0780116973091225 10.139995155711738 -0.12566138145626743 -0.33772956974355384 -0.41627420021767664
Ni 2.341468524056023 1.2900773577539217 9.862048580077444 -0.3519806803459293 1.1353559614907414 0.4112710905761304
Ni 5.041708118340495 0.4355535469915223 1.7288303689981641 0.5107861526543331 -0.12361941132557418 0.6362328469966333
Ni 6.52324014801498 6.271024580166413 11.850608452656795 -0.7026606396025641 -0.8066936441557785 -0.5932265186384363
Ni 6.199337546472487 8.838984195708363 11.707831543951281 -0.8649885232419295 -1.3935255721217807 1.6288195637062273
Ni 1.705298584672239 3.815256152068922 12.407346956685068 -0.3960715000175566 1.137930664196453 0.3686851375848037
Ni 6.669180131616008 2.951354150812475 1.1070258281664 1.936193403976059 -0.2154353049873064 2.000013069535181
Ni 2.0246945042839535 7.798799085304531 0.8228389443016634 0.31189641073053387 1.021447349695028 -0.00334294833030392
Ni 9.380429839106107 7.3860504685552755 5.4761009381432215 -2.1928622616918556 -0.14949653620265224 2.670772746664091
Ni 2.753927892068522 3.5441461102869707 1.3493154990419607 1.0558384255803879 -0.056513875926328484 -1.929693140963696
Ni 2.413248863794065 0.8438682605244112 4.832289233746378 0.23530941820341408 1.0731180385964423 -0.37496582838719295
Ni 0.9321273807136891 7.039810400051535 7.632345767904713 0.43973911610883626 0.7615023923311208 0.730077083942304
Ni 1.4753551695540392 2.5123212214358865 2.763703566310501 0.19558510303059864 -3.8243272334407297 1.1410882359888284
Ni 2.379285463736029 7.986717458153118 5.594582819081945 0.17463704002402183 -1.5367303617784502 -0.6210929060314014
Ni 3.2656648910198958 8.484150640541587 11.146967979712663 -1.316086516007011 1.3973256625941612 0.0629524324628206
Ni 1.937798585399203 6.50920691898001 12.189529595060115 -1.0794789478174636 0.8285063691554957 -0.5901103416069579
Ni 4.26795841690843 5.25939111926192 5.7907009270874 0.45316104594169704 0.4412619805112659 -0.618249008824703
Ni 3.522219189919832 3.064758316830435 5.235054103775279 -0.3315283260288484 -0.32849159608505357 0.06307301720108492
Ni 7.2408942557248155 9.185532174157684 9.745464544076029 1.691772767499996 -1.5127352844154334 -2.2024558189175614
P 4.1516897553361245 9.350945129165614 6.326887841838795 -1.8237557202989172 -1.5155606696793706 -1.1233401679767878
Ni 5.851595250658488 7.332931337640329 5.864703816796272 -0.3581490139401703 -0.04732501033820882 -0.5027285724571794
P 2.6278807570729135 6.161110060198373 3.969730839525195 -0.6800259329221837 1.3638329301533545 1.29063593714439
Ni 8.341802939639004 7.490282650436682 11.588106826504937 0.9865759917391396 0.3628420485404654 -0.1854816960480096
P 3.1827811320321113 6.437090677483153 9.924921924844222 -0.6109501611704445 -0.2390544870681431 0.055373848784614314
P 4.2369341572400305 2.354326096935137 2.752246517153561 0.40310346716367357 0.05138503934019537 -0.06653783582123379
P 7.30973545507322 6.142122280220872 4.296812377990702 0.7163075409620374 0.44132163010460773 1.3705746197525621
Ni 0.6311547395125768 7.456375234005116 3.467507324831835 0.6966229180489165 -2.1107936772248745 -1.3437060774964924
Ni 3.7704505896846663 7.168973956920601 7.3829275152587295 -2.021344998243738 0.45071155595993984 -0.8892612797463653
Ni 2.5142526565490773 1.0302200248922977 1.1425474391611647 0.11836047691948004 -0.729775236431169 1.5103261607533085
Ni 4.358399965469569 6.992420260245281 12.37074859394121 0.5815616807059985 -1.7091228287426694 0.17428377044966115
Ni 5.765716367654597 4.058971539298567 12.996561562428173 0.377711252342814 1.7021368843431397 -1.7179699947206541
Ni 1.7979234946656804 5.143374384008727 6.378180040409959 0.2885281683182386 0.6658817802113177 -0.9371192797699086
Ni 0.06312247190456634 6.638650393981422 1.3231720785412429 0.6951933846912414 -0.8375939332790606 -0.2158528521406992
Ni 2.2624849577122657 4.154003745230188 10.02125295090993 -0.5284537451374254 0.6070883642221933 0.1551737890930876
Ni 5.441132631990061 6.593294325936885 3.536772133620524 -2.193126056876203 -0.13337391960917674 0.25688637304324147
Ni 7.308214566554137 3.970078871069745 10.839769959248166 -0.038304037786521125 -0.5251496204648569 0.8816125049518557
Ni 9.298339181493304 0.5326039626573611 4.391778336631 0.0860926180247098 0.6556675586824773 0.25876430679224466
Ni 6.665457220455801 1.657292624974822 3.3514980540621715 -1.4569472309115359 0.11767553503731347 1.0298862244910005
Ni 4.190010547654354 3.058264216159997 9.403662111030421 1.4743695401530414 -1.6536715897529002 1.7864562125175103
Ni 7.662031085840055 0.6599107292485279 1.7271377973579092 0.8594375115167134 -1.149949800144516 -1.1156533408554916
Ni 9.017609286563046 4.9113409135023405 5.01320778716542 -0.6534738934652681 0.006358338117860017 0.19320657549609307
Ni 8.848016220778742 5.008267232129506 7.367537616342322 1.1554684159699005 1.1658975817230244 -0.07170523895478619
Ni 5.7909276607746 5.0815964521998644 1.6601533882874029 -0.7539826869153079 -0.6167045471557185 0.0849181381006344
Ni 5.21323261923799 7.384072380420027 9.97060176486184 0.08457103917386079 -0.04533497649137354 -0.26128733032441454
Ni 8.746620542638446 1.7954788763098544 8.76734754727826 -0.0035949164401099377 0.7166332997325723 0.951396101403897
Ni 2.8556128189455765 8.616346643844405 8.928641973498932 -0.5398825557996573 -1.8438080109641017 -0.39579947730309256
Ni 6.7901514178117335 1.2874088048922188 13.14753167486747 -1.0741269394769308 -1.4782562768019574 0.38026590044386765
Ni 8.217855190635996 2.8933271219770553 12.768856559308306 0.47249702726614756 0.6337535322182053 -0.06553613402959681
Ni 6.48106581607478 1.7748675711647441 7.733839417391332 0.08885398281993084 -1.1407912735737 0.1633452691602864
Ni 0.33749076074703055 2.60321063900878 10.731462169359792 0.5304530349556413 1.4946501447789484 0.2504614433535041
Ni 8.518860488952548 3.096743628753223 3.4168841305969795 0.127847847584625 -2.1318841793465864 0.24608131200793748
P 1.6005812113614308 9.011758997597006 12.7599803553316 -0.24324538522103914 0.11605214050127756 -0.981783969667135
Ni 7.145320874737325 8.728733773981507 4.262945083158105 0.2560309670214816 -0.2735386368879418 0.5366360238379015
P 1.144295994427889 -0.10606284646695341 2.7311332254911087 0.03178603416234526 2.8603959756842996 -2.0036380678822785
Ni 0.47543628248824493 8.542513571135824 10.067493560252684 0.5478748299765144 0.5239939095938589 -1.030031234709297
P 8.919553964802084 4.180763918682509 0.8863402387453386 1.187190943884162 -1.0963019329120733 -2.694657266591172
P 0.9927763093887538 2.7673639624211517 4.774645692752274 0.5134804116570447 0.5266403460777704 1.507646042817984
P -0.39793441612504127 4.157232134356584 9.214685647641566 2.0329054493878282 -0.6580769394549183 2.235653645825769
Ni 7.000603200314209 3.834318576881716 8.54201811604157 -1.850086644883962 0.14462712392549285 -0.7898390344922849
Ni 1.6081110091215505 3.0145130120742465 7.438208547215831 1.8100494264564182 -0.106235668631488 1.2826284934588816
Ni 8.89868140273345 8.670156239485806 -0.0037406393085897692 0.017575804100234245 -0.1312036514307353 0.2652609702601819
Ni 5.056721060838677 4.897456974137957 10.513575761262196 -0.24352332147277414 0.942220605552216 -0.11249064840226433
Ni 0.6573606750628518 2.2839266866500036 0.6186032104581619 -0.9423455611658546 0.27330518072089705 -0.9219968223061734
Ni 7.161276208281072 7.385145399927355 2.242456815342877 0.3208639043364668 1.2155281002659581 0.5913208169752914
Ni 9.041495633856611 2.6433322379784383 6.528918753859847 -2.0948921755032694 -0.46089312447863207 -1.3813963929584143
Ni 4.736140154466695 8.924265920029917 4.207132206749545 1.5248400380987674 0.19229974741110753 1.3311467527742429
Ni 4.76129546396023 0.5234599703340436 9.500935528141696 -0.42430709782448217 -0.6656984605559181 2.3483204147945815
Ni 6.7591084969345125 5.19587769503251 6.441723322573487 0.1768232490420632 -0.6972775209137798 -1.6467105850540351
Ni 7.404319791993087 7.389157559824321 7.667879508685214 1.444626504562654 -0.5754069739585123 0.10747776856870522
Ni 2.6161055343055395 1.754554845360803 12.530267406142364 -3.394006839542632 -0.5004307775619381 0.7722393191326506
Ni 6.265715466256243 1.5615326318991005 10.667373046838192 0.9788122886333206 3.6925782510294862 1.4763171507977155
Ni 8.816049570064777 0.7174021813907248 11.637993836051722 -0.4463111128993991 -0.5685315869949177 0.22381324463835645
Ni 3.559700227841022 4.648843019592248 8.014312720700271 -2.4256651114233323 1.579143022416706 -0.15837944051457886
Ni 3.8140618347042436 1.5330836190482895 7.825309198558623 -0.6682441097959072 0.6534193860782489 -2.587960342052549
Ni 1.8401351490235254 0.39311702506735885 7.269279820465628 -0.5164873168041686 0.36047226275670824 -0.48500724391801636
Ni 0.9970963792313008 4.58817542970836 3.0760231555364976 -0.4510504273565974 1.792635601855345 0.8251348815801015
Ni 5.538945358036323 1.4314453451932923 5.515184973902315 -0.4853720834566029 1.3288065346768405 -0.04046633554516257
Ni 3.9051285337609567 9.241590445462267 13.35733311424246 1.3494023565503213 -0.798116958230361 -0.7501872244286177
Ni 7.953612473700944 4.993198306004855 2.3866948966992396 -1.3949612761270427 1.7164728413498371 2.0409720284460464
Ni 5.400012658348366 5.987318222428871 8.019870961748232 2.197324668338583 -0.7074326070699106 1.5424618649455888
Ni 2.326679516063719 5.704712876011892 1.7810929504281292 0.9133633150008915 2.4362896810167136 -1.724483627469456
Ni 3.8123263422836957 4.661467327361073 3.2302431174923347 1.8306087386650083 -1.6832421043211656 0.43515792449605706
Ni 6.415061120467486 3.7806209484932545 4.219354365468233 -0.8951799592236455 1.3600318112397094 0.06321648475748468
P 5.006401111247195 3.412929820447365 7.2149010579551245 1.0708207579218332 -0.28246062196792 -1.2333759270806566
Ni 3.102239354751625 8.659052820236063 2.9114238292332537 -0.48665892058882637 -1.8920611895435353 -1.2474246918642389
P 7.6272652538026255 1.14592885019991 5.720699000550199 0.050378452452551944 -0.6245955198680211 0.3044497246445015
Ni 8.771617231856984 5.132578874704565 12.424608574846431 0.8356864318437028 0.4602166672368977 -0.12555339512349345
P 3.190264276770173 5.204275239002904 13.249885606080833 1.1783874866599189 -0.21855970954890103 1.4347053887942003
P 4.328336758055559 1.6985245658694548 11.649887557495124 3.1762151185080074 -0.24989708620960185 -1.7792836060284714
P 6.302748635165678 8.137742621158441 0.24941825264598363 -0.8103667221319913 1.6276350564798225 -0.0634720524117165
Ni 7.434336346385038 6.367717633683291 0.2820968284765497 -0.24857502496406864 -1.1287564538963528 -1.3158036946592693
