# total energy = -340892.6479673965 ev
CRYSTAL
PRIMVEC
9.04751814606453 0.00000000000000 0.00000000000000

0.00000000000000 9.04751814606453 0.00000000000000

0.00000000000000 0.00000000000000 13.24195734391796

PRIMCOORD
 96 1
Ni 6.408673583817309 1.7609184067120256 11.11283551120079 0.7783071225932854 0.8956306736078189 1.8107557084948234
Ni 4.766051473502342 0.25841158693493393 5.93549563624338 -0.48777555069177286 0.01327897649709326 -0.1646465044702132
Ni 2.9195978326688783 1.5040593738468229 5.0093392295342305 -0.9029955986133223 1.0117900291109219 0.1328563565428099
Ni 3.6502301397850974 4.14335605480042 5.14832719934315 -0.7517221730159054 0.81676234124569 -0.4684364840435287
Ni 4.8808825705479615 4.449587392785221 2.5624117786857137 0.941706642030275 0.49301725870668645 -0.20605797753746447
Ni 7.415218996472704 6.204000634135145 2.6337722665306487 -0.1997839716032946 -1.2013618360679053 -0.27882996719386816
Ni 5.191673857548757 4.673712505928469 11.529652850837753 -0.23906168615699475 -0.4208533349479268 -0.12011448349610926
Ni 5.373655632365619 7.853001244561769 12.467884979673187 0.3748012777848706 0.14515162897039519 1.1852726438155263
Ni 1.7627821953971343 6.720487240339547 0.22846611222633065 0.4027980201081127 -0.47097724818751147 1.895290238003794
Ni 2.736105122364575 1.505896019978265 0.4760387727303906 0.4502451578464826 -0.32255980398165096 -0.5758481752609889
Ni 0.40430824140380023 -0.06579264533612074 4.554954786119077 0.19343668922902812 0.5576542779607815 0.07116067930522584
Ni 8.569646089021784 2.295174338050181 1.3024408662039442 0.3146742305859871 -0.288906891813896 0.06285858719743367
Ni 6.852571953999254 0.7698831539735314 4.735244675090718 -0.30185496733413175 -0.8036967663109836 -0.17562948584427815
Ni 0.6106757911865501 7.53451051983754 2.355929325425775 0.4314174836170183 -0.3231979517862821 0.4113559369804529
Ni 7.740513454649367 3.8019932048531113 3.7618276539372326 0.09471635513797882 0.34019371501333023 -0.9370256916148377
Ni 7.6223347759848625 4.107075508066025 12.546250960619478 0.04492385709588392 -2.0363787526484085 0.1983724359677487
Ni 7.80532082528739 8.745421266566876 7.181391325145425 0.6545257317685502 -1.0520897571712333 -2.044917386247039
Ni 7.011763031254036 0.5395496340549367 0.21771494671897873 -1.3426928057406295 -0.15780634161992824 0.33493375216597154
Ni 1.8031341251815232 6.665369761360512 9.235364264788894 0.06826793113846308 -0.4660592420606038 -0.2525378662665586
Ni 9.308176879254992 4.6667640121898115 1.296869404687974 -0.45394806061936666 0.5539565173942201 0.9085098435633321
Ni 6.51406811970483 1.6766136350234748 7.06880853629519 1.3236003078855527 2.4651210034261095 -1.8948850321455752
Ni 3.4063452475725438 4.2170028504158745 0.15209601372632442 -0.13348267727289914 -0.39289027407609756 0.8787313267493189
Ni 5.9206052313018676 5.440218221474083 4.6370284398962305 -0.07144941419023824 0.39301163014531026 0.9856653069994122
Ni 5.245651349273794 2.7660524065767564 9.242912608963582 -0.7107112778211825 0.13319317105693834 -0.4865154530324266
P 0.20471094925729658 5.486776748530241 12.488609224149446 0.2549212788970706 0.9553023784368385 0.29232517346682557
P 3.884805136089997 6.137799945742236 12.683424903091678 -0.15013237001443822 0.7652690584624046 -0.2644832115538929
P 2.347468991447887 8.580439777863214 1.6080768775116578 0.5243613202356067 -0.44596607085515455 -1.6445660279072063
P 6.345024295469063 7.78060300641498 5.818860464130718 0.8825093057345124 -0.7668605713192406 0.18632681765712428
P 4.807570533094396 1.0877649807438392 12.682948098898933 0.16209005659694664 -0.443675475048765 -0.19167934021828922
P 3.875314289824566 6.112774511261603 8.454857515310243 1.360656589307902 1.4791507635917687 -1.0799941968909852
P 4.81865374250827 0.8066314573827809 3.73454938750227 0.41496705137047885 0.6571289737193521 0.7497210834254765
P 0.3306379222418347 5.596505045486535 3.3670853531973415 -0.19087715603196806 -0.5280264277920197 0.9305488256412424
Ni 1.4766363471256383 1.2646349079534853 2.5834526862880844 -0.658524311404982 -0.009308164774803323 0.6075208237739214
Ni 1.587558916443264 6.7104264004471155 4.771103607491491 1.5899899924335392 -0.9055751864150404 -0.054676822717589696
Ni 6.0232493217511704 5.610935836519293 9.292967096932001 0.1744292948885899 -0.35993747329916076 0.5553611110512305
Ni 8.62838257515637 2.3548065284557653 10.224115019260445 0.7397138357011196 0.5053115026930071 0.1628315627486615
Ni 2.4483488159088593 5.4294516751863195 7.104177093226387 -1.249662837166138 -0.721841583406389 -0.9390123830275635
Ni 0.5782223445191501 0.09560421677996868 9.037265241604787 -0.15945159053283509 -0.637915634015695 1.0908252260682183
Ni 1.7995965456869725 1.2146654666532206 11.403311501533903 -1.9930096416341547 -0.27615679123707926 0.1976404428977306
Ni 3.939949757622699 6.833635499057836 1.6524106199189412 0.5018435987490647 0.7933457620939627 -0.10074970581625228
Ni 5.5306843528449585 7.747127190226136 8.243144691958744 0.07172683622134099 0.999731298174175 0.3861084752675737
Ni 5.546200846024382 3.0042011724477624 4.4843090521873625 0.2067470331846891 -1.2301805600718103 0.7383313535312962
Ni 0.7340423166085362 7.479782084127725 7.084287934651269 0.04557357486474087 -0.8039849869753637 -0.18449927753008225
Ni 5.090015946549341 4.578595950362711 7.197162958329314 -0.17121233061318902 -0.57538254847848 -0.1547971224799592
Ni 8.048337155782612 7.324318584243161 9.396677889740404 0.40744220374834345 -1.0619522517876099 -0.5933393900672169
Ni 4.587525850519032 0.41237048459457804 10.602914688728347 -0.6613352984912159 -1.0115213488305677 -1.5206270284586842
Ni 8.268119460339198 7.018150578883582 4.840306262319929 -1.7937692012391557 0.14191640986254914 0.14446077355095766
Ni 7.11077001951201 6.035445375865376 7.063061552932177 0.4947584097675092 0.3220543251001421 -0.15529128850755836
Ni 2.5496267311569425 5.130376923851619 2.5871205500402352 -1.0648213458052886 -0.015230186686193126 0.14478807498338936
Ni 2.1327352018732926 5.462267022569275 11.438216825549189 1.143327152621676 -1.4328673071441969 -0.1678002196078465
Ni 1.2587449738078265 3.5047008145425194 3.870358964276828 -0.3768838713455122 -0.08650528008209618 -0.3869325138307659
Ni 3.7374210696801997 2.3895399496311622 2.8204705124229816 -0.6868740661922687 0.8403151888649657 -0.5746497840775135
Ni 1.2546735907578321 3.4572103931438067 8.252056497079288 -0.8318788851721544 0.26639508386462507 0.040824490215529696
Ni 3.4310630664449535 2.756217754631548 7.2267320562937405 0.48475039071220377 0.03147364512824902 0.05807684953807417
Ni 4.367101172192335 6.927268261689818 6.333905800735422 -0.7147576799764142 -1.1580803996714506 -1.257922506071769
Ni 0.8704517438191266 7.415282329097926 11.392135102685774 -1.4052436318896573 0.5917347645842583 -0.7414444452389811
P 0.040401691132777834 5.6330298752039285 8.243210738839332 0.5220496413832945 0.7355905575613655 -1.0028698438031567
P 8.568895145037008 1.683191180528688 8.028929325159183 0.28527058061288935 0.6421692670857263 -0.5021966112131093
P 1.794584220776535 3.3526482289020616 10.482161086472669 -0.01737140139891202 -0.47727490827076513 0.25159015764130865
P 3.797749918963228 6.174740961282518 4.100053729432468 0.7110208386418013 -0.29363257942433946 -0.5598841957325648
P 6.814563331348084 3.801323688529334 10.2743947904243 0.8097730544120506 0.5117544301048735 0.8999367571823405
P 6.224638022439672 7.841854702522673 10.45550528926846 0.2618617147706458 -0.28732746314191804 -0.7724159539198311
P 2.1768599466173435 8.505562519814873 5.769295446880086 0.982515705626837 0.8386529706711944 0.6728211876436284
P 6.970198734072537 3.7748868412580374 1.545335959959455 -0.27001236890223823 1.866053966846496 0.6114237583727534
Ni 5.553285052531372 3.0017583426177654 0.17592084258310278 -0.7158293157740382 -0.3615181875227193 -0.39806899006355956
Ni 1.3664556742749008 1.0655623718445364 7.01989222607719 -0.43523788580437306 1.4073316247669374 -1.0439203339865633
Ni 7.044614568708545 0.5678430319970311 9.077136748189277 -1.521191899823219 0.08157596110127885 2.492707140574494
Ni 2.6383828816468204 1.6396364294116368 9.225592040717117 0.8045519152224273 0.0994333009976739 -0.1185175713226346
Ni 6.1953240644797125 1.8631191687847741 2.331167173715709 1.5184595884937204 0.40077584747176137 0.6049929151457452
Ni 4.147228392456859 6.930724413523369 10.45116157593001 -0.17234078779067738 -0.034626588934933915 0.08233109409974852
Ni 8.136731405556935 7.145467250615852 0.2903891341613789 0.330183896185812 0.34924348392042437 0.7033988033201692
Ni 7.815815946038487 3.8422546594586113 8.16961189506869 -0.6637961013268826 -0.3603807314841665 0.1345651117038005
Ni 2.9500155878112815 8.304074296429594 12.190373177723044 0.6565859567316886 0.47672160687045634 0.9950752874594022
Ni 9.0031579086673 4.969729196216729 10.382992147644483 -0.42256491832239484 -0.9515444540563031 -0.89235380262876
Ni 8.66937687871087 2.238681636352036 5.410332460383547 0.5343112323594669 0.6924384476539236 1.6473034814430272
Ni 3.739302953401086 2.5135995149234365 11.492415981462504 0.3273749659821072 1.7078653021864845 -0.24423346016592132
Ni 1.1687945509566167 3.2380161772499965 12.697898217458514 -0.8088916802483617 0.14063034406127395 -0.508142544383899
Ni 3.1562718531239984 8.713845429134697 7.840085912775398 0.014725222025316575 -1.0269497675704957 0.2475661240835801
Ni 5.615495785535287 7.708231910821856 3.603335045063473 -0.7340280981702519 0.23193227420106508 0.2701357818539799
Ni 3.0233095302290693 8.574133657894667 3.7048346244998336 0.6018206880653506 -1.2822839656352691 -0.3862892238198121
Ni 3.4641860294361306 4.420282482343151 9.56787049947478 0.14045756592883551 -0.9116234494916493 0.06984993091360228
Ni 7.201869477135108 6.165340590195976 11.648168097167723 -0.6000340284785731 1.1353454199677802 -1.71694618144183
Ni 0.6266175177067504 9.050413094600902 0.11650307835148442 0.12272029655007252 -0.0382299900154761 0.4167963912697338
Ni 4.6555812800791605 0.3503497494663299 1.4670369306455404 -0.5511514438452573 -1.815145610032403 0.18992944740671805
Ni 5.926115169696193 5.584888032517218 0.575261091914121 -0.10813751363989119 -0.33478000019692666 -0.42078751470699793
Ni 8.055756120451491 8.869345119090818 11.306260586643504 -0.1056384013671213 -0.30306184315803936 -0.23770491501878416
Ni 0.025835187331686736 4.977763392102052 5.8110868367605955 0.15135390112636513 -1.1733242132043988 0.4573138917678059
Ni 7.653467285040487 8.696139436626167 2.4337660265755683 0.3786360781499285 0.8629930900784556 0.7468897846242686
P 8.430314313533087 1.5080312342000397 3.3861276640980598 0.07165201711934757 0.41805366071560257 -0.12280411451313045
P 1.9451258709295502 3.2089555497909257 1.6136781958366613 0.19949600804923062 0.025783022501374955 -0.03597564676366062
P 4.7951482910329695 1.1215574600587928 7.977497804968076 -1.718943671487833 -1.1363810603211462 1.3329516671934656
P 8.49857783600466 1.6056539522210167 12.390552225269802 0.9112259569429145 1.1180007580417455 -0.49225466950904895
P 6.190248406944053 7.579720966728255 1.3556058908225601 -0.511947519952286 0.27951593751729925 -0.13294583093282264
P 1.7041452319593258 3.373394187421255 5.991694293610136 0.3087534942261779 -0.43783984220359434 0.21879779370163607
P 6.874539327433446 3.7728059121435957 6.1470492232800344 0.16784264281000771 0.9138456539539488 -1.5589081834270702
P 2.385993322618723 8.569139428020007 10.071408298076621 0.7151580007386265 0.5300730259084032 0.5572989515038919
