# total energy = -340888.9734799449 ev
CRYSTAL
PRIMVEC
9.07879442781217 0.00000000000000 0.00000000000000
0.00000000000000 9.07879442781217 0.00000000000000
0.00000000000000 0.00000000000000 13.28773334370646
PRIMCOORD
 96 1
Ni 6.6215642072649 1.9127022420944775 11.600855312711213 0.8580282898740125 0.9524047451740696 -0.8310790149786783
Ni 4.678983652870453 9.234586490135746 5.880366894798889 0.4008223844389807 -0.9519897691238379 0.7553543704518539
Ni 3.061768931416237 1.827588544795112 5.067131164697571 -1.4431018403880114 -1.5948339507894018 -1.4692371040224825
Ni 3.3857820239940564 4.382878774212447 4.825679720319293 1.3986433529643203 -1.3129801091675453 -0.1698401328560107
Ni 5.184082378123808 4.652155815481692 2.719042627865249 -0.6855810584124579 -1.5917401423554263 -0.33918892789789973
Ni 7.103285036993362 6.0612664121896636 3.216813858175637 1.142365560039355 -0.7102420514942478 -1.6064962176186786
Ni 5.173714394943448 4.641724280740683 11.854624865302373 -0.22265753376735847 -1.7610038338826768 -1.548387229291088
Ni 5.857583660305795 8.348341819280048 12.169238682060028 -0.1809663246761593 -1.5439749591560055 0.17042814414899682
Ni 2.018978609090357 6.537331153020258 0.1582306757068503 -0.27367901912054804 0.0827985206544703 0.10603075170953352
Ni 2.733434332714204 1.5168758859819402 0.4200222510109414 -0.03836985802745004 0.3932188610601099 1.0717805507319413
Ni 0.6218701785508949 9.205171196349085 4.559911633077376 0.23696263753612093 -0.5276518180614203 -0.08767333224826837
Ni 8.432856316150426 2.5150166975538704 1.1340694288877518 -0.06773108479838658 0.32050934921052543 1.0473982652328349
Ni 6.991661260108487 0.5886209098981517 4.371849854801325 -1.9636070201023212 0.8730946972888318 3.3027689298715575
Ni 0.8485912790498958 7.407887667189736 2.172703479147109 -0.6250297791919622 -1.9547218017975498 1.5753406179514804
Ni 7.257206916888129 3.717639194914985 3.968966551818303 0.9669631026042184 0.15655935658670456 -0.8592094546663073
Ni 7.610281230271844 4.141591656012422 12.739681121973911 0.07738814827217641 -0.13620290441753963 -0.602419240881298
Ni 8.355486830456005 9.058966291676127 6.495110219762584 -0.9272716975518676 0.011088396603677676 0.5831151412360474
Ni 6.738825915458884 0.7497395500968344 0.3735143110476924 1.1918382128481861 -0.46188505607825614 1.124371694565096
Ni 1.8583475001498053 6.743338076265048 9.061994977480827 0.7157393271633932 -1.2567801649372097 -0.39516827147699685
Ni 0.26986080774778987 4.803826154370568 1.108970193948677 -0.13971066046048197 1.293631272327288 1.2051485568038471
Ni 6.4609875710906195 1.6156350112323399 6.752015587932112 0.4150446986859498 0.5112294108393389 1.0747887414306458
Ni 3.587730726151612 4.211516530316391 0.3170133421119194 -1.363464233960026 0.7532370669985351 0.781441554457209
Ni 5.902560007657374 5.5227123296511715 5.2344233850737005 -0.32761407857610675 0.3391408482687836 -0.9738775703358648
Ni 5.569295623607762 2.698126901375833 9.436549718364308 0.13321759653697057 0.790501093556316 0.4644409897308905
P 0.14167730991635077 5.826688523035423 12.407062240204619 0.6431403727497439 -1.0626045406596283 -0.527575199187214
P 4.166712680058005 6.2982683394429895 12.519675605676762 -1.5371070283915786 0.524840059644238 1.4847531973802108
P 2.2718502689174747 8.650574884143609 1.3573950602891567 1.7865428586940457 0.11847566234110564 -0.6892073423111356
P 6.550068701533433 7.830623569840442 5.983559195344359 -1.6073819626577417 0.5618490327684195 -0.01008000994382135
P 4.7433250686315835 1.216476737582857 12.466392161468763 -0.3559301519119806 -0.6007215414639009 1.2248848588905097
P 4.0297409092680825 5.959384181673025 8.242926121991259 -1.2322065893629037 0.9554304193742706 0.8426302101513875
P 4.710096681205911 0.8638400220881908 3.8707031287409746 1.1271950229465038 1.1691947644170573 -1.5836846190408018
P 0.19473832366207255 5.79190766177101 3.606184283605552 0.4936548922906854 -0.1424987647285804 -0.31732143840084703
Ni 1.457564122306553 1.297205377197359 2.6792983897140563 1.1687923867723162 0.8672027572844291 0.06037721553647667
Ni 1.944586967952117 6.152871447469726 4.923862342126652 -1.3039408817834124 1.41527041999804 -0.9162529778438606
Ni 5.889450228574677 5.562304951936242 9.354245000045681 -0.09166882656090665 1.4355433113144633 0.07484866967977431
Ni 8.686545067471618 2.2679373085402985 10.168690025558227 0.4500623524117152 0.20968297588456147 0.5225540918235388
Ni 2.374086572414878 5.036933278835475 7.116816980014664 -0.4979450350256069 0.600743652951088 0.4329166938703641
Ni 0.37441401957061154 0.08006951914261591 9.200174227923105 1.6046172554284108 0.33013427389479916 -0.5265974086549771
Ni 1.6873847232064076 0.8961668852320682 11.659586941425806 -1.3860837711317548 -0.3278393072130354 -1.2752268016781716
Ni 3.976493780237599 6.914500586684775 1.6031117222665006 0.7894664816442146 0.4583112226840687 -0.5039225927652806
Ni 5.500578228956147 7.754842873162276 7.915170750370582 0.12691633690929108 0.16711810593915735 0.735945626907939
Ni 5.279200906828389 2.755786324474315 5.041459057833206 -0.09913325325875184 0.3278174528361645 -0.7421993211271347
Ni 1.0185680989237775 7.637054594894332 6.929499662877658 0.21426185350449553 -0.9094680937115432 0.06400838453116074
Ni 5.234342583803731 4.443870114847876 7.423085568979512 0.5058576050044643 -1.437218385024041 -1.239279951269917
Ni 8.310519561898804 7.1481342812236415 9.36871569040573 -0.05596237429823265 -0.9887616865365488 -1.2603002622753263
Ni 4.79214174600531 0.5225581547228384 10.406234864715396 -0.5378526698538221 -0.5245577525171289 -1.2405981558607084
Ni 8.233249942942548 7.054940456927322 5.114953714086842 1.530209529940797 0.24946668354040263 -0.9715880029707397
Ni 7.288991776007604 6.0558826871231535 7.120444866248352 -0.08204158788378774 -0.15706843501263917 1.0329190977800533
Ni 2.432953475165714 5.318875238262867 2.3610703049142807 -0.5376894048030805 -0.44456970472826013 1.167706609907305
Ni 2.328992200736377 5.223130272746162 11.402390143956724 0.02226343938389069 0.14009889703783615 -0.12369808708230953
Ni 0.8636248546614179 3.635367160256121 3.6622585492055313 -0.03752422219770312 0.013288746689106146 0.378610881338948
Ni 3.611326512741591 2.5389211631527213 2.8510156144703154 0.45007546503783774 0.8378286749976861 -0.9532470385697068
Ni 0.9765514385396216 3.4420614703469914 8.291279780851678 -0.2933821539764302 -0.15943333570038992 -0.5293695720834753
Ni 3.619324930589136 2.7431032487274125 7.021052041150326 0.4770784759892429 0.8576937893527294 1.4563057406727953
Ni 3.946924146946502 6.6222632744320515 6.113300614291165 0.36398207568217955 1.4707589399836476 0.15350694291362596
Ni 0.8260667901965918 7.419771809031323 11.139571757008413 0.8993816560098188 0.0999421223132924 0.6974947791309085
P 0.1745361904108141 5.641599142038925 7.968826425148102 0.8054795692430192 -0.15617420533314394 0.5611154970365047
P 8.50029360079466 1.6456858206255027 7.816070262451547 1.0268646640558572 0.995814222507956 0.5643437741658152
P 1.6181135220976974 3.3430572176483695 10.357322860000693 1.297785146594662 -0.5219097733713206 0.2675335683444425
P 4.127746494585058 6.090363948173073 3.799254832740276 -1.1084290551929106 1.4706838637713382 0.23785532455371936
P 6.795631931885778 4.102316791530603 10.586323645768159 1.8198450723906012 -1.0747221498587685 0.27022345647177975
P 6.388684052659457 7.8161428928065755 10.037633089305961 -0.9201754528267185 0.24205676422957667 0.024911932750331288
P 2.4322362504098045 8.81872323482964 5.761188653111582 -0.15259728661516297 -0.791334902311521 -0.358564247100718
P 7.162378909603662 4.19901503045706 1.8217481563713591 -0.6781024906472257 0.14472354029404108 -1.1301193956821505
Ni 5.444589304023327 2.8538009885856694 0.4098412909947805 0.3769322080849444 0.21272973313068522 0.4680109664703359
Ni 1.5747078061736157 1.3397122924779596 7.098453302625072 -1.132963292888849 0.012336152967849724 -0.7073655012774012
Ni 7.0549132205441865 0.7731337874516083 9.096290123245986 -1.304922271860075 -0.9653075692786666 0.08762088174377813
Ni 2.829932838164333 1.6761633333544594 9.212943552216602 -0.7604204721208517 -0.099771401063383 0.664652792900223
Ni 6.187861121004847 2.063764301759986 2.5646786106842443 0.4070285132496926 0.06413436858606375 0.027717006299294203
Ni 4.052338028476416 7.039488348894946 10.49789437276173 0.3090324589191774 -0.006569939908033846 -1.3604609283573277
Ni 8.076313903314087 7.108242058724077 0.3527774368075344 -0.6473369273295948 0.9969529640980894 0.6521654590664897
Ni 7.628202770375198 3.889337354203049 8.469720760724728 -0.361907452541338 -0.14392752675530696 -1.0061839957780543
Ni 3.433345827743536 8.397730460699627 12.524871399699633 -0.5271165143832406 0.2926051666010896 0.372956511266648
Ni -0.04700091849800696 4.774946509452244 10.338520676842615 -0.15761016644872208 0.7176396295098996 0.3139219258009948
Ni 8.498141926526932 2.3463326979995007 5.484472447728512 1.327627940987707 -0.8360767253035859 0.28431901533289744
Ni 3.315085452167906 2.6054959623309872 11.687584127530531 0.7581730708475717 1.3749501231124384 -1.1211313332509272
Ni 1.0274834750035617 3.358509325680745 12.538357948749042 -0.16805424460018153 -0.3572972074628363 -0.003041100819168956
Ni 3.197197307161798 8.666744216931892 7.868822597188397 0.28390378217234974 -0.18414369396287641 -0.007395264022806618
Ni 5.552735902661198 7.781434661897191 3.5071373605733505 -0.8142084644755849 0.46922709826562414 1.7238423943410313
Ni 3.2227087193656607 8.345037138126239 3.5993679247861 -1.6655040636114542 -0.1987781560465996 0.3472578209489632
Ni 3.640260630426186 4.044666447226499 9.574303173350227 -0.4661006368215005 1.1445738805445835 -0.5227186424258611
Ni 7.140580724300646 6.229478314436346 11.369848113386075 0.44574289910075493 0.01151802794192855 0.804791284926743
Ni 0.136297216367593 0.22141726882302354 1.1443075853084979 -0.6657573388183116 0.4330349646157833 -1.8244771718459738
Ni 4.652337391369265 0.3187101687812796 1.6170903419712295 -0.8791437316963892 0.24524390370830668 -0.16645039044817142
Ni 5.95682396165826 5.5984203959743075 0.5318811686702216 -0.036332258772130976 1.2058455828708716 0.664562804289578
Ni 8.039136240333724 8.860140694784809 11.148381819073405 0.1265216725740337 0.8863783017716154 1.1797126332292456
Ni -0.08745421049016833 4.760138995820749 5.868899469619281 0.7163535637086244 -0.06542171993891958 -0.09467907414214018
Ni 7.734742422408057 8.41287388972313 2.8105550594426516 1.3514183585390853 -1.5106586043920627 -1.9108330708343995
P 8.3937539487618 1.490211466891995 3.1178867752292327 0.6660337324081498 0.29303479793934045 0.15670385258436884
P 1.8209156309268415 3.328739958913318 1.6305242340132424 0.8996876172860119 -0.7226586799910457 -0.9467470326676598
P 4.759703213690576 1.2816624812211974 8.15150629411652 0.09518892389902316 -1.6864138171809282 -0.8712913255315059
P 8.78548576860959 1.487179149569543 12.578885686855108 -0.6922821245817175 -0.7919547952837069 -1.0896101227141946
P 6.118916756493767 7.7714570668751115 1.4427684111077503 1.171732957457879 -0.4827863250072975 -1.2357824796396202
P 1.7894666871993747 3.3832399615680484 5.8257406969022965 -1.9396114285186725 -0.4325294857342744 0.5358811479497481
P 6.972922628511059 3.8163529261934914 6.103746998966566 -0.5539804286536201 0.10931996398376656 1.1795640234665234
P 2.4935453488484836 8.597200651991825 9.945163752801054 -0.5286735744577153 0.97627538114408 1.668040713990379
