# total energy = -340890.16715056426 ev
CRYSTAL
PRIMVEC
9.05225560798760 0.00000000000000 0.00000000000000
0.00000000000000 9.05225560798760 0.00000000000000
0.00000000000000 0.00000000000000 13.24889109830789
PRIMCOORD
 96 1
Ni 6.284618981480687 1.7273876249849778 11.462264780885022 2.0789755042730134 1.8780939287301657 -0.13517266338081235
Ni 4.641489751736141 0.08184959002196616 5.852366534183006 0.17150029416725301 1.578110981607766 -0.36175215791039633
Ni 2.5330202699793865 1.4985375508473158 4.925672643530299 -0.03956722076966089 0.8695450322643605 0.4033428368679892
Ni 3.4505840556214036 4.068898375227946 4.817614963059246 -1.352065505204781 0.7568196421434707 -0.5563265602882935
Ni 4.708757063192056 4.649844983666408 2.429992022726596 2.401431178576632 -0.42347431751054165 0.6790131753869532
Ni 7.505306598560296 6.124502684208151 2.401242058901541 0.06430637538755377 -0.5650785954493107 0.6173588929102658
Ni 4.738222155210491 4.749510317959182 11.42343241475885 1.5296845106752623 -0.5171943701735221 -0.3006462917380112
Ni 5.555577471222988 7.726407941893724 12.331762899676196 1.433883150003221 1.1120525108781105 1.0986056413445855
Ni 1.8590255261008308 6.856486177539889 0.48660218999466776 -0.1637396763852277 -1.3913887282844357 0.21732223759737412
Ni 2.655678333527716 1.4567523389403718 0.44041667663452516 1.5356988351901424 0.6910359108794422 0.4041213669052266
Ni 0.26665410402626233 0.178960377780916 4.632050964809069 -0.7693630260261202 0.6964912775670586 0.2574895538448791
Ni 8.359920998673525 2.555650909010444 1.191180884685355 0.6549479069076333 0.27197951993093805 0.878693788643164
Ni 6.941921366009935 0.7189337616408676 5.0542137680011425 -0.8585836481568504 0.5637125683397194 -1.2580672591797495
Ni 0.7859992077966249 7.469749338514699 2.7651626494832864 0.030658348315805262 -0.5262361686608162 -0.2599614124241394
Ni 7.760960401566342 3.8329513326901448 3.711875603422867 0.02661734547721222 0.3034246258140968 -0.4860991914306145
Ni 7.6451730000278415 3.7215633273792816 12.453202529619093 0.6170092228803309 0.4475269875843712 -0.49573542896879785
Ni 7.995422874183706 8.655287047051269 6.87454452226111 -0.32266727609379264 1.587362582113021 0.6943809160922751
Ni 7.086395365584203 0.6758097211288464 0.5653079316424395 -1.4426814650211413 -0.8226103153860349 0.10210210607908866
Ni 1.947375540878078 6.085270208383911 9.318011732692359 0.7101430640225382 1.3394457595582416 0.03950834250726744
Ni 0.3243106356984672 4.807100768165418 1.3629664446678649 0.06785526908107668 0.2335674958116429 -0.29522229250896254
Ni 6.475485791068623 2.1934067961681185 7.010081229869234 0.3059512488906924 -0.32485091400867283 0.13662867910104856
Ni 3.3155696631621168 4.2891578587894195 0.49575764132107225 -0.49583955864682994 -0.25843674824949686 -0.3160225170837654
Ni 6.173430125793298 5.511483934134876 4.547748213516135 -0.39397347983794734 0.620584598936415 0.09410777501970244
Ni 5.282724382553339 2.5050669046482246 9.252826440027302 -0.593373585739262 -0.14157213914925296 0.10585797357709512
P 0.3498696794201431 5.78469006077341 12.5255943229772 -1.0027258620261248 -1.0127307957576366 -0.42418728441716624
P 3.9212922952117797 6.3655370944001355 12.584511833856215 -0.578197649329772 -0.9720577435183064 0.708446907267038
P 2.461253987484098 8.531234936138627 1.7015687815272253 0.13573804896597913 0.28667080339452566 -0.5531314503897635
P 6.427382104744208 7.671985781151838 5.730609170068113 -0.17394284217047462 0.38168926315395557 -0.055936663266619786
P 4.842549401143665 1.1611961931947659 12.897742508685077 -0.8295353246406423 -0.009410494680622503 1.3576733383098618
P 4.105686742036833 6.174860382180061 8.07533166060237 -0.9704824286113868 -1.1747540036723898 0.577285679038464
P 4.476611968011472 1.2695879018979168 3.9844851864165425 0.9882757480390657 -0.3461360486396942 -0.4000937338030722
P 0.3892388443041313 5.413900618632959 3.6174904498288174 0.05400576479249409 0.19737844748559558 -0.5063080622783216
Ni 0.9897917331735391 0.9778699125319782 2.4827232221200815 0.5032942151526623 0.7296484810453177 -0.07236704090850117
Ni 1.8701960095265606 6.514301863134691 4.899731594621779 0.5755743527743119 -0.09293098110278189 -0.6777458786387554
Ni 5.956999746355879 5.612679099626152 9.220698174407692 -0.4796076701689998 -0.19117257578519978 -1.1058052444168183
Ni 8.51652502076844 2.3908545955862857 10.160031729572024 0.2115583385304034 -0.2446975442865334 1.0547783597469897
Ni 2.4072029692223214 5.285087021268181 6.912833753050537 0.8268351521006599 -0.3700241681112015 0.8158614266979755
Ni 0.6470244535069031 0.33370325612191715 9.115409578928478 -0.4877166724293793 -1.3554231088231044 0.8628203119460172
Ni 1.7018602641579454 0.9367907765628033 11.345846437130335 -0.36536687184484823 1.0674883511144906 -0.5169951096785226
Ni 4.096489650334611 6.807169488963409 1.5176070325204458 0.7451368064889038 1.5309469223274537 0.40466978320952884
Ni 5.573156951622313 7.821320841989977 7.887634950929903 0.6339293956744373 -0.846830107165348 0.3632184580432777
Ni 5.459623561731306 3.102298520933435 4.801305514122344 1.176946126227702 -1.0767070414992812 0.016756136412416304
Ni 0.7323808873531218 7.314077698747863 7.04874160313877 0.6358376684407437 -1.2695387501544588 0.8114697253881832
Ni 4.9933599796466295 4.715727300013621 6.565262441330388 0.3689129373248937 -0.07294990999516468 1.3953384569608034
Ni 8.204131679583728 7.455519192691971 8.977726581514649 -0.47113408548034985 -1.1033148738947964 1.0594258858213303
Ni 4.799252462549447 0.22232430306666642 10.95248700607143 -1.937953324089959 0.4201200563263281 -3.0667082353244153
Ni 8.335380333708247 6.901475887933629 4.845318486135506 -0.2593343203631018 0.9325997946330002 -0.4925670585431452
Ni 7.256831234254902 6.117867380844245 6.957946574120608 0.4177173604221064 -0.544966398080468 1.0411288872843552
Ni 2.504071156530858 5.301254349791969 2.5327242612208605 -1.8260661135996485 0.1156865296317427 1.234820372836667
Ni 2.4535776747247637 5.069552815136393 11.64083319599792 -1.7289702024858997 0.4773834088241714 -0.7967591586508859
Ni 1.1494373131542286 3.2047519499548365 3.7872084746294497 -0.425156590308971 0.7146162693025434 -0.15134335960340384
Ni 3.525192746378993 2.615151385150899 2.5017745992819864 0.4027491691480483 -0.2153067498292421 0.9788691100131852
Ni 1.4521266363224237 3.448348148485135 8.319098041538181 -1.144570281000158 1.0616720015430297 -0.34752290168489186
Ni 4.052912091816408 2.4916967231086757 7.135494800025985 -1.2916720917183884 0.8508266299192507 -1.1701872102373136
Ni 4.0754069470132785 6.9258807690647215 5.977780104339757 0.12423313365017313 -0.662537032108801 -0.35800580349408667
Ni 1.1577201270395956 7.6215828219018675 11.545017786017107 -1.0606494738157863 -0.886743141310202 -0.8479804187197073
P 0.18875310790243502 5.474297268079043 8.348245399384622 -0.37411685012333634 0.9346142539598677 -0.7777011135781703
P 8.309481830401104 1.641309726366449 8.158388821523033 -0.1853192023282163 0.6690691768003638 -1.931010317113223
P 1.8123249393963412 3.086620014212718 10.341196331594565 0.64955476091652 -0.473015875884095 1.540234775387283
P 4.069522980865203 6.210580582826681 3.9140007033159727 -0.9703487312469997 -0.8906959553103628 -0.7251932734874413
P 6.564496620505577 3.778556328715096 10.368277059484688 0.8062118194233534 0.7499578820266309 1.092922732027195
P 6.268071458221178 7.487021042223201 10.273415757245427 1.1588990389180043 1.5529041433248352 -0.6082265915916945
P 1.8165523427673427 8.620073772718944 5.767546899094604 1.8125372258752783 -0.3863046504387798 1.5409361723296817
P 6.783570258581823 4.227855983782092 1.502159358317846 0.6067970582340195 -0.138682990526916 0.4216364929708544
Ni 5.480181234227119 3.329356248459837 0.047976049520279854 -0.8771392996718506 -1.047538390355125 0.4500618381910829
Ni 1.1959749592576943 1.4478630239289727 7.151406854941502 0.6355031679194604 -1.3467322659173258 -1.3158885410635919
Ni 6.83145669077154 0.5340667870728457 9.215477738596006 -0.7167436000581914 -0.7991392288472882 0.3340600913117666
Ni 2.892919848618094 1.3442146971667308 8.997811726267493 0.20810714675700934 1.0931430755681173 1.5582867477929874
Ni 6.0497582096163764 2.302260169907503 2.550477544927944 0.6130476671294216 -0.07173712063398613 -0.3617182193486674
Ni 4.114295437124247 6.984503176410772 10.33897128716503 -0.6529511881925787 -0.2645256347560541 -0.6036801098715926
Ni 8.254941990336256 7.461004859593099 0.3397718882844854 -0.11550269575571076 -0.963435291956618 -0.032902407154975596
Ni 7.691402869440484 3.9493633398659025 8.400168232351918 -0.01842992457041342 -0.3024170104851889 -0.5296490509971072
Ni 3.203665679281346 8.418480040230289 12.566533148984384 0.384419517600925 0.6366426808405422 0.2283345295474777
Ni 0.18937409263744726 4.732845115376713 10.501892878451857 -0.036934154022188005 0.045892134546424185 0.09119420091733327
Ni 8.638151127176954 2.507420491107455 5.690040581315478 -0.3818831243323165 0.11219805686251 -0.16003677361234375
Ni 3.5766095582575543 2.6072397137456416 11.574482878035544 0.38497744698692404 -0.18804637145139227 -0.17381814366715226
Ni 1.132382863580424 3.171919418848579 12.628472302786825 -0.33992889138771776 0.14115587754744077 -0.046170585018791455
Ni 3.028359697091165 8.432818813120367 7.717730449663655 -0.6233176815968621 -1.1164588674759224 -0.11653679344717995
Ni 5.6127153086486015 7.811408622094374 3.7338291337341145 -0.8985218791126849 0.45654050393689116 -0.4876310546941086
Ni 2.866550628019106 8.436312983786761 3.8798049025144845 1.7163715398852828 -0.17037543653419046 -0.808142460787163
Ni 3.5675210936226818 4.2287250003208845 9.317137284800198 0.5225800599654677 0.13059404287119444 -0.21286008806096243
Ni 7.0545314258284755 5.798721056972666 11.379910074999882 1.3738178092802082 0.5354895689382841 -0.34969496963554614
Ni 0.7830536038203424 0.19213231492255248 0.23153497315230664 -1.4780351619300869 -0.5366357667275855 -0.49913057069327593
Ni 4.594182663905619 0.3555264339523462 1.852592088037082 -0.01658001584586822 -0.5371330180789782 -0.29598462459628383
Ni 6.014454412727927 5.8567641199595215 0.17233503189818372 0.19106458945242577 -1.460788459034497 2.350216089155398
Ni 7.945861774705691 8.778814127138393 11.514373185092373 0.007962449380186287 -0.4923847673290101 -0.7841234721647463
Ni 0.33026068331251274 5.011953312674546 5.880917348384588 -1.3605663435869406 -1.5045128965056411 0.2985256458505826
Ni 7.778992494746288 8.688535981915699 2.9321124945176402 -0.4482340409537248 -0.05839129545469944 -0.8409911318860678
P 8.141888369992708 1.7152938114867806 3.302538035982473 -0.32754517301138425 0.09349636668794865 1.084466630840042
P 1.6760794401737649 3.024675429056909 1.6680356058365662 -0.6732580180707307 0.7193926076452642 -1.5873330144266662
P 4.790806708063056 0.7008229138370932 7.997733009815997 0.4072910228824599 1.6541590709122804 0.5810700857815606
P 8.42412864773244 1.6397617906567246 12.314724744162493 0.7938209019581683 -5.6564269548289683e-05 0.5874569631445108
P 6.366695783118526 7.775471167313055 1.5679927924847525 -0.7532933741577672 -0.03315566081636225 -1.2581500487015427
P 1.7601477380463362 3.268814762923953 6.04022256355425 0.5916463186355101 0.13408097297853036 0.09264970241693722
P 7.136083196640794 4.174900288449418 6.073755739244909 -0.33120976634716504 -1.0625613461265184 -0.6413660544581405
P 2.4006310316477024 8.388480865130719 9.940775235932406 0.7507788352660296 -0.11201242321426515 0.49344149072829857
