# total energy = -381164.3802868613 ev
CRYSTAL
PRIMVEC
9.31035448484908 0.00000000000000 0.00000000000000

0.00000000000000 9.31035448484908 0.00000000000000

0.00000000000000 0.00000000000000 13.62664489363521

PRIMCOORD
 96 1
Ni 4.341408940451237 9.116056601607468 10.62147945769757 0.675189687875805 -0.2784324746451334 0.7687999544337986
Ni 3.3217482383067356 7.703201012977821 8.506909907179397 0.09529022536357783 -1.2575011022636344 -0.04896383149321244
Ni 0.6758423491170504 3.2889478598002198 2.8291774221976915 -1.9008952428953971 0.6325677394402203 0.7767914572797073
Ni 5.821680805199443 3.3977300404616244 7.739321463858853 -0.6646983014261779 1.1106782562384032 1.2152851310172168
Ni 8.174351496747965 7.36289824976702 9.218071085664732 1.1711032942936799 0.2968122627039017 -1.4361457207851525
Ni 0.37085841527453434 3.9716761470221296 8.758879752105095 -1.2024761521780063 -0.5821430071307652 0.43865308213350906
Ni 1.8862777988702972 2.34626516773005 8.348813572434693 0.5870944375987697 1.1946327448741878 0.8955455700931804
Ni 1.6044813026293925 8.563878103604507 0.3651381335389672 -0.8018633126466705 -1.8940738490981894 0.0367534054699496
Ni 2.037626919790512 1.3369017175379199 0.325612886058493 0.6323574232016271 1.1429438011403283 -0.6323707929380656
Ni 9.294657129819358 5.664559264559092 7.196148871654745 -0.867220755006558 0.3002166603997604 0.15970612974580237
Ni 8.92391881811642 0.2240089886297094 4.726756129223313 -0.5348725041795755 0.2320217485910778 0.02579819201002654
Ni 1.6803234494684718 0.6561732944384058 10.489055494140452 2.8793480913067704 0.09773997245565103 -1.6031159882925359
Ni 8.81841388219935 0.6118690420509222 12.636287629920208 0.10390393517451782 -0.45876476528171956 0.7736588251879966
Ni 3.3038630475287007 6.604914368032433 1.1319324036302725 -1.3109227124178844 -0.4886127018810876 -0.5488819310847902
Ni 1.4672932307322857 4.754062467605873 5.44930852630153 0.1756953060852071 0.028428687654338137 0.9191079307941525
Ni 4.576784009716983 8.02470617068063 -0.11614108476913937 -0.9667489297108834 1.0511898710647833 2.0166406507895336
Ni 7.048310685373988 1.002976547082431 6.385459073733559 1.386056003217613 0.09628421384573095 -0.35794178302537066
Ni 3.1563497926160604 3.360265174407063 13.001167866642644 1.3995699785436477 0.2022090361050195 -0.4862472869727045
Ni 0.9840765276761787 1.1826291453400877 2.751737618545749 1.4191242465264915 -3.1208335564139094 -0.30703419754222605
Ni 3.333823767947085 0.6321069593826318 8.714075533687012 1.1873907185997936 0.47400266527739654 -1.0154240263190835
Ni 6.746580720389838 1.4653659873741114 0.46477475308571076 0.6103536652370263 -0.986974512729139 0.14325364061673393
Ni 1.3516586292418165 5.376524830878685 3.107284224994903 -0.8422962238507365 2.87583287906466 -1.2074661491934302
Ni 0.806900483685548 2.9801606461904853 12.619117474359118 1.1196676042212073 0.024870537989434588 0.7079486274743807
Ni 0.7486288376462124 8.241125358413798 11.34219212874885 -1.6138937956343302 -2.0492964891513417 0.2934721425870752
P 3.915097123410408 4.084489711133242 8.97896442636055 2.7915289775092567 -1.2832787254483706 2.132941159856191
Ni 5.63913268672733 8.570823627977445 7.423768415715855 -1.6513879359250463 -0.7854270214675183 -1.0308442175288957
P 1.1928891558749102 7.8193569943139805 9.194687199585548 0.22509931043963172 -1.2129109743580853 1.1074749188097572
Ni -0.02699816565234002 2.098628361736209 0.9290988850190756 -1.4747495492002796 -0.057977347845732406 0.812361383964517
P 7.337080637050992 -0.09484458014359189 8.379009844819077 0.4354805979427984 1.2690299288388402 1.8529583100048026
P 3.185705339999269 1.1688684415556339 11.916105649069001 -0.619154808468424 -1.52156573822287 3.273450640523414
P 2.7479790284795893 4.0290744818199355 3.834878178973851 1.734907393905941 -1.3786311715084516 1.0204572178676166
Ni 8.111078328331764 8.109262809226237 6.752588692075974 0.763808157646162 -0.7251079128624867 -0.539158018928807
Ni 5.578066072300922 2.8920567626233105 3.2333715613560123 -0.1086375932047613 -0.16693555761470605 -0.7107796691652727
Ni 4.583403671686364 5.647214074335521 6.905561538801336 0.9225843193785274 2.2550467056404 0.04959349465741136
Ni 3.9108795328729538 2.4884249688699835 10.646293414210646 0.14889875471765324 2.360689734993212 -2.1152365434875766
Ni 8.54503394632458 4.295760272890225 11.31769193117863 -0.6407996404317092 -0.5172337080518898 -0.09916590626890019
Ni 5.466192853982928 3.369612770211929 0.5087941086289426 0.13770211467088542 0.5115487418519706 0.6800768407647771
Ni 7.899398110981739 4.813164597256558 0.09853613565816283 1.1843097656816246 -0.6770005158322986 -0.5591776565838433
Ni 3.85288533539436 4.411739357493025 2.066262776779581 0.6102919587611554 1.0142621448004985 -0.03373750146176125
Ni 8.802716624702335 8.93876883336419 2.332173015329408 -0.356014998316303 -1.5208370875869615 -0.7824741094867814
Ni 8.495838033742 4.968442687728221 4.722136331376327 -0.006068831901899226 -2.276980272488698 -0.045235989019664025
Ni 6.29635991328238 3.150018751632685 5.557068430051207 1.335665723690519 -0.2556501866432952 -1.1680174562795045
Ni 7.83077148879283 6.084884523728876 2.2141801010726314 1.8243447600331677 2.5032584337277792 0.7465660827362627
Ni 7.823946999026927 6.473619750462497 11.1739577491118 -0.7765189203446111 0.02791960922840353 1.7329453850835637
Ni 9.178938735139402 2.2638499106935255 6.685545761168346 0.48535408573447386 1.256128904506456 -1.6008899271754946
Ni 1.1699391323101753 9.155625607753562 7.60483991198214 0.46633126477506787 -0.9702183763167225 -1.2872515940531897
Ni 4.094814894148776 8.59069192423998 5.418253839242637 0.4319671854729012 -0.393183122726168 0.8689071415700456
Ni 4.8994902031357555 1.3891514263595395 6.720251969217945 -1.5676440206381712 0.25584481915260454 1.5118024881885188
Ni 1.5132025882161428 2.3466375819055423 4.6213405727083625 0.7701168734730091 -0.9114131332530562 2.745143705376498
Ni 7.796164901535175 3.8744201850922226 2.368556018204163 0.023049168509979658 -1.4836995593047155 0.618998742506534
Ni 6.529034979775803 8.619051263703746 12.853141611203265 1.2654069873742724 0.991583215145744 0.2848874862418577
Ni 6.910675716466288 8.081424849608162 1.3612706391112817 -1.1329725488602294 0.9099375771487943 0.8888136506859854
Ni 5.421819704972979 7.0197465181137 11.673074675390566 0.08443271382378362 -0.8817060931069268 -1.424819497139056
Ni 1.7622545680768558 6.88728810624535 6.7688855363955325 1.0109055696234395 0.44542253964685874 -0.5292279042992886
Ni 9.130915927209625 1.2162302143239123 8.59109506258495 -2.490165347989247 -0.2131763337498006 2.1535601216581233
Ni 5.754879012470448 7.154895622399985 9.220264605158384 -0.7643182645133612 0.36022620818417317 1.1189350969305567
P 8.270387802253135 2.400060395379964 4.6453370801062315 -0.1912365962539158 0.157975777318257 -0.33928637270771245
Ni 7.918605372082773 7.078606578550315 4.518949950333851 -0.9371377917126699 1.181702667076081 -0.5903720799087768
P 0.5334898236412994 6.204299129100596 1.0634491608989283 0.38305271916038547 0.04723193640377026 -0.3333052154236131
Ni 1.6268727049308884 4.0576107180170595 1.0042697553068292 0.05161515307313047 1.2786695088111333 -0.9146892329011667
P 5.496144264046926 0.32384019458314794 2.504850296080087 -0.15310765059267825 0.19095377490617435 -0.9421645555033
P 2.276539923723438 1.3809955559162501 6.570304987668461 1.3767023299168548 -0.17313705843972763 -1.844628192872552
P 5.831801160418455 7.063905528972742 5.499918681715544 -1.1313239575132128 -2.339148004266694 1.580816296354071
Ni 5.9859061462373155 1.8829819334171873 11.67404202121141 0.7671814449937692 -0.4967638702333122 1.052361522775381
Ni 3.3346430791331687 6.173230476510121 4.584534879744424 0.2818661829170307 0.18768153191280582 -0.007305789632793869
Ni 7.658045794199336 1.60865234139491 2.6502184453418898 -0.6289352848939557 -1.1669195952296356 1.610112988435659
Ni 1.6119947586199568 3.9663413139581976 10.856865699388578 2.246106722838293 -3.034708028268735 -2.4467520140006185
Ni 0.7195395663984812 5.782679730670974 10.193152879967323 -0.7093344520783139 3.185178498348882 -1.6218963542238325
Ni 6.841713921519437 5.919392974494327 7.424626830390366 0.241621476464371 0.7695813126845132 -0.5104040867245662
Ni 3.994588929169315 3.808670462408995 5.828578846765005 -0.8900066425528221 -0.019905223564359267 -0.7752467385004068
Ni 5.531570162490664 4.1974708616233265 11.99095717420127 -0.1624456401641525 1.2629176452935154 -0.7491942643877291
Ni 9.327950957108401 1.8495298301035594 10.770036403337027 -1.6086754846581843 1.7972209072331824 0.16667819018826133
Ni 2.670870673443835 4.847212563250975 7.721810549327189 -3.5601132163878235 0.634178792681082 -1.0371444487153108
Ni 7.475665262106196 2.776571126803038 9.777117832099215 0.5562162599626742 0.7208470807036037 -0.5728685238073746
Ni 6.193890152895576 8.73396896790639 4.475480836734909 1.3940094537367347 3.1265308639090024 -1.5888386524379152
Ni 3.7677142134591897 5.856212909621998 10.426304636605376 -0.3028163028061366 -0.5927485505607533 -1.1576754509235483
Ni 1.5469526228701647 7.7807376443153915 2.675537023062758 -0.00472105962475316 -0.19409026365262702 0.6306412118414688
Ni 7.290649899721445 9.100601413324522 10.9214013518597 0.5142175469333854 0.13516597851259302 -2.648899086519451
Ni 6.3093292369439125 4.969857861595093 9.714475905710472 -0.20828301021324128 -0.29975411894104503 0.24598540986002157
Ni 4.3810151880148815 1.134550475283986 0.4136972178814544 0.2526340255247907 -0.1575335475745158 0.0017180111323712348
Ni 6.002329611376542 6.08455866132532 0.2296529254593006 -1.0316461446049008 1.0260789349297683 -1.3728323054384872
Ni 1.8835871064523626 8.687072712857479 5.295668127166596 -1.1629341282193262 1.1196254381293622 -0.9957178061394076
Ni 5.6345054405968344 1.702370368657637 9.318866844332696 -0.7448388156325109 -2.2289127275575096 -1.0547953290278544
Ni 5.895605019034734 5.159947367120932 4.2624822732036405 0.08060305566504829 0.6856196249598773 -0.1517629636393257
Ni 4.02184033646099 1.788863560915806 4.760318094718712 -0.6071600980003931 -0.4983335287132773 -1.3797148914909336
Ni 8.74989898426309 7.57202743001492 13.21050094365163 -0.213179161963278 -1.032003013723687 1.130512260245195
Ni 3.094361453105308 2.1734836110102327 2.326014215902198 0.5796084136343695 0.730185070275078 0.2777840424278571
Ni 2.8448346451708417 7.645718884990529 12.156097723075417 0.23167027878893004 0.30137391393265517 -0.9370110363268185
P 6.074186926537849 5.019323774454905 1.9418783042359118 -2.288851827115303 -1.3053521603086424 1.7855673821546538
Ni 1.6729030970217806 5.581064006413637 12.270902771989975 -0.8004792878149504 1.0345046970996183 2.7099417035540685
P 8.093546931020446 2.6856368955021193 12.879973121512071 -2.569440685981807 0.6379495725774239 -1.0641770273530704
Ni 4.934217825000445 7.123156624293623 2.875508538735294 0.4774579708158486 0.2142315144871923 -0.14613533303990317
P 7.893746725868637 4.0605527900034515 7.437027291398834 -0.1258830105487703 -1.1685378475593489 0.36094585995901707
P 0.6748284515242717 6.885602932101246 4.710349422721985 1.2348250008223574 -0.2577044980691626 0.45467182615926854
P 3.784174920015965 5.5801795227468425 12.598664487841061 1.022314839901646 -0.04775541300740807 0.864687447061743
Ni 3.288473031726467 0.06611841271696595 3.3054290491366474 0.5408366921828105 -0.9838609068008216 -0.891288337478723
