# total energy = -340860.7211756109 ev
CRYSTAL
PRIMVEC
9.40990493811964 0.00000000000000 0.00000000000000
0.00000000000000 9.40990493811964 0.00000000000000
0.00000000000000 0.00000000000000 13.77234704470036
PRIMCOORD
 96 1
Ni 8.418533681902588 2.198793632769625 7.3175785852843385 1.5941479804659706 -1.6657004958929766 0.4030978107367187
Ni 9.216898234109452 3.5584025463477995 5.2171024607454815 0.49612469398741654 -0.8221135782552743 0.4211788366081456
Ni 5.185873809714649 3.502818238745688 0.0317781894706434 0.31541316563454064 -2.5835372732841893 -2.285402692224438
Ni 8.09911446376247 7.8658617437961365 8.985492678453644 -2.586342346833152 -2.3946745765790887 0.7801876274454498
Ni 5.62006563659405 0.7269546667267711 6.679492000396928 -1.555167228327399 -0.1506936418345469 -0.6208046853670212
Ni 1.4902748515099364 5.930470165944119 4.2835439244212905 1.2255021807595345 0.22306376806684164 0.4430900348589401
Ni 4.888304390499891 5.862182486873774 12.166449828765877 4.146156329903944 0.5597967782250811 -0.7817631994626859
Ni 0.012916035316515686 7.33024055317149 2.1296872919824392 1.8807084835348773 -1.002546141915151 -1.2044990961453061
Ni 7.449181749733313 6.35344538631231 0.31490152284982204 0.504319313983067 0.12367648981575476 -1.2286114158124777
Ni 5.717476970993417 5.077104720232202 1.3070574182902934 -0.013868273341659987 2.564614211127441 2.3997743596994994
Ni 0.5436271376210702 4.302321389432296 7.62368278814479 -0.3225685457323993 0.07194383732815351 0.02314352799599885
Ni 4.135088561481607 1.2238804468687017 4.6929688818900335 -4.111979169801602 1.529574210349643 1.0787554393878778
Ni 6.205794570232281 3.9567708656867846 10.728933490449231 -0.6277842020086478 0.14134948161548558 0.26340077712299154
Ni 2.8529419841452777 5.279389443530424 8.642643738373712 0.046035859213140067 0.0657518495848287 0.8813888189768241
Ni 9.050587576828306 5.0743852577475215 3.4872410823541973 -1.72582754309186 -0.38078114951738934 -2.128188218552238
Ni 2.7260964675587767 2.9394942884155033 13.630822035356848 -1.833670408309468 1.100276087068473 0.6013668883573836
Ni 1.3156458383932979 6.916891665404781 12.03933142494043 -0.7506811333459007 -0.01621466208664949 0.8640217884532861
Ni 1.3946419891161226 7.862455358261692 5.701559176048481 2.4752820031195113 -0.38465991574650527 2.920771905669196
Ni 6.9070394950883065 0.3550319438132087 10.012895254270827 0.5869275730036021 -2.082097594841762 -0.09890185397423612
Ni 6.096423246843194 0.8798232750135667 4.2101513720016746 0.9983639855130031 0.3068909870961424 -2.0974787052835233
Ni 7.3725474851131 4.070931830614636 6.634717791419043 -1.0200173021167207 0.10137294122254799 -0.5766117928998907
Ni 0.6634556882047112 5.623970747082433 9.942078192792586 -0.4301787261139107 0.09969863884391861 -0.0030752964912140585
Ni 0.7852057413467323 1.0095792751520118 5.6942316831875095 0.24787157113914085 0.33690681673194234 0.05246927354330964
Ni 4.531697228624622 8.128783893569388 5.356520551123617 -0.4895241579517634 2.6846790723325378 0.19151633227786372
P 5.801977916019142 7.859547697681186 11.09547092485074 -0.5506989296888709 0.730933004184696 -0.5075617321797646
P 2.7173452561028832 7.706636744822829 3.981434226144739 1.2476254950211352 0.9158480290959581 -1.0354873727278617
P 6.299648960620543 2.345221161226787 7.776858159327781 0.008347600633746914 2.2388456704005057 0.5783544866226104
P 1.349116869735893 7.859001923203291 10.087665416751888 -0.6560043731966058 -0.7917923015639138 -1.4101724366498423
P 7.585728878159628 6.3364228685448785 2.3624949234521457 -0.7521759727238724 -0.848811399261435 1.4254437609866162
P 8.90822512724098 8.443065303693464 6.697643706739314 2.381380944793976 0.20480405052570533 -0.9491355875044944
P 7.950861413775799 1.7187379299375078 11.215414276272835 -0.8111547652509256 0.8459577318627237 1.4682752543298456
P 9.31953206566798 8.359618268004363 13.184364397582009 -1.2190908779165521 -0.0032671007870459863 0.7716371667722774
Ni 4.192611309470722 6.027429824913503 4.516007153375636 -0.8719448999551048 -0.3005560460170501 -0.9250644054879037
Ni 5.188235695817261 7.55188145062538 0.7536806783149744 1.1290058509029974 0.32361524182935875 -0.009253143167151806
Ni 2.0355506044504397 3.1602977043429696 9.82743732272038 -0.3324726922199887 0.3207034674992025 0.3605745926625274
Ni 8.550827533363242 4.07235272623812 11.30095407478752 1.4950188409722769 -0.2383150377989573 -0.07513791878541899
Ni 0.7674219622816857 0.2095792814924236 1.660696696194392 -0.6964617098807038 0.6959767998244852 0.1084704714992777
Ni 3.1674962815083014 7.793141999569097 13.680388708844934 -1.351665441552885 0.29432574883662216 1.0275406070769593
Ni 1.423897383112223 3.9862332775882936 1.8290775325296185 1.6762872702698872 1.985486336673916 3.3746374338770844
Ni 8.821503444684511 6.051876757561257 5.573916640526159 0.4014695311046763 0.3567611324537082 0.8438643396688048
Ni 4.213538937726536 8.817306627147598 12.1462599370457 1.1141137642825136 1.490162284210924 -1.477943373547229
Ni 0.5406366698784003 2.3983212539639993 12.27862530378277 0.09048766176861191 -0.04201413964825667 0.09468473056909499
Ni 2.996725329356089 1.8471078511001968 2.2416284603700265 0.030656291433276237 0.614369985485271 -0.20121196229907282
Ni 6.819094524908972 8.861956625382238 12.988149062874164 0.03330555613066522 0.723614873256728 0.25577539936724986
Ni 2.2817607633143715 3.225066079021374 6.261817379397666 -0.41093659005484706 0.16238084836448807 -0.06590688710545424
Ni 6.413574677928611 5.24101585179157 3.903840151235815 0.7458626289113348 -0.9857208428276959 0.9596213175271668
Ni 7.8448494263972 3.717260559034247 1.5520612273599828 -0.42186737803473795 2.0023633149349127 -1.2917751929551557
Ni 2.2566080878072707 0.3686142003889472 10.080972151473848 1.086442009398858 0.7605215164750903 0.013281804710570675
Ni 7.2986420928823605 6.214668110450461 7.352628598650912 -0.04509766366958685 -1.5833187510609505 1.4770627707144885
Ni 3.126553785761427 5.4100647913669775 13.135045204589934 -2.0189862682035744 -1.7123246235094187 0.9432109944899434
Ni 7.814097857539286 0.6476705729173332 5.513497523842285 1.6660005436318985 0.2697043507435161 1.5866254468366803
Ni 7.432883794634811 8.543309019435007 1.7141750671042144 -0.43288944017685443 -0.562637847218302 -0.43667256136837057
Ni 2.9431923809984775 1.0677230768573525 6.809750489451227 0.5426385212782397 -0.8443975864644554 0.47186479299878736
Ni 5.658269850046661 1.7573091296769787 11.845512792982927 0.3082626706326885 -0.5002423157002159 2.2670938666129214
Ni 0.6216154875407484 4.766060317356328 13.557332560917883 -1.384516683754951 0.5978768729262541 -0.31650511314713875
Ni 3.8801554208761546 1.0562806326311518 0.1583141201895113 1.9167838891011957 -1.909154654690712 1.157353548807755
P 0.4311345488127137 2.7140047399019775 0.7133441804366587 -2.006424115267848 -3.0876853517967144 -1.176566117180464
P 3.1378644913205496 1.4002502923717275 11.959079992918447 -0.03933813547799032 0.6066268512047424 -1.3420032358727725
P 1.4131606817453686 4.535395321207596 11.649435783875514 1.3242659664940097 -0.6895063616087932 -1.2847087730266777
P 1.8024860825799305 6.432902622369907 0.5795635640189817 -2.860276162276984 0.45403059303084387 1.8712334541649063
P 4.666061259139359 5.306612298091607 9.900113781385379 -1.3208039760873382 -2.125292899282314 0.7254015328435056
P 8.067450134139802 0.42104524889549955 3.442067893413162 1.4884959522520946 -1.22789664913364 -0.493726111848253
P 1.2205117009534219 2.1881228007363096 8.007435643361955 0.36266849907707865 -0.46810146930161317 -0.9207673207744465
P 2.0152063902916844 2.149175204805187 4.069576804324691 -0.7383354672963542 0.17013915215366826 1.6351876720161
Ni 5.486623776748859 6.940952791956093 9.048872151184856 1.0691325715861328 1.9965698481815874 -0.7866349257326904
Ni 9.393173980564566 8.189054333757559 4.22200973401965 -2.4186418860279635 1.2464800685627824 -1.8999704170882825
Ni 5.362676510838074 1.8051961351598202 9.693418635711483 -2.1836785383100588 1.40736067823266 -2.302731670421189
Ni 3.7849177744835747 2.894392614750881 8.226498226903033 0.4014710737665731 -0.11694508462919215 -0.23570228276645855
Ni 5.056854605121361 3.200797934564654 5.811779272849743 0.05253509378423856 -0.22708471630077665 0.003831200820632112
Ni 0.10946071748460492 1.7586076965381758 9.878174588364502 -0.1837927383813609 0.7355710171773397 0.04475133607376164
Ni 5.720808077289532 7.2933819561040325 3.053645843438563 -0.578343687989333 0.5412508969020937 0.03615151021989258
Ni 3.0308644639388658 4.179089276285648 4.392359122437213 -0.13497751665087077 -1.8004265586546735 -1.8598426958294614
Ni 5.298971455401085 3.0759849574130698 2.92410344813888 -0.07951059393181789 -0.05489510937598288 0.24195237744122847
Ni 0.5629277933384716 6.877906429854494 7.89348263732999 1.0774290072669703 -0.13274965576161654 -0.46166239854448876
Ni 0.14586105218872675 9.353595921012426 8.597236242803373 2.405070832211748 0.7163183395953147 -1.4292363952598288
Ni 3.353247802088237 6.05167914956064 2.0796661200929343 -0.13677394642966123 2.1135594128954693 0.9367017326165159
Ni 3.3991681374697005 7.041902250556982 10.712489681826463 -0.19073137448272315 0.20510435537494354 -0.998981564492344
Ni 6.959782011443451 8.293937132561204 6.887743544323302 -3.3952792784971524 0.7112527521469493 -0.27904285453562266
Ni 9.092932148389083 2.4912817033970893 3.0023166947830697 2.1179979082827978 -0.4910022851591867 1.615874573509785
Ni 8.0939013765081 3.8030412511115865 9.01923471505423 -0.754122554927282 0.4148117567395372 -0.21284157611820115
Ni 5.072587965932387 4.869955076156889 7.504055609523682 0.186496253355453 0.8286272110040762 0.2491661215808483
Ni 1.5198784119833142 0.4205192352176668 13.153913004686936 0.5551867902568954 -0.46619782452099706 -0.28305223280533187
Ni 7.546169638417071 6.994316362027462 11.823463504075992 1.00264050140117 -1.816081748693427 -0.3680991831743467
Ni 4.311336078222346 9.31417782984174 2.8652124999931115 -0.6214472040470265 -1.3546227244089961 -0.9103654087148322
Ni 8.820760062206 8.798345668993163 10.995221563166323 1.8350886288132333 0.867110711791255 1.237139764998463
Ni 3.6532261569295628 3.6085291091709664 11.570616539362767 0.9414803849520818 -0.2626317601674509 -1.1966518321867456
Ni 2.847230171936969 8.222986450434925 7.5834262744572 0.2904806640589191 -0.7305105719352968 1.088235353853855
Ni 7.582294262910809 1.4562768654990292 1.7019177251230886 -0.8101664331957272 0.5382293364669505 -1.232716953340419
P 2.1516970592892513 5.501839592796365 6.684064273135013 -0.6208748764833242 0.7576377671693919 -1.7213360829794098
P 6.963969419075572 3.1683337630347257 4.631695345851113 0.3018138296835512 -0.4472315678311395 -0.7276260512986501
P 5.7051688155264175 6.504822524689687 5.838359430913681 2.044980378274491 -1.1444196143549064 1.4992246515235081
P 7.547985750041789 5.706608530959484 10.033485066944635 0.47762843495544194 0.17441335404898994 -1.449047516448485
P 4.256928008719145 0.20968090846416948 8.48767672131846 -0.3110644017475417 0.2858315953226819 -0.129971321685531
P 7.208956290316637 4.498292066615566 12.796727133667002 -1.9132522217988535 1.0071774700395753 2.132305583154721
P 6.079626566790752 1.2624892862273376 0.2723687531932208 -0.958944088954484 -0.0764314407858619 -0.3107972641290841
P 3.634246378965544 4.1228839149673115 1.592702606153536 1.3549474547382665 -2.6966650410498207 -0.08544675691059478
