# total energy = -340887.61464398075 ev
CRYSTAL
PRIMVEC
9.05082065938025 0.00000000000000 0.00000000000000

0.00000000000000 9.05082065938025 0.00000000000000

0.00000000000000 0.00000000000000 13.24679090597868

PRIMCOORD
 96 1
Ni 6.458050041470897 2.626810578202599 11.59617458276394 0.13260850219806194 -1.4610270574078643 0.4203650824575986
Ni 4.990559059042568 0.5917525991355858 6.0121088755760175 -0.2106067732504115 0.19422833189238808 -0.2525872314472553
Ni 2.982127688756946 1.962426049766295 4.820652531509799 -0.40693183977082814 0.6332976756277094 0.1253219958389777
Ni 3.3589676504218495 4.683528075769474 4.83551578890835 1.0049305829869273 -0.43498488925330253 0.19662999935534525
Ni 3.538725996051273 2.775343593162795 2.4756401541534134 0.5883162258210126 0.578393567390662 0.5489734623573319
Ni 5.046610790298951 4.899209127899234 2.6621277848125664 0.43152187040536655 -0.4170565869096559 -0.07418275396100127
Ni 5.284936995279263 2.934592779575851 0.5134639070324719 1.407708548490382 -0.3163045671005585 0.19400156059356266
Ni 5.4108701114913265 7.9211966300669845 12.458778415370542 0.5420047443489827 1.2313370422737568 1.02339907410476
Ni 2.386800920612294 5.446249768762632 11.49695586829196 -0.24417998122016654 -0.30226634383993756 0.3054727665923771
Ni 0.7784909375221415 0.11378691512275849 0.13262710304190692 -1.3945051624262306 -0.10361417184824091 -0.3860724798233158
Ni 8.107697836956863 9.495215769590034 6.978687628818855 -0.7158655683286123 -0.4347015536849288 -0.18611752985979557
Ni 8.822993230614731 2.608102532262514 0.9368477130354911 -0.37070345356641315 -1.0394461002652937 0.8970314106100874
Ni 0.46840349217165694 0.6943382188275516 4.671732141432893 0.861944079988651 -0.09159452167954547 0.8662013126031082
Ni 1.8498338429474028 6.414950034326879 0.566764188861769 0.17935681409719434 0.7913716690867274 -1.223143707829687
Ni 7.767866680250355 4.460190029510391 3.7941329094486753 0.36798451197335336 -1.6832153648482882 -0.12472447146429487
Ni 7.782755279946262 4.277028575379047 12.794372883008565 -0.2443766706120049 0.5925649737950375 -0.79325628770395
Ni 8.037001878157637 7.68680753199714 9.314202980241552 -0.0413677643135094 -0.14788008364515176 -0.009798474147660543
Ni 6.921126220705768 1.0027313505834625 0.5188518604664981 0.3013700572779132 -0.6832513818380168 -0.576922125051458
Ni 2.042426252022902 6.560930717910635 9.171217213155899 0.7557400359260469 0.6220773814318578 -0.724648456727565
Ni 0.17134470290765114 5.036591532023347 1.423115714678139 -0.10752147732244709 0.5256797819367139 0.778880221487936
Ni 6.619607187107329 2.601902720231088 7.165096517339799 -0.9516431844176967 -0.03563780380826765 -0.593187694980701
Ni 3.5483198657641366 4.1884210428423145 0.3001659359361059 -1.4344426220511166 2.4196302180831615 0.07849449396247772
Ni 6.08649575896855 5.99706460176779 4.782515089237068 1.178005677840468 -0.7811893292370868 -0.6747631418613476
Ni 5.235619074462853 2.8928503955044094 9.424415726355246 0.3507468079388282 0.8986473489469556 0.5492801949644734
P 0.016991105294301184 6.123884698387268 12.243041248153782 0.9753394995933717 -0.5769483503037031 1.0909820633610565
P 3.8536311931453024 6.258180772726394 12.840392684840669 1.0365754635857178 0.055705263982104056 0.7470270815330812
P 2.504841721362455 8.877243848594832 1.2784356339979108 1.9544304958093763 -1.7614154674987985 -0.5569703645198795
P 6.693796762613315 8.216543004095449 5.594106687432687 0.026741015539270076 0.4255157734206027 4.120191273298749
P 4.881768196826886 1.1190253429802428 12.667217000949138 -0.2500824627475306 0.42526046287668695 -1.2983253353688478
P 4.04976247302998 6.49037957223915 8.158618658080961 0.13176646591274083 -0.5806697650193484 -0.1617799815556956
P 4.8157696138587704 1.5258597237285718 3.818056038151545 0.9961674920823167 -0.6220295589130578 -0.36927186332620915
P 0.5755986947360392 6.07587009572053 3.5253416427197792 0.28166049466412785 -0.7254748092836021 -0.20438496071041573
Ni 0.8901147065492636 7.833521332040086 2.3512655892286656 1.1693649714463346 -1.0230923414976185 0.08444916888401585
Ni 2.2085902652856064 7.190768264560145 4.774779352969535 -2.6687832270378875 -1.5064227119338442 -0.7377014332567811
Ni 5.912176956449913 5.851636018233548 9.23152916561402 0.23982684645779345 1.018524262510962 1.050101265986295
Ni 0.1799493179416319 2.4244794862864945 10.044180614888296 -0.05945701771505243 1.1893606978419708 1.6246775165133953
Ni 2.2475268950070597 6.142737557455095 6.702054731222765 0.8819688598500101 -2.2669820236254052 1.9762594187590095
Ni 0.7316900498822853 0.33299959740530977 8.815527208797617 -0.43950488861084314 0.09368997075599349 0.024069382244377904
Ni 1.705446103768802 1.1347918722630812 11.403725176652085 -0.0708860854876005 -0.11536077086120777 -1.002701950766725
Ni 3.9942175877206925 7.20244382298429 1.7913365799962881 0.27401660496562485 0.2118900108382093 -0.3782342147258196
Ni 5.8159124297838565 8.33801406580898 8.237066644624589 -0.48593232683544707 0.17063254685031903 -0.6266835127453014
Ni 7.124271886465418 1.6065206358804986 4.928600762338435 -1.0381415225212574 -1.0785803472625939 -1.182938596365711
Ni 0.9592331073381571 7.979158084445456 6.748113451582946 -2.00542112792463 0.21753743893197378 0.9811314236848008
Ni 5.402579559928134 4.773384621532976 7.265890979658014 -0.6796654642589715 -0.29225523946083865 -1.1045621160383365
Ni 0.9393846580171096 7.663121534790947 11.053386922445894 -0.7868192738293546 0.6257810555356901 0.08303609058657312
Ni 4.5096708650955115 0.5299617426104041 10.392623627285174 -0.32376436581271334 0.2407591284640757 0.5307353420827504
Ni 8.44899522658175 7.5079090143136815 4.877336010035952 1.4910971373203676 -0.20361337265171386 0.14731829760441081
Ni 7.078212261023188 6.445976246945462 7.241715333063645 1.0072882845858266 0.8172765618779474 -1.7296093787317954
Ni 2.6162844739799 5.4134043412268 2.6978015937495976 -1.5141380783002312 -0.3764933207753129 -0.579691460266479
Ni 3.876837496865852 4.502719834963927 9.268024789050983 -2.587549736877692 2.135601480297174 -0.34839527698751616
Ni 1.2989828066603104 3.4783570234241012 3.627779734037859 -0.6614790231579318 0.04725224811874443 0.1091916659360184
Ni 1.5264208745985697 1.1711671197876092 2.4086106827321885 -0.9823886931306695 2.1008357946812137 1.4213551927395391
Ni 1.2090267018714862 4.1934804514927775 8.241716051107135 1.128260745206857 -0.8844528026141283 -0.5375878462282098
Ni 5.431786557629466 3.439347987138778 4.665611976621725 0.11728498446711415 0.14984594912227098 0.8701770094214046
Ni 4.622833273604885 7.018875081931173 6.075308944850532 -1.1284540921645856 1.4627512391878226 1.2843040813890914
Ni 8.06892412200412 7.202154196728808 0.5656780904037091 0.6702621686672005 0.48238137625939503 -0.2481561922590952
P 0.06672264860682274 6.151136718864092 7.913659106768047 1.1879823294372058 0.9185590002692181 0.51550232718308
P 8.639940386329194 2.3290657367459184 8.082542891586144 -0.02256014468870308 -1.893806968590048 -0.2871505712444216
P 2.0965954126186475 3.666804156718005 10.253797617293888 -0.6107796970308513 -0.4941598569515618 0.2593374056868953
P 4.102003808862669 6.512608387347446 3.9424432742249698 0.5998219124677671 0.13566348697430183 -0.8597771542443192
P 7.000320899939314 4.241368342672742 10.382357281610359 -0.14807394482351274 0.7577868911527466 0.4517387116728736
P 6.049776580265637 8.174438587204653 10.385735952896976 2.2821121943986244 -1.6519682339085486 -0.036549774099575764
P 2.407183368341888 9.164227264496233 5.823620108507889 1.0051712382428237 0.01821832278023959 -1.190424106109479
P 7.117366110436253 4.526070951812218 1.6519276971658448 -1.3213757894304083 -0.5481723066122753 -0.10787089024206584
Ni 2.7647722348376775 1.901649790217351 0.30687078375053 0.23248763248390283 -1.7407808219675829 -0.22153036214145072
Ni 1.729421727230478 1.7876366045824967 6.981866276972776 -0.3437171547855565 -0.15896436648377138 0.49368343153577554
Ni 6.901142009077464 1.4978383835106226 9.342431584248581 1.7456180954552258 -2.583710051416628 0.04640995472310717
Ni 2.9332804106056947 1.8416156979480816 9.042245736507411 -0.9877620416274409 0.2560764755474364 0.8614784532061422
Ni 6.488904288500286 2.501646781731661 2.5452246721972243 0.13371279100583422 -0.08478649761877655 0.13608617633401723
Ni 4.11227649011182 6.859634946338601 10.710639591379495 0.8140711675667722 0.6337825856839279 -2.1388567540096775
Ni 7.058626285496172 6.279178676248889 11.367097411236058 -0.1438989875102167 -0.1790714216462916 0.09639245728882109
Ni 7.911077812766058 4.3332975263270415 8.443239809836083 -1.1945360713953233 0.34393981231932375 -0.21851291547136562
Ni 2.9668951578826537 8.23543206644521 12.233822082408949 -0.28401511093923343 0.8991836810663998 1.2931815863843794
Ni 0.40515092813833603 5.287969020141347 10.283868063269377 -2.025645425391305 -0.6730613286788925 -0.27975016501529243
Ni 8.866446219757618 2.671023836266127 6.037741704268283 0.13446561001145876 2.167887079803757 -1.2736998235106838
Ni 3.6940471263743446 2.7856796301553333 11.424721270010483 0.3642890653996371 -0.37936884255089504 0.27060115152617265
Ni 1.1925451577704247 3.3198138010087845 12.349306931454475 -0.32397519627193877 0.7455898348659223 -0.371794886858379
Ni 3.247425338779082 8.598134646514366 7.818639973000566 0.1819626271511576 -0.01565519003875368 -0.08736994207523661
Ni 5.787357091157361 8.292995284722393 3.834336654037865 -0.48890400786926114 0.6817475435989807 -2.466843899654487
Ni 3.4639390663933542 8.662603640820713 3.8492261588158203 0.7480966604481761 2.6939622974066766 -1.512214378914957
Ni 3.8370591408394024 3.0469315634211958 7.026588191147497 0.3713691121748701 -0.06409657336959283 -0.20837428437546696
Ni 5.081420245879776 4.753590477134832 11.488849048384589 0.2275788823283758 -0.3657173132057314 0.5792808550916216
Ni 8.217882525527056 0.06097718776368505 2.7716128449593587 -2.2058599595031043 0.9998274574324071 -0.398347697646243
Ni 4.69267845527863 0.4430231813708902 1.440362958192133 -0.1450616403597502 0.5281210443883549 1.1700545413141914
Ni 5.881856707829068 6.029973385047009 0.6435450142722763 -0.11999338453721271 -0.3402281677956915 -0.3537352011431908
Ni 7.797960658359103 8.534959919537204 11.835159687475473 0.30180277393995764 0.5537125197042141 -0.6144825998037352
Ni 0.29861643546927363 5.133752089917302 5.438920414334824 -0.08116689858831828 0.574032719318805 1.4439302498265778
Ni 7.587230405034001 6.554124500906791 2.8149029193335355 -0.8933789014591647 0.21686509545529747 -0.7059565367450165
P 8.534561683435916 2.1913846555458387 3.295403738163885 0.3892411073592844 -0.36101065175868147 0.5029568864179015
P 1.7297837600498314 3.5529176825699245 1.3853493560452457 0.8835765706567621 -0.35026061233102906 0.13501891141176747
P 4.847872874114929 1.2967744064622546 8.128283928147344 0.48008872357047644 -0.19781810612617545 -0.9560454272504504
P 8.459276958651387 1.5506499210337927 12.097896860382733 0.7362150785192418 0.5956973487764321 0.08919851064354316
P 6.4353234312359895 8.094221165256434 1.6952974187602794 -0.45740568015066385 0.19357064370373114 -0.6858965327703478
P 1.9691870126677191 3.908642080046044 6.1520481364868145 -0.3425190207123972 -1.4180418120955902 0.0011359133766561081
P 7.148853914899511 4.451573648409782 5.9468026803749146 -0.021694454254298123 -0.7250804020586609 0.08108899416253132
P 2.439802525365625 8.734684375153966 9.881284852902304 0.6629808045144389 -0.10033267288349172 1.1054483752980317
