# total energy = -381166.59857057495 ev
CRYSTAL
PRIMVEC
9.28181100675669 0.00000000000000 0.00000000000000

0.00000000000000 9.28181100675669 0.00000000000000

0.00000000000000 0.00000000000000 13.58486862822057

PRIMCOORD
 96 1
Ni 1.9521505101050682 1.898538769203742 12.994144772777767 -1.9634992908798634 1.1270438420806204 1.3390739780411196
Ni 3.4689098252310164 7.175248378345674 9.048555472260954 0.0415701101323026 -1.2474277771880322 -1.3194155803802439
Ni 4.206711707590001 2.661689277671024 10.388837856620784 0.10966963401370146 -2.6668153046782397 -2.705164850990715
Ni 4.7746564468578745 2.506562368792239 0.5789650335843798 -1.2389217965995503 2.637766466941399 1.6056444111413444
Ni 0.3883723245006147 5.872054254770732 9.15484334750494 0.734773975197341 -0.7390414922244434 -0.7983730401052249
Ni 1.121743998422584 0.1851099432682503 1.8007019829643711 0.12268018734075645 0.206277035526806 0.4638748328147753
Ni 7.257605888217119 6.976014303129788 3.3139741216608476 1.087700050175675 -0.5023313370187606 -0.1021213893527983
Ni 8.603449933786798 5.9977763860914495 13.460852798401117 0.7196641161390961 -0.4712937509866657 0.25970404499769467
Ni 0.9832129677867999 4.007050669063612 11.301415313771646 1.3143494787112462 0.21574795113171874 0.38512579963933025
Ni 5.735890085964907 7.208273062231914 11.359979829074797 -0.4598315159833371 -1.2537418923315182 -0.5430385849301358
Ni 6.967902000230245 6.357892093066803 9.488569009166815 -0.9834880968424352 -0.20775207741043578 -0.9317389892946019
Ni 3.678753010531774 8.54482601489262 11.732803263624254 -0.4503096925358309 -0.6935301380562056 0.4521446888620407
Ni 1.8974063882498013 4.8696743470668205 13.287224455460938 -0.7143337050651182 -0.5556573021354108 1.4439857856548615
Ni 7.933804390319509 2.5319388403338294 7.727249750690727 -1.404881363454232 -0.30988966471315016 0.4194328004513163
Ni 0.9769013362402449 8.165042150200868 7.475536315527455 -0.9049000147248867 -0.5728165875235167 -0.19337652541505404
Ni 9.03577813110362 3.3880559687574268 9.506541379995632 0.7627509200262413 0.08132245032957608 -0.21047127611381172
Ni 3.6600872884139473 -0.05097292200620009 9.536863200490169 0.540219884534418 3.1883021315795284 0.0973350237077485
Ni 4.320386048105676 3.856490411244982 12.065618379617426 -0.19853672945975484 1.3501209798839005 2.8972234289252943
Ni 9.015775828187698 1.2206602592926379 6.266753989896769 0.7762931774870502 -1.9765070159934413 -0.06957019488965438
Ni 4.414429358149346 5.0092635041677624 9.900394613949539 0.7181078273955697 0.07559840336160528 1.0178100100527567
Ni 1.2328658408863435 7.355148441044688 0.7583833702874132 0.661263564713016 -0.1448832058003569 -1.4490670568325108
Ni 8.720354344564532 7.813939081801551 9.900286016759695 -1.2631379888344376 -0.5681518350579957 0.4332648212384022
Ni 0.26075299099149235 6.119154629818361 2.3337721733941987 -1.015481104809264 -0.669543545333621 1.1072149802801512
Ni 7.429124475494751 5.019287860153467 1.8204267597284656 0.14122221200900192 0.13754784848120827 -0.37051627725627156
P 1.723186793942688 9.179683330365073 5.194840322534237 -0.3361393424382985 0.06056542028788279 0.2867505075925255
Ni 1.0921071755870693 6.624809134808394 11.736158638336134 -0.7110910297581045 0.0803343753846939 -0.15635032589969203
P 3.722052659303361 5.7904485715982155 4.237989554627621 -2.7570371143799743 0.7273177760296119 0.47313646062235937
Ni 8.881468021601448 0.3456100925915949 8.685255175897918 -1.5345261550382796 1.8650275824645108 0.5032821309678043
P 5.836068673144271 3.506696078210465 8.343568504857396 -0.17157845570335611 0.28229581425528155 -0.3713871098969991
P 2.2368143746657965 3.1925160543584945 3.7883034423766633 0.855865735005055 -0.7291345175233765 1.1324668128684046
P 2.6528808389391405 9.090318053114732 0.22481753114495953 0.4557941126891699 0.8044475284340791 0.4621910173544491
Ni 4.34801799974405 2.1419728288677096 3.3470396455159173 0.8380647022678921 -0.7720752827509606 -0.15381007597634155
Ni 7.561427410883861 7.899879370756776 7.479570190630592 0.998893632764228 0.031497813497965106 2.522738396829262
Ni 7.246950369076759 2.9857544303422316 0.4751878882423689 -0.3350574222280294 1.3110088443737873 1.885635231412533
Ni 7.647098527317247 0.27482700115920017 3.5099224357480865 -0.08154022276733698 -1.9079938016133913 -1.70326585574126
Ni 4.012257765089521 1.3371191431376754 12.503512879049643 0.593333733640262 -0.5310554444263306 -1.230211670420062
Ni 3.0149828534894394 9.034952049915908 7.042260445297541 1.5606529340323188 1.1183853950746738 -0.05088316000311237
Ni 8.489552829804774 3.541539997071888 5.736550022733965 1.5777551409302442 0.8199106570666848 -1.4998687128654107
Ni 1.9411422821429882 1.4601866764844 10.722849398064476 -0.48733383516866396 0.02743212806902372 -0.477000828673772
Ni 7.012733147832981 3.989127491833616 3.91979143475138 0.9659858262926138 -0.1030521286971838 -0.0006797996758439906
Ni 8.712334859775968 2.029755732694401 1.9924790511442252 -0.7393448823974751 -1.702425876338468 -1.0737952671691249
Ni 1.5970005720670772 8.359161947501825 9.919331364951425 0.2968192046824372 0.12215208275142833 0.1729254566495538
Ni 5.115874386437954 4.830764994944529 2.835107851680391 -0.47936701491310346 -0.5464450395085234 -2.2002891502835458
Ni 6.690143803126336 0.258343432830484 10.528205178436487 0.2791451844414418 -1.210972619684792 -0.38659801330948257
Ni 8.190242267331598 0.9244591035372511 13.105839302986265 0.8579138757833354 0.8994631599800317 -0.13561695000708254
Ni 5.633947954676945 7.9706624621891695 2.1498874291908674 0.2788819034777262 -0.039014176479668296 -0.1617396152360634
Ni 8.10191655292422 8.098927809750704 12.087653399163782 -0.010914075809342495 -1.0843470745430421 0.579301423916912
Ni 6.792559306780288 0.6711594068573525 6.786388758762422 -0.31644906309822274 -1.6070142949056774 0.8597810108990611
Ni 7.44778091580148 6.920267745675951 5.644581197470671 -0.5653097376235103 -0.33025768684654094 -0.802185986093412
Ni 1.6513270124229398 1.2161678627212664 8.288223849824096 0.4261837460219047 -0.7874070280120246 1.210323416136567
Ni 4.015190817396449 0.23226340000767484 2.104105824131709 -1.9591623540674068 -0.31141227200526367 -1.1955020348530185
Ni 6.901917605135452 2.405334936958815 9.960534252596002 -0.33874875503668755 1.4990747562092055 -0.03462813159683069
Ni 7.691372766254111 4.976944237924962 7.701275530514434 0.43883717311985715 0.4483978202250988 -0.15742016192510308
Ni 2.674219722653155 6.9358797519425766 5.994921300997742 0.326558897838715 -0.08087533548982846 -0.8373771892825643
Ni 2.113644741396995 4.547085002360175 5.724799249884056 0.13638108186661674 -0.3205394311175125 -0.6933622450197735
Ni 9.250995485030046 8.13249083868062 4.450063159135198 0.8859913507458418 -0.11305757664932788 0.16274285968959712
P 3.7881669997535243 4.775835236867304 0.8208898707638327 2.8324493698727027 -0.7681283822880707 -4.037482741254924
Ni 8.028831572339552 3.317987576779569 11.968309728429526 1.8002229272842993 -0.1253369082373132 -2.2256116882087347
P 8.701475140791455 5.496688532161569 4.406510116920639 -0.05147579928178877 -0.040200740588601735 -1.318700042370458
Ni 3.4718707229712384 6.24359587120757 12.185599710774108 0.7260440515235108 -0.9368907086988704 -1.083777060972185
P 0.04976443020125677 3.3669491303208594 0.005824336463916557 2.1279318795670576 0.3699210668744339 1.27846716299234
P 6.46963581687412 4.5196015596993675 11.060827057390286 -3.0836260941256763 -0.25536016620670215 -0.10684322030849987
P 0.5631905956235412 3.9198666174212726 7.359385587810868 0.7403177878337057 0.4849293394922293 1.1603653390508855
Ni 0.4725073011973026 3.724493775622102 2.8726694848312713 -0.5603680773475188 2.324877610390609 0.24782220595844415
Ni 5.593321467501546 8.081895686386105 8.814827402462035 0.306996145215439 0.5096651516760127 0.28555417329157917
Ni 2.7022415103576396 5.096902364553897 2.3723390266869786 -2.898804143148853 0.4237658806090315 2.4521204774013836
Ni 8.197621307154408 5.544035050571829 11.133383902923486 2.239443194775188 1.2363010711472515 0.7631738664962727
Ni 5.008047586913941 7.566801579509531 6.596200736642524 0.3369039885184649 1.0095056039521197 -1.0959664039495254
Ni 2.584093336892789 2.21128939414664 1.8779860548897176 -1.1449500329370796 0.5198549477248209 -0.5816940925188047
Ni 5.180550046167947 5.657616572976527 7.831785219999435 1.6113468608427606 -0.49352402313977584 -0.9049820329157318
Ni 1.082398401178692 8.952139731300667 12.33549539091813 -0.2994643556147681 0.2714431878114938 -0.39764758625542485
Ni 6.241405363788472 2.1468086524497023 12.346580657912323 -2.8034367846904362 -1.622497221032625 -1.9652368423962605
Ni 0.36036910041832587 6.187997822731299 6.196303187301678 -0.13943195287779855 -0.7847379658202936 0.950932274393601
Ni 3.8363395993514957 7.290389245014813 0.6272434458288668 0.19294869384901608 -0.15082965319177896 0.7516270421989378
Ni 5.29720384804604 1.2940144123991442 8.472936531577359 -0.16254976984218455 0.07818390470059439 -0.23404135012426788
Ni 3.8009294900131025 2.941443064160976 7.277835595504937 1.5338368422807391 0.7339028854462974 1.002226296681887
Ni 4.879429530530687 1.553357496284869 5.7787720532370885 -0.43225412058570073 -0.9536753843563769 0.26043912339150627
Ni 0.4373682207429675 1.636383296555361 4.093501457629221 1.0317816417415004 -0.4266313750822846 0.0347901110959917
Ni 2.9739665302479303 5.17739423039467 7.863763843774943 -1.500553654747577 0.5239116342926977 -0.2096392671308196
Ni 2.0849825087267573 7.294343296542508 3.160438115204239 0.9995729182194398 1.0510672294439898 0.8175246733330114
Ni 5.993302553142272 8.982119981146804 12.660296591209399 -0.5545869518893675 0.41488811850342744 1.8881052902195805
Ni 6.147194981145041 0.9219084618475551 1.3235779089269857 1.4992791589105274 -1.6264870589183085 0.24097612957088824
Ni 7.000509002617081 1.697336950035106 4.865774130043493 -0.22896959202831535 2.765147916412567 0.1310578698814904
Ni 5.863988360926679 5.1559810921918725 13.42205389983089 -0.286545590670571 0.2578487369565107 -0.29692384858110155
Ni 1.8988079417255805 2.228145163100381 6.3712087074489245 -0.5070477686578235 0.015483183237263656 -2.2394509080846725
Ni 4.2534084992234105 3.6072088105893534 4.969738767969681 -1.0771181608947706 1.9787076231891856 0.44721151322648145
Ni 3.912478295787364 8.993954290296594 4.610908591831383 -1.1004473225390143 -0.17437761571504806 -0.5238406718454462
Ni 8.150785288354532 8.646925936969243 1.3190363187567955 -0.21977018491723443 -1.102565654433598 -0.18982814594216338
P 6.17789921225681 2.743879714942707 2.375409449798156 0.7826674564445101 0.6832105012977524 0.5518533550082882
Ni 6.229886636216009 3.812921589951557 6.134776846077194 -0.8373111119313192 -0.5893744918821978 1.4989937664596247
P 6.8189382139204495 6.948744342124231 0.6085081101278061 -0.060240689958612384 0.798357099265625 0.39451186883992057
Ni 2.311978480936388 3.316038396449015 9.071119555039887 -0.9818027387202123 0.5417664030859315 0.9656785794648401
P 2.368263383433902 5.78055416096788 10.186382992953936 -0.6291707979435293 -0.900457662682817 0.4099575139710294
P 5.933249235339022 8.494212298975906 4.6756399424279635 1.8009433503900918 -0.4396642970068428 -0.027211013197153137
P 8.812364937977767 1.175522811923672 10.950925773085899 0.252544551134778 -0.2440771370937151 -0.5661728569547541
Ni 5.6473880171466675 5.8049281969109 4.848874736577592 0.6622945770806916 0.2815018575990765 1.3133783730472284
