# total energy = -381168.44882644434 ev
CRYSTAL
PRIMVEC
9.21062258974991 0.00000000000000 0.00000000000000

0.00000000000000 9.21062258974991 0.00000000000000

0.00000000000000 0.00000000000000 13.48067718409580

PRIMCOORD
 96 1
Ni 2.7270718919433463 6.309782979999423 8.79193613075722 -0.7972309560809818 0.047910707638349745 0.5405289311344046
Ni 1.273792245880988 4.512062895840768 9.839249301648744 0.29309187642952106 -0.6822633068931346 -1.8949958466918266
Ni 1.1600042158178356 7.290585324932631 2.413904280338342 2.222071022045328 2.2494545562646033 -0.6802637599646026
Ni 5.815946245349433 2.8855038091455714 2.9771135813498066 0.04406022354400799 -2.0049704135404567 1.3937639133848319
Ni 1.6907479147274223 2.434625417721625 7.453910845856124 -0.7872473625057086 -0.26808147042811253 0.8850454418928048
Ni 8.356116186018578 8.768383648024948 3.9385957245782652 0.3773548974446598 -0.5874639051230464 -0.4364558173718741
Ni 4.273406456876357 6.255541624240811 3.796967667020464 0.1601856404853822 0.8138366829584629 -1.2685797286752991
Ni 1.7099796944564056 4.776214337817549 7.22935034352832 -0.45349220402887064 -0.06811237939720527 -0.18907712670875176
Ni 8.866366249920029 5.46904657105216 8.079279874768446 -0.041865786995850474 -1.3617235971198356 2.2503783536304534
Ni 3.7867171652674063 1.206794177993715 7.715274232409551 2.3663716158693378 2.273135701931627 -1.6064756487933882
Ni 6.080143740438592 7.849550371107354 3.890415879470823 0.628924229150362 -0.29626487484086395 -0.859822662770274
Ni 7.818427677762414 6.101153170305359 4.977254594591746 -0.6179918985085744 -0.2283838947281744 -1.0679799460389283
Ni 6.319730452273036 3.358874540654852 0.14721798433822217 -0.2755973191891834 -0.19856449737389673 0.2577764889576787
Ni 2.630940625165856 1.1853057957582176 11.887449500843696 1.520120521135911 -0.7194836246971739 1.321737543645201
Ni 2.7576143160723263 4.029619701193054 11.599327413874251 0.22807150569407816 0.24587896618914426 -0.22447941746744565
Ni 6.023351042254246 8.165898410653172 8.07795907150545 0.6446092439857866 -1.4805972662303082 -1.5904545907747833
Ni 6.541632768954392 1.1224156654950475 4.623184450697244 -0.6028794683471681 -0.44488440775520155 0.17397935183536492
Ni 0.525502854720989 6.57354757583223 10.060117265426094 -0.413303804735443 2.5968136786781213 -1.5623827722392318
Ni 4.388262919146674 1.9068659604941218 1.1530944068366653 0.8627807169573335 0.4243456643719014 -2.442064121606646
Ni 3.079838732757555 9.417861481267066 9.47404443624353 -0.2958884653380517 -1.06886311997483 2.2887942344044903
Ni 3.4295752787773033 1.099693059847824 3.640834721188141 -0.44396678103693865 1.2100038280136194 -0.31749935873960805
Ni 2.9711902300357695 5.4297448449489165 2.079933556810022 -2.119804622474233 -1.020049183795921 0.672846384454609
Ni 6.5635172079563375 6.015411485680308 0.6445317289727389 -0.5313071554258204 0.21238160576264714 1.4221108399586413
Ni 0.3969879603816528 6.701105486496355 6.437751684425959 1.0977278667253225 0.3971184532248322 -1.7187143290858466
P 8.875493976793315 0.5648055018864802 6.585970863427275 0.10827223944554255 -0.22182012546772767 -0.2678994363242934
Ni 7.217324033761973 6.577950253375551 12.076691871288938 1.648980612035134 -0.6153696303943789 -2.84819197741894
P 5.4879651896169745 0.29891417332406495 6.4211965115883745 -0.6102053125846201 0.7006340960908385 -0.09800839562568928
Ni 4.511611575339465 2.3346809532392494 5.429908794028981 1.2748948722600495 -1.6876731435093255 1.2802859613686337
P 3.6967017518136918 5.894015481452337 10.780483733489165 0.7811685033014804 0.2492813070024739 0.30687761735970376
P 1.2305483733582019 5.270336601764281 4.067659572017145 0.9418812199349264 0.04353520427847341 0.5719658094874472
P 3.6936254039068523 8.394745536681105 2.824605936523866 -0.29554882261044585 -1.5313359302357563 -0.8261476391153321
Ni 0.33671917327502887 1.0767862417510894 12.42497866533103 -0.43748065909196265 -0.7154336229975162 -1.0734605095375254
Ni 8.862424103500485 5.876487666881334 2.6984811987169395 -1.5498769264627372 -1.4284609505463852 1.0480251001835565
Ni 3.7810986855573105 7.898200879023298 7.479187557115822 0.5104048580555145 0.25445436656298115 -0.41905253429376216
Ni 8.904967968715129 6.488183526728678 0.2701567678308502 -0.04527866933214138 0.5038881399829193 2.4049615603273935
Ni 4.341721643777636 6.977433371385835 1.1969894703684743 0.8277440370681745 0.8646326825644075 0.8415022671945314
Ni 4.454063606112124 4.910155209857242 13.367007973891093 -0.7941057801884388 0.45322198108661943 -0.8906684445065369
Ni 7.349035935162578 6.680869748917535 9.619501349564423 -0.9695396050821432 1.7533249771811803 0.008180736038579458
Ni 8.09534504249033 3.883972127986916 4.160069747314507 -1.9622070544310013 0.25136981410038645 -2.545521456162048
Ni 0.9825523632035654 4.44798459527825 0.5604083507166445 0.9162807457580027 0.5411184850892874 1.0223806601425747
Ni 0.8276987728330983 3.217924384911253 2.9656003032553477 -0.4246032889086623 0.7822488808498528 0.2928669049029085
Ni 5.85781773512336 4.643820850353752 11.34907203802636 -0.5834918078491758 0.5894400550128106 -0.28138410107428957
Ni 7.181080234320618 1.757920984441731 12.090725175692713 -0.106119711878914 -1.1374871489011313 0.903316986508483
Ni 3.8496901911328565 4.109199479381951 7.063483611863818 0.45788827621403716 -0.2676641803850358 -0.939387506978795
Ni 7.687848682926303 4.192159556019382 1.8102935049000513 -0.026625830117644467 -0.21198925542023492 0.626452884791734
Ni 7.292666925612109 8.166948421615388 5.92549923119832 0.0832669756504566 1.7880014455174433 0.5646106546739567
Ni 3.9558610364087152 8.430528804998682 4.95466093765918 1.008979042024688 -0.5437335541146312 1.0375907922241097
Ni 6.266778583661003 0.8569793416829252 8.926109110483297 -1.9480958118405995 2.5626349759138836 0.3829570741227856
Ni 4.7583273089699984 2.720320505668756 12.043529025065661 -0.7783791134818014 -1.3833599444426885 -0.6267421338973787
Ni 5.476405858410137 9.593139626977104 2.310574912096196 1.0833266036983278 -0.7640117890165358 0.5824831640790032
Ni 6.221029421824862 4.1560999690275375 6.619389764955374 -0.10978301966311416 0.8455183303324599 -1.3530198986982505
Ni 6.215410942114766 3.842238797550123 8.978535052551976 -0.48719293871542546 -0.20811794539028672 -0.26444155968268
Ni 8.892008622892007 0.10203067047309138 1.0686173406775092 0.1746537521945702 -0.7639171724202004 -0.1891519458107452
Ni 2.1457434543979472 6.515382494899026 0.22073440975145378 0.865915148821257 1.9535275243791324 -0.25292893105739017
Ni 4.363182394145706 -0.19826693834680367 0.08779381131260774 -1.4122447457978387 0.7404540563012538 -0.38666049111630185
Ni 0.8848866067216451 0.7864324209558164 3.009170231813769 1.8520707651935264 -0.03254913758061491 0.7039729306560844
P 7.742403199849085 7.665761610229894 2.068933310387453 -0.572241431746337 -0.07215209668421768 -0.11402096900386169
Ni 2.3782656187936313 0.09656877134508027 6.37196573445647 -2.5679419899490936 1.2173183593971615 0.08110853454655709
P 1.7137284178039613 8.771653419003774 13.250979920441882 0.31978661211188797 -0.10902608689243158 0.10406360068083369
Ni 6.970580668264013 2.034433081780722 7.018660117586472 0.7472055160924745 -0.6146864882844253 -0.25548255071717935
P 9.03142981530466 3.2653130375480446 8.616309823517607 0.8612218571106458 0.6127895283720285 -0.6428377539076606
P 1.6633555234850863 8.311186769582763 8.356334477771249 0.2664102533732767 -1.1823266738133251 -1.0865312266785545
P 5.972057085687815 4.735613913945251 4.21381741370843 -0.15154596253251318 0.3923914800628081 0.5911305553413561
Ni 5.112309951950982 7.1176098348414865 12.331624401229925 -2.5421296568716802 -0.8233857600994787 -1.0468681037609775
Ni 4.799590897660538 7.717552940410006 9.905749995922337 -0.5641478561049252 -1.1306469860508463 0.7980879047646384
Ni 1.506848626380255 8.113250492582832 4.639051590035903 -0.2803428042939688 -0.38109225299990496 -0.6010832956786939
Ni 5.210495187540524 0.2884380113203552 11.282922268469084 -0.14768236581204888 0.9487594351119983 0.3511558704517888
Ni 7.995676896682221 1.7938792545863436 2.8124193619264437 0.029823511119335736 0.29281059774367635 -0.09162048982147447
Ni 2.940509646569656 6.325606829412447 5.821562882935034 -1.217644889498645 -0.6379449445917336 -0.061816261975848386
Ni 2.1405855058116297 2.5298264116290836 5.212465339688048 -0.8762440415510909 -0.3873477469913135 -0.5201583378978525
Ni 7.706979145808055 2.2949555385021294 9.974770716505242 1.2186075105222305 -0.29403778528255814 -0.12031837197679922
Ni -0.002435288582539865 7.870246639809952 12.017524674630394 0.32959434223092915 1.4152652777917174 -0.5993184904687872
Ni 5.321004236002374 6.388193009133923 5.8093495975324325 -0.22630232960879737 -0.24584425629646695 -0.009703086220376838
Ni 5.048793499359473 5.968428100432441 8.319154879086376 0.07953476230153399 -1.2188265685115718 0.006108684000899157
Ni 3.6438880425387916 4.102705990536677 4.503287935808296 -0.31847072151394185 1.5557236150515013 -1.073379776898261
Ni 5.2186834309213035 4.700631969783048 2.0252694334797807 -0.3944105673753659 1.4008907542376003 0.6859932062492121
Ni 7.041640620663011 6.335167455542085 7.221706447935847 1.2907508654556996 -1.1847118862160502 0.7796559233116959
Ni 0.7243776941511801 -0.0913012163513036 10.082589342141981 -1.1283625608920438 0.5019628979357483 0.6632242879838126
Ni 3.7122953356648263 4.084809751066651 9.362410770777412 0.2584318631534904 -0.17283084005321847 0.6269930735659202
Ni 1.7130652529857204 2.1626541572630877 10.157784864032507 0.32191934218417456 -0.024785434474796024 -2.823626886485066
Ni 8.745624199887823 8.240836035114384 7.967767789519006 -0.7457867813680769 -0.36082270411759143 1.2427740804661047
Ni 8.83528039906499 2.721315252896117 0.4305238368151916 -2.590569754650938 -1.1739844724962167 -0.5230287174671121
Ni 3.0198499485741888 3.0786966155705855 2.290151277818874 -0.010161513914034113 1.6348647414590423 2.240639014855502
Ni -0.4540505298045318 4.120749599966312 6.115077789363921 1.196960878786732 -0.03262832755798251 3.0765319062830563
Ni 2.5905428349880197 7.887627084421347 11.292183549368268 0.06639899625052435 -0.9077590814402365 0.6537155771624289
Ni 8.003109869020005 4.681501506901295 10.412609629690529 1.0869204916971733 -0.5921908782850704 0.6216644622641552
Ni 0.44355963080486127 3.217988859268582 11.529685897336492 -1.8940738490981894 0.7639230859574714 2.047179699918655
Ni 1.6320670389355858 1.895610579828979 0.964166118617839 0.6467136919232992 -1.619513455813953 -0.8397868271653215
P 7.964858153878976 4.663393423114331 12.972887280286084 0.6515584216101101 -0.6109805001877477 -1.0559592674289686
Ni 0.9773575721273456 5.663906500145252 11.98523867966679 -0.4738008336792356 -1.130378305770492 -0.46798654099030373
P 6.987767689803421 1.3269006950751063 1.0082398682256737 -0.6644661308107137 0.09966238628934448 -1.4432072556176243
Ni 6.631528444315924 8.370097910936488 -0.052641470634607015 1.32121560970346 1.819792878996427 1.3368725995144266
P 4.2089965739047175 1.9749785137009384 9.799576387459735 0.7192398841174839 0.9198604926894609 1.1377108348761633
P 2.8755471262494834 3.485198227907251 0.11236222570393467 0.49830293258565794 -1.008069385726225 1.012857294033172
P 7.275148321663582 9.13118085671505 10.47441843287507 1.260577941416745 -0.6351853795687253 1.260601852676145
Ni 8.779445605618104 1.9610336312729302 5.123088222371891 1.1354099546571284 -0.4303939274485104 -0.6048147376966682
