# total energy = -340877.5252744193 ev
CRYSTAL
PRIMVEC
9.15788811187457 0.00000000000000 0.00000000000000
0.00000000000000 9.15788811187457 0.00000000000000
0.00000000000000 0.00000000000000 13.40349494524320
PRIMCOORD
 96 1
Ni 2.2866330172778735 3.0008566907029266 13.279203877102486 0.5872685012827886 -0.5262855338415131 1.1267389092456919
Ni 1.9951099733473736 8.692383252739885 10.160706790655444 -0.7198494926770247 0.9965397878200708 -0.9273274904904674
Ni 0.2270240398026292 4.87154759971958 4.350265054885643 0.2387045599278921 0.35287259603257937 0.001705926947513191
Ni 1.6071085809166437 5.204363559965937 0.4667931121261668 0.8457047353116531 0.5248048355309285 -0.715940901651238
Ni 3.193282230208083 8.282842508085848 3.4226360366797643 1.0503892295403587 -1.072397358380334 0.8274578732863234
Ni 5.672734576168666 3.9748255372188206 7.926679428554587 0.2066454746098183 0.17222097438336145 -0.048201756516207304
Ni 0.3629106112991751 7.984780732230416 2.909161507026775 -0.2657510225227229 -1.1979227284793692 1.3954929802607967
Ni 6.958721819623462 1.0968035962485554 9.923102643019657 0.49743904192346594 2.8110433933931005 -0.44892643903505913
Ni 2.1915191940673004 4.055323371420721 11.16123717509161 -0.2219060003133146 -0.7765610864364562 -0.3791492703409212
Ni 7.216369836396644 7.537674331615492 11.939806000128653 1.5848318452713674 0.9826283199453013 1.0626122539691119
Ni 8.265442521170762 8.850613239012972 0.7892432591150557 0.42399393745943753 -1.3060255322265828 0.47814059870517
Ni 6.914763957943244 2.8414636526728834 5.197701196555028 -1.0246067212596162 -1.3351831276271457 -0.06120922451946878
Ni 4.732100441426937 3.7861272580686323 13.22179674132569 -0.5092792290915035 -0.22774034760690454 1.4810361535399394
Ni 3.7178643620343923 0.4826866264899209 8.716627845034097 -0.1246301119782757 1.511983236740757 -0.7084343088615477
Ni 4.049031902467739 0.594295637295996 1.0781865260381978 2.9138204140520267 0.5827922106789899 0.9013056125054092
Ni 3.282672373512378 7.289632939197008 6.166518731155271 -1.2867314598836614 -0.05466293876051876 -1.6020412671711184
Ni 4.822845952133039 4.350875886005241 10.8737454333927 0.18527523646415833 -0.23205671559407132 0.7056148371348815
Ni 3.3748556726109364 8.100802013402642 11.827069653328238 2.3559727891335163 -0.27569450688867997 0.7352311173394177
Ni 5.0113793893019265 2.412737132973001 9.35951248789608 -1.208691536960099 -0.2096302682697551 2.001324075037121
Ni 5.1940426203589345 6.487969752579721 12.283551899524037 -0.39354641960285774 -0.2571429691387378 -0.8385172164242783
Ni 7.997940617070931 0.22820632312407008 4.236428845754436 -1.7821776397468148 0.7550563795954609 0.9590420479849291
Ni 5.25341320729078 7.966538219633125 7.643490062567628 -0.284947907166148 -0.37741608969989837 -0.3877187571774871
Ni 2.259965247858541 4.9751049955278965 7.079792760156205 -0.8661421772303985 2.093884817284678 -2.373609271268357
Ni 1.1655793340023974 1.505611709874589 11.510519017692348 1.5543704434577166 0.7700132580156094 1.4679813772385104
P 5.844600657450471 2.5223753663137463 11.817901691801556 0.5930840795233011 -1.0587609985438218 -1.2828943455257584
P 3.3667784155271963 5.510914697858362 12.737314253028375 -0.04838918993666505 -0.21692680193116834 -0.8796733789476139
P 6.072870170000706 8.460752795348684 0.24860551831004654 -0.31397566185706577 -0.7539451488091532 0.17582926055991008
P 9.10328852268358 8.89641183615105 10.681459093782864 -2.0197655695717605 -0.1612773308876642 -0.8779173154884558
P 2.6296233909256297 0.4509279872147479 13.021950565295642 -2.280193637219673 1.1662721914536236 -1.2603511701179195
P 6.929306683849116 5.65762406121609 10.827959657297612 -0.5213875823192634 -0.5862212909651968 0.9200417554623316
P 0.28794505714748725 6.886218821514651 0.9454704153153377 0.306122227250918 0.1752026827195047 -0.16889628088550265
P 0.06398616240826827 3.352913373322227 12.679156170447875 0.6387928944143257 1.2099590908186129 -2.6380968536976246
Ni 0.9292875116955222 8.058959623815785 12.4043041455596 -0.38765602226035173 0.39599745224651156 1.4143155122839384
Ni 0.8891704681796126 3.7175438359596407 8.703076918382385 -0.2038607127758296 0.9055667017746082 0.4386955053356703
Ni 8.362488658717695 1.1825397423006818 6.6219697991791575 -0.508796118807498 -0.46465053463853523 0.2247272718121936
Ni 3.5717136298355157 0.5010326232199172 5.589886827944444 -1.5592383130729792 -0.01129022820183862 -0.04865375645196137
Ni 0.970470533357177 9.12784082000955 5.1851951849070055 1.0981659827040053 -0.7630905627538471 1.1362044255339658
Ni 5.3153754764841885 6.0370445127313275 9.340921975560486 -0.005035248431062296 0.4415399167630009 -0.6907993693886039
Ni 3.2589351282050596 3.014254680627543 7.34030353267131 1.861669464625555 -1.7885737730811455 0.45955975037918917
Ni 8.04784194796583 3.0973808286424065 3.047485908269003 0.7256393598859244 -0.380976296247331 -0.366452134489227
Ni 1.3966053707954966 3.29912909797891 2.63674914346175 -0.8311556338528846 1.450934963279185 0.10918009597179261
Ni 8.079757187123239 0.9779983171699145 12.088423867314331 -1.1622970088559597 0.5217907312949529 0.3425017943212166
Ni 6.575912949603708 7.755650378222277 2.9182754370151405 -0.9948675423239707 0.870016058363508 0.12304219866586551
Ni 0.24979695951933747 1.898668256398544 0.6314400304157807 0.2607936785174476 -2.401364844115071 1.8705158592725917
Ni 0.3887770655316288 2.2506608338028946 4.696034847495888 -0.3938780919106636 -0.5832508954829632 -0.5398887264472444
Ni 6.058391549309785 6.148670007735533 0.9965567768980318 -0.1724883691121352 -0.12504997312451366 1.05177582547524
Ni 5.639912706114102 0.17616387804983125 11.536588777035073 -0.9287259134998909 0.07035258158163367 1.1041625666070725
Ni 0.08583138808576692 1.5658889277035888 9.518813031258837 -0.7435666337883066 -0.41208381628541285 -1.289575614200676
Ni 6.001411171106801 1.1586834444513132 7.675698354136238 0.3569174555259143 0.42568675178082815 -0.9379389474577267
Ni 8.05009478837694 6.0212654719657 2.378704590144662 0.3678991513483987 0.007242283384710107 0.6638387816393599
Ni 3.725831724463932 4.441658028262743 2.199835472023927 0.6329168952495229 0.10728519294192491 -1.0449310346392648
Ni 3.1637114103402864 4.844128883496545 9.015632883338084 1.0398690467353253 -0.5950885115478396 2.5575953566074467
Ni 1.9892763987868944 8.679498104534872 1.4476715850249207 -1.9469814957304983 -0.010977067836793999 -1.6232464404938236
Ni 2.0363387844482785 6.444735364039656 11.116094282723596 -0.09659506021793042 -1.8584890100150442 -0.706895503619518
Ni 0.2148605331601987 6.0464862951047245 7.049849214252911 -0.6285640175974658 0.6494732569463072 -0.5825687818142741
Ni 8.061258253666146 7.049018593824911 4.833755743928798 0.03876092281828163 -0.22102616881152257 0.6064391606739685
P 4.115124379081519 6.270781284328041 3.250267187354992 1.1548734626983788 0.5248264327974832 -0.23699451921532083
P 1.1902506838704203 6.950314878577121 4.927244957834773 0.3237926479474875 -0.9286968600341684 -0.5668773392209463
P 7.4076872714719455 4.960956058799576 5.391569103396567 -0.6247618702425562 0.5550176116688827 -0.5511902675029927
P 1.7686079331521969 3.3738208312838815 5.775472341014402 0.4358153555743978 -0.14407125142202284 -0.6365164396753231
P 3.111612186361377 2.3718196900589974 1.9595508106144317 1.120179767970935 -0.08651890692885099 -1.0899237972998712
P 7.284330522131832 8.422546087238294 6.9928715834162825 0.5271779637487954 -0.2749779404376297 -0.00023114217419960192
P 4.389210804545532 5.767692715285788 7.18231623042625 0.8889041535172626 0.40752293638760784 1.2646773082970995
P 4.488775361251227 8.025029649331366 9.84726617373343 1.2296252017889728 0.23215955972052277 1.6854239424638326
Ni 6.751451343913382 8.121370629513844 9.66637224660905 0.2534999730695118 -1.6693908002603701 -1.2022969462876647
Ni 4.879707277793972 4.299454345727235 5.747887867021279 0.36688562248221973 0.5951779859378524 -1.3995262697899058
Ni 2.958171775433864 7.249960969030611 8.5384281685152 -0.3087612075356618 -1.7708521874316665 0.6445161700513481
Ni 1.8802334281564022 5.956629099520079 2.61858722027754 -0.9856048860751221 1.1962178299731203 0.48285625901328455
Ni 5.9300529089792455 2.273637974418659 2.9068958455726737 -1.602088575469286 -0.7253660516198798 0.5937451101460678
Ni 8.76548151355895 3.63095600633746 6.4317879421972615 0.7274334756718698 0.536952783747372 1.7806146661350688
Ni 1.9540093726763692 1.0566462580261058 3.2177099802592948 -0.10869904257031601 0.12517570006910056 0.7661828285259256
Ni 9.265218295648085 8.384952957613857 8.31629169345814 -0.04503364320087083 0.021472568051479148 -0.3339063393427217
Ni 6.907593331756658 6.0999958338125415 7.14123486131973 -1.0253713673397824 1.3824106931555415 -1.1099508911540756
Ni 5.415196454049685 6.850539690450875 5.078798843865177 -0.09137829190368134 -0.6840489380386477 -0.6808407155139952
Ni 8.71747586544901 5.562501080117668 12.524024297634458 2.297689222901275 2.048952989768994 -0.8497526801287818
Ni 8.318594902252427 3.3499828492102126 10.68503799635466 -0.5147335673378555 0.45193257285123456 0.9010191916132416
Ni 1.3756063339553424 1.5883532265997504 7.60864155193185 0.706227788128532 -0.6190239393175145 -1.1821214997810543
Ni 7.660417502469652 4.9450579654918965 8.909182510757939 1.3595119341804973 -0.45620394653307883 0.6341924195278368
Ni 8.833460515069838 6.721807260942784 10.307890532603807 -1.0353493044881008 0.8171472353889346 0.7707017994422017
Ni 6.171528095809247 4.646336821711261 3.5363110669848097 -0.9428253290157504 1.384412554076919 0.21018871187638638
Ni 8.821198103238626 4.2235354554503575 1.1711326771946653 -0.9513853027706197 -0.32265956278430885 0.30406380205999245
Ni 3.70529058201628 1.7422515319197658 11.57947974478076 -0.05729394862546261 0.40120804991317355 -0.6333863786867737
Ni 6.710057690831176 1.404710101542787 0.8129127360522833 -0.8184361294036873 0.9359635688989106 -0.6354054659993315
Ni 2.794034951497497 5.157255384865302 4.635076282810844 -0.3037007622936189 0.1631308391566352 0.7276047111424113
Ni 3.6094990751048037 7.166367768735395 0.9771548756989253 1.069713126679951 -1.2715951184628553 0.0316721342923003
Ni 7.009474834088414 4.358779143219831 12.82576388125047 -1.9722217583545263 -1.8449408390169646 -0.5784511601014747
Ni 3.6556914614204334 2.873552891699443 4.086966621308983 -0.3276271912022293 -0.6127622746785188 0.6455345840135334
Ni 5.851395810235204 9.313480364617826 5.426901150510828 0.8049987729518587 -0.042927138380829295 -0.8023258541053859
P 1.0790098201559168 6.034681777666016 9.071874219991567 1.856108682708326 -1.713112666628353 -1.5393996810804973
P 2.238068738009082 8.79156317815588 7.343721256416948 -1.3579492176790677 1.1288212456960172 -1.1147233728420542
P 7.632687418059714 2.8107389389359807 8.173933242617966 0.09218510407569286 -0.8278957321546904 0.9461122272971384
P 2.5644467030968556 2.3412689761912455 9.521238955750313 -0.06637071411575021 0.4539344337726118 0.5430943778687357
P 5.005554972629297 9.516327580496334 3.1899515063970214 0.6388749126051707 -1.0562870830820326 0.8064018239469726
P 6.420723382096837 3.885975709297679 1.5126110835583786 0.28989599520004267 0.3427537624310226 -0.4650588258205474
P 9.034329627172736 0.8753228259615587 2.617206210789753 0.01216337483541131 1.9510461527181753 -1.4561571309100727
P 4.81705816701181 2.1848339359367674 5.928083963091486 1.0546642027666289 -0.31430450595139414 0.4141813222443899
