# total energy = -340862.24317974044 ev
CRYSTAL
PRIMVEC
9.35614500061143 0.00000000000000 0.00000000000000

0.00000000000000 9.35614500061143 0.00000000000000

0.00000000000000 0.00000000000000 13.69366394202374

PRIMCOORD
 96 1
Ni 2.3786969866661765 5.97204616122229 2.7562473831133683 0.9166011052118987 1.02842583789539 0.01854639554361967
Ni 5.7182232994612425 7.4760371378608115 6.527413838693971 -0.854242083358703 -0.16062041402995564 0.7699644070555449
Ni 3.2796376276930554 4.188484211371271 6.758823119134853 -0.47522882437501385 -0.27500288013829416 -1.167630505253731
Ni 7.3832990271388725 6.388432044956066 5.577990589116848 0.9799528299956671 -0.7541066140876819 -1.1720499744776653
Ni 2.439568067008886 8.660468976917834 13.594412473606916 1.3230187243504699 1.4697430971246235 -2.31826550439073
Ni 3.710048373005947 6.07050087663058 7.916307388932256 0.16406569226607876 1.0384495406799794 -1.8966279829786108
Ni 2.9121937392363644 8.12990069777944 4.216744447795365 0.8591099529739656 -0.3649305556383779 0.7355964710986364
Ni 1.8027794719881116 4.571141191841065 4.466202667844165 -0.6204714703973185 1.680451428949906 0.9576487671818281
Ni 5.866031680533196 4.984261780917662 8.014956712159655 -0.009846296666460462 0.4468685280647659 0.43410274375866525
Ni 0.8570219600805663 2.3238044830740034 0.7780860346831835 -0.8471954609245668 -0.22620668457119752 -1.3429689422201516
Ni 0.29752541575440594 3.866586037502392 6.0079859215851 0.06426755172981835 -0.10563891558775354 1.4855510106911578
Ni 2.309527005575852 1.9441695374875012 6.405663257477918 1.2734445129667682 -0.010825372750278131 -0.6239344892452545
Ni 1.0558596924124597 9.091824692890825 5.745299983523925 1.5657691722129614 -1.0814808087388408 0.3413635669517153
Ni 6.640926334105882 7.066181843441393 3.349963092709345 0.8915117663434389 0.23028676817784208 -0.9350968500232413
Ni 3.420821857999156 3.216633346256258 4.0531195033481655 0.10134543041872224 -0.41218486063965143 0.6570258724825846
Ni 6.606224391746351 2.252613574631385 8.229248925049509 -0.06689804737412995 -1.1234352987937555 2.109490899253051
Ni 7.678719310234639 9.352000377208388 4.004589178457659 0.04970379498303053 1.466154608442417 1.557312042584544
Ni 7.230662875169772 3.80023225610207 6.511597275318726 -0.21170720540344184 0.4341204843704781 -1.3194068386294955
Ni 3.106221477346895 9.348416973616125 9.270719801836538 6.422787446583339 -2.5684197009164604 -3.5906908320643645
Ni 5.561348813739415 3.201962910661827 11.78647870125594 -0.998409751149274 1.3618146141717449 0.8990836651534257
Ni 9.135564671464781 0.7615977000862026 8.04568509967419 1.4767303270757342 1.2087167337710796 0.544132846435579
Ni 6.3792068858386495 4.5967489611152725 3.5123015671984863 2.091142735763166 -0.8315091605375614 -1.178513470714822
Ni 5.952707009198253 5.686187858469322 10.925681536607549 0.8218981198103588 -0.10015706653757589 -0.46085301526931594
Ni 7.00231679665084 5.904560286258877 13.468006274564466 -1.0463145452503528 0.7703608711630152 -0.07453113843935551
P 5.526132283396661 7.031208572872527 9.189119246300574 -1.2813912786176704 -1.2012147689670796 -0.8246209180581604
P 2.948663993029153 4.769201428511034 9.61591009905512 0.8984228916409754 -0.3978974974827018 -0.36917056186165453
P 4.375055101797642 1.5878594617587263 8.409868371546278 -1.0495237962162698 0.6165623651508993 0.9679545199832104
P 4.384280260915059 7.476308466070147 2.5257007392552717 -0.12686542906669765 0.4514029256000097 -0.292511835556335
P 2.374112475542917 1.1035105396589122 4.397295594432542 0.3261318376036254 -0.8531308525723952 -0.07470494501305844
P 0.6184842326502736 9.396470135104007 1.1448899628116482 -1.0134671597030287 0.05257083211818043 -2.7321323807184945
P 7.749751164209716 5.843118481062048 1.7781363212788184 0.3901908728670635 0.28751129701795003 1.1682552833219235
P 5.756162468042505 0.24881171041896913 6.277928485824238 0.09851773116194001 0.4842757650686305 -1.4722612355607871
Ni 0.25941783656045325 7.891936502046813 9.349773614662803 0.3377131146833216 0.20778601597216473 0.3287700465574209
Ni 8.501367728650422 8.402838164080936 6.749155414351864 -1.6179489395403104 -1.3590205963663755 -0.6543894633010021
Ni 3.2257930123576277 6.345655749332508 12.172996027214422 0.9097547717140267 2.6590878541269944 -1.1194454609080722
Ni 7.876133972889291 8.58879154892744 1.75396659151409 0.5369478986513655 -0.7053564412671723 -1.3331704680724912
Ni 8.805844760250913 4.928246539907548 3.7846683086458612 0.14565145142494915 0.17522659397890467 -0.3956922623012669
Ni 3.6925804500118122 2.7413973095320663 13.309474815536662 0.5580435429794002 -1.0909316697390954 0.4102560190480547
Ni 4.946088708707662 1.0419564607202885 1.020692749638998 -1.1156551406277042 -0.4612201688007476 -1.7321110621077265
Ni 1.7151311042275057 2.874713021767429 10.329226347711794 -0.051941940284929905 2.4634225326777637 -0.6223098091576379
Ni 4.756748399317036 3.3834347019817153 9.536131184979768 -0.44872049367184014 0.8944623643313305 -0.4167200295058436
Ni 3.6568399755406857 8.801456728175793 6.509145965289554 -0.7228419996464454 0.29295689351355353 0.032948944122194866
Ni 5.071592039743185 2.8910020704727253 2.4722266272677644 0.4838463908406957 0.16928528879380522 -1.191237860260026
Ni 1.588682802531883 0.724120725075327 10.079221728786262 -6.4039528303753395 1.1187240093610153 2.884614481912032
Ni 0.4745792353346961 0.7218191133685476 3.0682027815318627 -2.130993292101201 -2.2560586918446823 0.6561928350583279
Ni 2.4475020780956704 1.2010296405522511 2.245664765628844 3.1774394778334116 1.5747531208791268 -0.9971208571345215
Ni 1.686258040296119 1.6140285997419046 12.427931334633746 0.19246249824121694 -1.416564456219115 -0.8865407954914087
Ni 1.0244698254358549 4.992626174681323 8.52457938915184 0.830104309770235 0.25196733847506925 -1.241476444700604
Ni 7.5991640080283585 1.3720786861755858 6.3482866973485494 -0.008520892986817583 -0.22964270683593999 -1.2428247311983822
Ni 0.9342653588204027 7.0300951915997345 13.549497363202182 -0.8265091362198088 -1.2694323064835815 -0.05330333940883079
Ni 5.838590106809685 -0.057015412926596676 2.7095648968898898 -1.2365550961395866 -0.8421545560665498 0.05941048074783317
Ni 4.726041530936346 5.960163856882413 4.104388371923934 -2.2420649486687516 0.8521576900258485 1.036133748062609
Ni 2.0970115246498904 8.268352933701884 2.0723169151422747 1.367588797651361 -1.2058435259883427 0.573736785344941
Ni 1.3282919268758808 5.477573890070706 10.850954940912928 0.1191858010342528 0.13832894962160694 1.2756240371165903
Ni 6.476847616618931 9.3698986828794 12.890791062554165 -0.19508142392130273 -0.44292934091135977 0.44000702505824224
Ni 3.973358365948596 1.5900113751431135 10.962120915121341 -2.0232111049181993 0.1736710765663267 -0.5642756399320411
P 9.045979581658226 7.8228133016822365 4.458834703538926 0.044519165458297524 -0.9186937260748694 0.8207040995022575
P 1.273034533622877 3.6802022699790107 12.472052108315287 0.026666453547592787 0.4305505076310327 -0.08838732759615746
P 5.305888626577205 4.137259316677706 5.221777817297628 -0.4726392092709667 -0.1845213890172693 0.7016471107363852
P 5.056734481245763 5.160671897711666 12.780789928416866 -2.083886568421385 0.5876531383157169 1.2541265293644468
P 7.448371016653711 3.655876292590286 11.026042098782792 0.9751309831269915 -0.09712393613820693 -1.117369809325966
P 8.569733081257889 5.546032804129668 7.071832955111697 -0.18796152504706984 -1.7048676530107414 1.4562810580824468
P 7.41881495412641 2.3849749600614976 3.5212572693355972 0.5226181122922546 0.0195259858480696 -0.29053131479119637
P 1.2130990677951183 2.529143800670291 8.037345967502432 -1.1579089070905928 1.093409956076259 1.6529797058921984
Ni 8.05223533689336 3.7535170233705686 1.2382820680795386 -0.716502944802295 0.07884904908841904 0.180477815075515
Ni 3.2239685640534734 7.014236525571317 9.806622019324664 -1.3919276315070415 -0.13596379182354004 1.1846926029423404
Ni 0.2619093780137676 1.7467829432682966 5.003965822602529 -1.280908168333665 1.5756728044799186 0.8089436165322198
Ni 7.060278115852053 8.087994523654787 10.516980790499577 -0.4605822781064326 -0.4500296994015669 -0.1975126590706147
Ni 4.6296170990255 5.328773757612906 1.4771491318190937 0.26427520930814485 -0.08901673365004023 -0.18670914069720748
Ni 0.8132370720098911 2.955419129827099 2.8942795281185982 0.016970566416067548 1.8300587796988095 1.4854080573553903
Ni 8.928026659758359 5.023557590545603 12.799413335336965 0.6422471715115132 -0.4339520771134139 -1.1006028742802723
Ni 8.8747808377125 1.63872882293661 11.021072114479374 0.1541206652382249 -0.19670121891291287 -1.585726589171495
Ni 8.912429965794127 8.992228527774294 12.876412538688399 0.46074657159843874 1.6222012870587612 0.3219705071370842
Ni 0.7708415714939182 4.866673748678625 1.2964978744288171 0.15853910602089472 0.36972129215880195 -0.06272848937747261
Ni 8.481701111546151 5.1583515737145875 9.985392691539891 -0.5780824639081463 2.0086622605697473 1.5691010647996717
Ni 8.543245834339627 3.503895070781652 8.553843539950476 0.6631065314590258 -1.7080817890726645 -0.8505039564725094
Ni 2.7897405115195824 4.830166070305239 13.530928221923949 -0.71124606727873 -0.926850807964365 2.1123291400327946
Ni 6.169470180022092 1.1629781982291953 10.825430441330552 1.4889710921163002 -0.3921279419887763 -0.7254714668494925
Ni 7.575427467784053 2.30326774447083 12.684249480306166 1.0045004374280442 -0.16498666141845134 1.2395895120905362
Ni 0.19507281952373073 7.0394606928943935 2.4462773586955993 -0.647245138946737 -0.8054194054290451 0.49237371158541654
Ni 5.4203329940460065 7.606265322196836 0.5723687288228557 -0.5895948354231202 0.40718689320442775 0.1626796105518295
Ni 5.030948945213715 2.538995821512725 6.602893604073126 -0.4333697222473826 -0.41991359674247675 -1.0182938916677107
Ni 0.8978007187147039 6.407677635528607 6.113249103818689 0.026675966629289543 1.3005318561018633 -0.7832438977732704
Ni 7.596450725935001 6.860421499313378 8.458343495180403 -0.3253736192813622 -0.07197366212482444 -0.45963894035655684
Ni 5.422531688156141 9.085172473689523 8.390450627902986 1.3538696482930554 -0.20759112635253926 0.8590006810896109
Ni 4.622946167533899 1.328535186649768 4.261700725238758 0.6158010615048427 -1.7303292876169554 1.118155538452055
Ni 7.409140700041817 1.4778405509456427 1.3007408862541197 0.39978571564435017 -0.6995416343576082 1.133207804799487
Ni 4.799113024554016 8.167278497651733 11.07357318737133 -0.40022074629923976 0.8131242302724706 0.8410644083261642
P 7.722908383775772 0.37424674159489973 9.52540904263843 0.632705293459349 1.641422082961586 -0.8597810108990611
P 3.0109478512894388 6.237227383194841 5.601037581463634 0.699139513823183 -0.42337661559041273 0.16276934205215837
P 1.945601027695376 8.156004342746574 7.873487119426495 -0.5539698871306588 -0.5206036529653874 -0.7079820518154775
P 6.06860157916523 2.860239065221138 0.35520792183016264 -1.4500980692001866 0.31317759143580254 0.7049422365478891
P 1.9987439321445908 8.197742106258534 11.189544477728532 -0.2746133580093593 -0.5352975075321361 1.0295244702762076
P 8.221282167454701 7.230148287186549 11.93567179181002 1.176530121736206 -2.6880454177016095 1.7649476490217735
P 4.212136546309231 0.3585480656485376 12.64372988689267 0.49024638082976857 -0.09203906541613181 1.2988048461084276
P 2.767959405611524 3.9788036424256106 2.0697421039971298 0.1511754665669719 -0.7483288310636402 -0.3683719772197592
