# total energy = -340873.3841385376 ev
CRYSTAL
PRIMVEC
9.16504764814124 0.00000000000000 0.00000000000000
0.00000000000000 9.16504764814124 0.00000000000000
0.00000000000000 0.00000000000000 13.41397365026743
PRIMCOORD
 96 1
Ni 7.6971460960849605 8.9875114802726 2.1747943123027587 0.6267151373141852 -1.2838474534676472 2.2063394702426837
Ni 4.155350104425093 7.371970206609867 12.53339966569376 -0.014276050303039928 -0.14537145829068512 -1.129142633591178
Ni 4.586345633693857 4.275338907835688 9.894052918774882 -0.14920085933910435 0.428449659237946 -0.26074791288117677
Ni 6.229409545352467 7.923916869289084 0.3242832138371324 0.32711605589376563 -0.7636292088661365 1.2510689734850453
Ni 6.4606528617940135 6.587194674251246 9.282389555333186 0.4546448295760751 0.0058898831218737275 -0.6573547165769131
Ni 8.43345685664132 1.6355027473740278 7.460315766615679 -0.5210841921462316 -0.39872410714905526 0.37819719084029707
Ni 4.692742671487442 1.0565558544131426 4.719653084302458 -0.4009134014908902 -1.1272078784623103 -0.5596273425267523
Ni 7.792160144737394 1.6415150186112222 11.980959006947952 -1.0988912909058042 -0.2596415671908754 0.1395779915373596
Ni 6.512041283786315 4.156312434424949 8.647800741780635 2.331821902918926 -1.075383437591851 0.02126302314383435
Ni 6.940406444388807 3.769089172578198 2.0661142611476118 0.7590248773249058 0.13037652754374968 -0.0010875766372239334
Ni 1.5202431085341523 3.755259115723127 13.121482278119943 2.3050387212878105 0.7497611926347926 -1.9729781769045762
Ni 0.8778942491637179 7.1884126329230815 6.236022127208619 -1.9492353247616818 -0.8659830259447149 1.070942113991046
Ni 5.63939127486943 9.083322888067771 9.20242818088802 -0.5906549012565182 0.034485692481695446 -0.0694732643004739
Ni 3.972259948166808 3.9089386341762946 5.7929589797416625 1.6305990242041533 -0.6126262633212869 -0.793538337720743
Ni 2.9373244410837596 1.8565270357218677 0.6705002196328835 0.43878497972568303 -0.16971337747015935 1.116907782087883
Ni 8.393744705313935 4.211797632702351 12.99155398056798 -0.9957530302527173 -0.7713790280148843 0.5744929467846752
Ni 3.262931087796884 8.7756339094472 8.46314427888449 -1.1264085224894667 0.19356627282835695 -1.6214266136762656
Ni 1.6295363013749218 6.154448620887506 2.7791879599741174 0.22215719709217227 2.1201244677074973 0.6797904198726099
Ni 6.04214929242814 5.25996746854532 13.559649457149538 1.3472017493545767 -0.06693224304617505 -1.4762377037100316
Ni 4.463854772283637 6.393857994756401 1.308832038632491 -0.6056565168716731 1.0252132444953632 2.3169737821625005
Ni 2.3132488536534446 1.392418189410445 4.582642954456317 -0.05486014237298939 1.622049334861929 0.9332346000035218
Ni 8.432402876165286 5.038759879245128 9.981002642028525 0.28564287635064356 -1.1243827503086892 0.5924986393334764
Ni 5.214939589599686 1.5053682362506666 2.215384475191916 0.12978028872064745 -2.20016136645643 -0.7707298244666597
Ni 5.156017498465656 1.9351539792338979 10.730534900278139 0.2314057122736337 0.03606512115367337 -0.9765947121567118
P 2.5553894117124067 3.438634215675324 9.704996316517493 -0.043345971085802765 0.25711648677617654 0.24987188939862126
P 6.320491788576916 2.0116271365557745 8.759686726592445 -1.1366996200028294 -2.1176508093560242 -1.5889134715399087
P 0.5439400770804154 5.667802922484222 4.780994748007553 -0.3102696737603882 -0.013568996933686309 -1.3705406811908332
P 3.0564883902087647 5.177729496271927 0.3450356311578329 0.5183428819556686 -0.35040793654217073 -0.06748374467427087
P 6.047575000617803 3.0747268349679366 13.088335966905861 0.47257158925782483 -0.20794542436816443 0.696886199012632
P 6.249041077349526 4.32191567982871 6.020647174212314 -0.768351039821838 -1.4911627004509802 0.37396978302251077
P 7.229582026821675 1.7342744655497067 3.306544799895112 0.2797229113217828 0.4984520565690125 -0.3043119135150566
P 2.996237367170172 6.408173799135209 7.844196535596264 0.36626315840687246 0.6151184336155212 -0.5848154117566058
Ni 5.520529772315809 3.0244565487849915 3.976733407908995 -0.005308299586790858 1.613497074416544 0.049049192118167134
Ni 7.742448926459127 8.236188371718491 7.681136590906408 -1.1231725320506722 0.08748281350401708 -0.6771784361710594
Ni 4.869069022603883 6.7207477481360005 5.278680662771088 1.6115494637718695 -1.0460654053540244 -0.7062725253235383
Ni 7.819151209971445 0.48951802432666375 9.775809140430693 1.7563799619574203 0.4769532632652882 -0.08359581974478505
Ni 2.0288299309341498 3.9969139262583524 4.407831585711078 -1.2117763465330098 -1.128288513120999 0.60082387136972
Ni 1.1596443100167462 8.61132293575753 4.122637299963327 -1.0364615637156729 -2.0295686717051113 -0.42858052838885546
Ni 8.160787524967883 7.133339861788475 3.983185601431838 0.04169429441499271 -0.42999694912040787 -0.6060334405951175
Ni 4.308580535544994 2.4570576158223765 8.140538268761393 -0.45473327552482334 -0.27944548929068 -0.3963872314857625
Ni 1.1381980985913875 0.15470783679587036 6.489506264703977 2.6620037422222094 3.024355738500134 1.2424254388774345
Ni 4.9915873791569565 5.2563747698791925 7.619365086468043 -1.7620669850398685 -0.7508937635773391 -1.0672878050679102
Ni 7.10714615569716 6.3648964442845495 6.215552909859304 0.21998641469309857 0.6672336662535218 -0.09324259880592974
Ni 7.993360435088203 6.325349263814284 11.84024619786427 -1.533054969809392 2.1716892271586663 1.1089507320243353
Ni 5.563880447547409 8.112936811356004 3.1593257235076435 -0.057720751750236075 -0.38893154653866563 -0.7256211050534793
Ni 4.74074919090882 3.7498883978191695 1.6725075436351506 -1.5927984084166116 -0.4947506964580254 -2.9575278822423066
Ni 0.43292660480180856 2.8047062020560087 11.248730358600508 1.636881514778755 0.5344323313183634 -1.4467206680875213
Ni 3.179400843809398 8.211488568388859 5.527817818181385 -0.18725010080234203 2.6243910740757577 0.7409433372328466
Ni 1.3413597091323801 5.590165804114901 9.086491245029201 1.2395620012867101 0.8834732123096785 0.5391392498757296
Ni 1.0741069206009894 1.0122520142293037 2.383153421347734 -0.714057568585596 1.8366274340552629 -1.4304188456037044
Ni 8.840155844675628 7.306394290905406 9.594492420886429 0.40433219736445203 0.57103584147401 1.529547985097398
Ni 6.49668982902671 5.259509216164437 4.180988408630776 0.551324993308644 0.19675906873404178 -2.2261315652679468
Ni 8.675386618605074 4.269904034598407 6.049970744065063 -1.7035589615016467 0.45636746869413664 -1.2546083540968715
Ni 4.005529071018967 3.910707488366506 12.205709803657138 2.865705046602039 -2.767169574828286 2.8059240698886643
Ni 2.867202661760931 1.8845537513367165 11.693040869048227 1.2495417382072416 0.6668590565229224 -1.3677903721392057
Ni 8.339551778750625 8.847387067245974 -0.03739706029915933 0.10285621063629381 -0.8040670051662088 0.13311038153514493
P 6.356024678190641 8.417702139786536 5.1977404612403575 0.058395152109441364 -0.3013258343035391 0.7461613910986763
P 0.4985061865253172 8.827590564391796 8.429435233746684 0.9428600389084278 1.6458042711896819 0.16754208085045338
P 3.5218895082342794 7.0168062813297425 3.5669769599894297 0.6083111808857007 -0.009971509390415084 -0.033835460492206246
P 9.206473632906464 8.620872915375147 11.4990085624392 -2.8969128396634107 0.04288780050246162 -0.2650267427621887
P 4.398425497341058 8.820130215631009 0.9909157833753574 1.383615254986604 0.8932112655330489 0.12947638432698347
P 7.964930457378177 2.804082978818007 9.85081955615279 1.6714271139641086 0.5003122497062028 0.6228168307010435
P 0.723114008491668 5.5330217322187 11.821560498781354 0.9794674057188164 -1.1849129464832624 -0.25541313093182466
P 8.247406390002524 5.912995441399869 7.933493427544792 1.0975383764223356 -0.5621367392121673 0.7014540208889726
Ni 1.185618054965236 0.8157332302016019 12.670920288692205 -0.5886453270256572 0.4410948588057822 1.7652160721918118
Ni 0.22953403506085088 3.8092045860007597 8.17811038147005 -0.3575861994581648 -0.8268248676880147 1.1597017373249576
Ni 2.479695283438033 8.262162116666982 0.617327362869421 -2.2502824514825375 -0.4520053350706989 -0.5022950844641865
Ni 2.9084820362309376 5.3018242410152405 11.187898271542954 -3.0474465588813255 1.9347900958706292 -1.033917971358213
Ni 1.8212232722985853 4.061536677010576 2.0768987726793293 2.9064822285194007 -1.8416953354964734 -1.4913277652739347
Ni 1.503746022822338 0.4995702485537292 10.355989648800918 -0.004247205312128169 -0.6766313054183379 -0.541565599929035
Ni 6.53066466054543 8.403358840264875 11.41651213582299 0.07943268950603095 -0.048657355996387174 0.08988525229792263
Ni 9.118296709776816 2.1236148533961403 4.454834532418321 0.09474797970686263 0.020722320149015927 -0.3010540686993912
Ni 2.6055130571334693 6.0925020640396435 5.415945580941001 0.6166438691211121 -2.748002772091848 0.23530273333519475
Ni 5.143571363800854 7.416548998222236 7.498102341438591 -0.6419916038572815 2.0696506273276616 -0.16530727798266368
Ni 7.413277076222727 1.63904045575445 0.9992807223360088 0.46978657031351995 2.136196176458379 -1.298363644805951
Ni 1.7206826999326952 7.438380141647537 11.323365923875038 1.2956251628288655 -0.6729309737486153 -0.01613547210928189
Ni 6.874005674398755 1.9192342915219973 5.5086894472985355 1.2122172907251705 1.157965214249825 -0.08955280865916836
Ni 8.981939131321054 4.567447305506212 2.86209956324741 -1.5657874270454066 0.44153091790193627 1.0781507159243433
Ni 6.7137731468989506 4.032281845014959 11.237610406325981 -1.4636950911583309 0.2736535651992513 0.41152691534067837
Ni 4.115757098716738 7.1272817653131915 10.049963209818193 -0.10367202166936983 -0.9097678843401493 -0.5012509594703883
Ni 8.420121712357602 -0.07057911519895013 5.439674805727922 -2.250943482105304 -0.020524088095280783 -0.712409748569528
Ni 1.7627594335454393 1.7385087175490723 8.543185389243929 0.10091579908047135 1.0016130885779202 -2.0590633387301183
Ni 4.07669566577021 4.853231820320541 3.394526507510503 -1.185091895263288 1.6567427724790564 1.8373411722928357
Ni 3.159393544860014 -0.11095939849766252 2.8750836862073696 1.0157739534593346 0.06819516891899867 -0.4847275078940684
Ni 5.586683086020184 0.6504580935025528 6.821663170949454 -0.0037214147156452034 -0.9942836447960425 1.817165211565593
Ni 5.245220906928482 1.085242453456464 12.836743495238792 -0.2515163669805797 -0.7899081971673235 1.291193352309757
Ni 8.955635444658327 6.286526122105815 0.7834777616159581 -0.35777363287862257 0.5825057897868227 0.7203313174094497
Ni 2.6403402380806327 4.196207886704686 7.572147677646544 -0.9481269437343219 -0.08344103933447565 0.2187484285209394
P 6.907659729250856 6.162165590981589 2.074967697146285 0.2121422360583314 0.15376765277418034 -0.2849077979568319
P 0.6770550616890444 8.105769744118982 1.9584405322208855 -0.9903529422830687 -0.4718449955044454 -0.31680567510669305
P 5.8016309477975065 6.273016841917363 11.239957575020869 -0.563011942728269 -0.6269377948479525 1.5245502747724906
P 0.2831843908051943 2.968412282602912 1.0743791225152344 -2.2381478730025326 -1.780505137140398 1.7990777579362627
P 3.334051857310039 2.421359755351534 2.9298402631991665 -0.12794580661506996 0.365460459999919 0.4072941082062534
P 3.4141085482504265 1.0121970239435976 6.550499656599601 0.23865390919561477 0.6841219573684283 0.8061226021436568
P 3.8274521958075494 0.031117169671528715 10.493362714532719 -0.3188047078145929 1.0550208147750992 1.6586353615160792
P 0.9077319781878193 2.6835167774074975 6.421792143390312 1.2505763501193428 -0.48586624948420193 -0.5142620270180757
