# total energy = -340890.8003704875 ev
CRYSTAL
PRIMVEC
9.11365046492766 0.00000000000000 0.00000000000000
0.00000000000000 9.11365046492766 0.00000000000000
0.00000000000000 0.00000000000000 13.33874867732651
PRIMCOORD
 96 1
Ni 6.323159888491504 1.7765694062124775 11.568883086229304 1.5257448093012238 0.638871313060745 -0.5548075525406058
Ni 4.679057388269733 0.37916339251095643 6.12117861542518 -0.3297156983001418 -0.019023592290354333 -0.571679645705596
Ni 2.5791630130973457 1.561541942851987 4.635882381703488 0.19093911961815502 -0.2531734429680285 1.7648034101344252
Ni 3.4006947851455225 3.996071326910976 4.724237397885029 -0.04533574782232192 1.229923449755682 0.03783044058421227
Ni 5.164796717852993 4.3463818141810675 2.525612115752262 -0.6910680496689582 0.6482861786167414 0.6533350538945587
Ni 7.586275354792705 6.605364067645424 2.6183562658811805 -1.008173258293941 -1.713143005645656 0.26800639421580297
Ni 5.158371594445806 4.73470533653112 11.420890165718767 -0.21544378962773864 -0.8713437760359961 -0.026120865456767915
Ni 5.82856209089153 8.028168913153308 12.466728008419427 -1.357409543125514 -0.7451049248097038 -0.3079646797762954
Ni 1.9107496784451001 6.533265980731597 0.32133819321130497 0.21411812883777961 -0.6865411083328821 -0.6460565179552744
Ni 2.6724229958288834 1.704936115460021 0.12742614605238792 0.3645888560282431 -0.35796749405698347 1.3580646602110096
Ni 0.6235595937149316 8.759229479438174 5.122466546662415 0.2627731708413217 1.9045621502240235 -0.5882023259509677
Ni 8.546389292131193 2.0569326280213596 1.4670087831843022 0.6926757604757103 1.257664624424692 -0.6519556570485288
Ni 6.849509643468267 0.7880299938285802 4.7606263804952595 0.47258187367046994 -0.08162275517881427 0.3859855765364643
Ni 0.711210124734238 7.697780865270606 2.8558525225013534 1.1364772195793782 -0.27204816838534435 -0.398807668001797
Ni 7.875515271918749 3.979821688563441 3.6733041133447113 -0.19654592428197118 -0.1696303308380498 -0.46189276938774004
Ni 7.527337378800831 3.8012761670454545 12.746081437783605 0.6937437967289085 -0.6290353008069296 0.5073994955702875
Ni 8.096284334919703 9.10539325585682 7.32560035156048 -0.6942024815328818 -1.0034827947968072 -2.015470541740832
Ni 6.608426254120339 0.7577517136928441 0.45424528850778034 0.5205524880124777 -0.3518773219988456 0.42269527325267203
Ni 1.8743406458043796 6.461678258230255 9.30325698175241 0.6095910760393889 0.5339016556258741 -1.1402284590916942
Ni 0.16076114447290438 4.845199231834272 1.203056511331902 -1.1934613502739058 0.34915940884705027 0.8420694525519111
Ni 6.3790174507080195 2.097461030562857 7.02809344231719 1.3259397546520069 -0.09579107625939631 -0.41900085512022034
Ni 3.3889381763579056 4.159597552861526 0.27677882317619246 0.2827133614086744 1.522012338841985 0.060480316773244225
Ni 5.932029361872781 5.648695090091214 4.753422951359033 -0.3385104137736364 -0.3531749577643466 0.2982160850299638
Ni 5.24631831909736 2.9302481606363884 9.667391053680687 0.4807541250686172 -0.2342866333658546 -0.7242777036517074
P 0.10871126531954198 5.916417679040853 12.572383466819211 -0.4694579833295076 -1.0444618083123303 -0.36426926790529524
P 4.234138098035107 6.196234081836357 12.547894177305098 -0.9060287290126912 0.9060526402720912 1.2205862315151559
P 2.4316221296378657 8.18467762843218 1.5250991897054416 0.35779934391023543 1.1654638366197154 0.2512443442661157
P 6.321966000312297 8.014407301316641 5.869302841483222 1.150455021915709 -1.1916824039966123 1.626224035064909
P 4.665970186549564 1.014285474263756 12.560539366989454 -0.9664884769606451 -0.025287828032511287 0.7624279894691837
P 4.19228821621128 6.019347244658949 8.183469158412617 -0.4400707884166421 1.0999140757433639 0.8129969606659869
P 4.6770706125211285 0.9712325906104984 3.8084923552919934 0.20816113992339633 0.3159443555476623 0.6884108145517693
P 0.18662477244063921 5.7370154744019075 3.5672749952857865 1.3030880468648138 -0.956010974468089 0.3502824667079
Ni 1.7145054481941278 0.9683526771400435 2.467948228061557 -1.3481108914324074 0.2338814275076359 -0.24644203778146587
Ni 1.95926163858191 6.6992255512916765 4.719155626520708 -1.0920945796989452 -1.1938069065387826 1.4180461829709643
Ni 6.073710168238898 5.931245587953606 9.386851027057478 -0.6161013663540809 -0.5532093548155506 -0.5285072240831802
Ni 8.595931094743197 2.405475067148197 10.320602819761037 0.26349462238837845 0.8758272657286464 0.6751143545531793
Ni 2.318913617330534 5.261018636906992 6.913259626777865 -0.25798809074785245 -0.008254012478676107 -0.1188800968683759
Ni 0.15660987679634666 0.21928262664958986 9.466562657367565 1.1742991755231582 -0.20453177070092518 -0.20992671646425135
Ni 1.3617525026642838 1.101056538036547 11.536629878090253 -0.07150880667326394 -0.03100287613941757 -0.615601801009843
Ni 4.237446353066041 6.700519689623338 1.433354807005982 0.16179617950561168 0.4357845023364624 0.21320744409805217
Ni 6.025890845519033 8.137313988223463 8.080613413361325 -1.3790281498365542 -0.6265840110529596 -0.4328776131023125
Ni 5.459185847355008 2.9487762115396636 4.843286276652473 0.28649211172481626 -0.34083314836954204 -0.23936996142603292
Ni 0.7561522680787149 7.660187058100901 7.250930392553735 0.9144367505707285 -1.3716076890027669 -0.011709318017128222
Ni 5.378165496872905 4.584430358004751 7.089904952224364 -0.2890117928228764 -0.5857124696495783 -0.19094040516973568
Ni 8.3369576100076 7.08477852397395 9.080539420333787 0.08773015362813279 0.6944307954936041 0.982009969635012
Ni 4.48111801907729 0.2684234286517838 10.430554452875922 0.35432346954649296 0.05585978728209734 0.057524319468713836
Ni 8.103711959851415 7.181374102687091 4.937111305697835 -0.6228921640236691 0.27421663679157293 -0.05505426066166647
Ni 7.277030975427266 6.128756615585569 7.1643087926446 0.2504457596242203 0.010665707243962276 -0.986559279568591
Ni 2.4751762640533856 5.2302509537542825 2.4017749251576754 -0.4239031775178441 0.5100035088520378 0.8544544564798252
Ni 2.5083408372147327 5.058631806405746 11.329105682958325 0.10280710256591326 0.9622194172716462 0.6667785809939742
Ni 1.2178935338948789 3.538520517467329 3.7601535545094196 -0.5488204817192354 -0.1841984584602118 -0.43392688030243337
Ni 3.6103087402735756 2.3682913742385243 2.55078219493803 0.024378685954680596 1.790569977575568 -0.32472313018155685
Ni 1.0064568487222343 3.418931199241663 8.295994486350466 -0.05838229659363494 0.35069821408907986 0.1540856982352314
Ni 4.000072219358856 2.553945542930419 6.950702147353869 -1.5604163925414802 0.6504975844457636 -0.07259921152396528
Ni 4.104387059810842 7.069540500801162 6.279495478908287 0.32622079777300594 -0.4081335733884133 -0.8658608985445538
Ni 1.0335790717857596 7.522753212738682 11.374390499551184 -0.36038253125637937 -1.061770731904423 1.124266536445799
P 0.31650249040300305 5.533088437012982 8.029165946487701 -0.4881591592834366 0.057516606159229974 -0.5219167153498561
P 8.554427531627843 1.9124721583372395 7.855882646608451 -0.5209402103691997 0.7086561950643666 1.3761603413704557
P 1.688814068215607 3.1933592425732096 10.581469209647942 -0.32045098516876425 -0.40233187910497165 -1.1935487677813894
P 3.833985057695654 6.125913156716007 3.959193852648796 1.902970123146555 -0.4280488242551015 -0.46976934392233927
P 7.0566720266863445 4.013724467392848 10.69072638261584 -0.2616403427884591 -0.04026450394700162 -1.8526312656826867
P 6.570477014591937 7.95723737346802 10.232833811288831 -0.5691589361662713 -0.20534732462368507 0.5944022841140925
P 2.476862289344633 8.643394985104367 6.224540168063844 0.16343628621219594 -0.3058401772341249 -1.322785011073109
P 7.0465741022393065 3.881266675052364 1.6177102805411046 -0.21030081197421846 -0.49465093765536744 -0.268356321356054
Ni 5.222559032966106 2.7119944650969705 0.5497408496390098 -0.024949727966802192 0.5954338107024003 -0.4515088550502547
Ni 1.4906468577675904 1.138878186461826 7.346995556823898 -0.319288846539863 0.2752399358497647 -1.0349883216042564
Ni 6.979989773710369 0.8617621582273839 9.266322091493826 -0.9714383647667528 0.7430763244154492 0.7930793958064535
Ni 2.8450173037512774 1.7502036161174575 9.138136778377865 0.136345600642991 -0.06373250516195475 1.311607911410367
Ni 6.246887749775562 1.9879149548828925 2.6310014555655354 0.9650975101503895 -0.008088176324773167 0.11558522816718803
Ni 3.869555634515862 6.990989949529481 10.50463749280831 0.6979539781555142 -0.036025526164989566 -0.19604301650362366
Ni 8.050788993006693 7.405323829615857 0.37274191456385963 -0.05629738904014821 -0.38655019079068265 -0.2616128319846333
Ni 7.3686869557195624 3.854180906589731 8.431970147677013 1.0369274476084982 0.18186878188577066 0.3306415525485209
Ni 3.230251298675747 8.47710732313626 12.626618799296038 -0.13334049526808003 -0.5866005286814865 -0.1135262887556303
Ni 0.2788913672978743 5.059998853939189 10.31532054809181 -1.1846496655195469 -0.9803750051347503 0.6826374024031018
Ni 8.990032671334605 2.1859910288286795 5.509450362429693 -0.00630125962767947 0.47734252828390694 0.7228425138670777
Ni 3.5648133983605654 2.9039826206938213 11.562653906301911 0.836216850425876 -1.260533461332055 -0.5135274628448963
Ni 0.90325843042256 3.2443865701715557 12.729674133287212 -0.41812513738348633 0.3132071591221573 -0.2548978818583029
Ni 3.4020253780780747 8.512677899956469 8.24461354912347 -0.3274960649410037 -0.660589678574443 0.3641021461998116
Ni 5.576296252720029 7.955970576087029 3.9275412340594373 -0.6426490349356223 -0.4122586513003803 -1.6309121845691978
Ni 3.1585542123717296 8.431138071411656 3.7070783897059743 0.14754918266829428 -0.0665864296709821 -0.27014503782536053
Ni 3.344299517565853 4.210342357302961 8.92403617324505 -0.10708850355008653 -0.049263107901186126 0.7992970945813912
Ni 7.237960756921442 6.134343283172243 11.489677263506591 0.8913405308728971 0.05828922265919639 0.5663386931086569
Ni 0.691952981813126 8.995974771279975 0.37215681821954566 0.49043252869864573 -0.06628561060111166 -0.0007348212834955087
Ni 4.411371253920987 0.2951902193566138 1.5839232450695293 -0.333021108524291 -0.8874985314189876 -0.09479940177008835
Ni 6.339081435431014 5.60266204281505 0.577685123952646 -0.8013478064628328 0.8313214700067877 -0.5368275710234174
Ni 8.088009140517258 8.638911069194672 11.650422914774117 -0.2078991445112613 0.16887622628084467 -0.8293178093131975
Ni 9.050228331057248 5.11692271323179 5.758283999927227 0.8404902809902494 -0.839735919322728 0.0658274400177705
Ni 7.949755066634972 8.856207831460678 2.381993747348743 -0.6766104794827316 1.6951990195727256 -0.008726324129404326
P 8.56498113858603 1.4688105518333812 3.5182417343562236 0.6531064828235204 -0.018807876735122447 0.7046635289652058
P 1.7667631185725738 3.400667444194854 1.4622204713571596 0.34524490428399246 -1.7954463318312626 0.3961553179806145
P 4.9298650424055594 1.052535464249514 8.351643345976875 -0.3236329824411717 0.8601170540822413 0.0833875603887209
P 8.442274951984112 1.3116456537384562 12.670517429689987 0.22193479666872098 1.8648249795354013 -0.3800851518916293
P 6.13448910157581 7.9378070711926725 1.5318214181098961 0.1778869144198872 -0.6427955878158156 -0.3335605259675287
P 1.9032947125627198 3.1857128900361467 6.159553462418993 0.2641008885138097 -0.21528283856984212 -0.5239530290535944
P 7.203921273338691 3.9276369273867786 5.791817675922604 -1.0530287240457348 0.34949288092706904 0.9204713868005825
P 2.157328598877474 8.656044731613834 10.114666222497947 1.9282103857705826 0.8804004869216258 -1.0158585427533409
