# total energy = -340891.19526317855 ev
CRYSTAL
PRIMVEC
9.10173027356100 0.00000000000000 0.00000000000000
0.00000000000000 9.10173027356100 0.00000000000000
0.00000000000000 0.00000000000000 13.32130227235097
PRIMCOORD
 96 1
Ni 6.154171130978974 1.812400185162626 11.47203890473626 2.770916700575544 1.4857109333077896 -0.5704532294976628
Ni 4.542946483501591 0.05616131465108934 5.954821400327149 0.5200634641912011 0.8500115902171232 -0.4348851304506446
Ni 2.6845825619542905 1.5488322884839265 4.815130987949671 0.18884058521791347 0.8076374961262864 0.2903726777261451
Ni 3.378853422882341 4.483475779830806 4.829357902076976 0.4000549101453368 -0.47871421182045293 -0.7600180944761105
Ni 4.935067214377748 4.4541227006544535 2.664446804725812 0.6574927848166741 0.7147720781541174 0.3047137769391655
Ni 7.144120791945157 6.017344824232275 2.644731547422278 0.41563168153767127 0.064260866861599 0.6811870431098204
Ni 5.4161846609706075 4.4150580755924675 11.687044521121805 -2.001414320758082 0.11018154065311347 -0.02353022191145625
Ni 5.656898113676649 7.9918286168282275 12.721137572477229 -0.7438659101962802 -0.16476914609100657 -0.7420854212570897
Ni 1.7305756326679265 6.558342552344894 0.6218638684407223 0.054738786303776696 -0.7635518186609818 -2.256946236655958
Ni 2.7535190648013264 1.3714486729589883 0.3052820353370369 -0.08516187868032431 0.17365050774103644 0.42153544861661596
Ni 0.6369081179199757 8.859150669812088 4.46572649620234 -0.7352198044855079 0.9128475517067375 0.7358083299991264
Ni 8.736841622378966 2.3223519123231395 1.2506268482041345 0.30614022497304694 -0.5118050808371509 -0.7091336489214175
Ni 6.860428970286949 0.819339552890249 4.690204282975117 -0.1027320263536037 0.5337892984177259 1.60926683838528
Ni 0.893615130541889 7.5583860318557505 2.49005765836336 -1.0821657506210072 -0.3718969596538821 0.629935701134012
Ni 7.608663988249601 3.8230178457679176 3.818084708120294 0.765286027743269 -0.3623124012892406 0.41654056650518584
Ni 7.683780565751132 3.877245952971857 12.401519402253163 0.912168523361842 -0.34442600792712297 0.6930807092236128
Ni 8.139349456298094 8.975625508329848 7.004300926208969 0.8070759671958617 0.17937275493679433 0.4414627836681622
Ni 6.978669544420279 0.6470920435914239 0.47847703472648473 0.7724709755274825 -0.36522160451623553 -1.3030649069363622
Ni 1.780434909482828 6.638437776143932 9.034054063918248 0.8009135471388916 -0.12983325344576993 0.3050837586840746
Ni 0.07033361839853054 4.665756126083458 1.528193205587711 -0.03774405151799306 1.0654947177232295 -0.31814290586087796
Ni 6.36095333433015 2.0984220496949875 7.0146113659271006 0.9002545455330755 -0.871235532592906 0.11411532848988089
Ni 3.6527972917350064 4.098090329137751 0.4948583283393835 -0.8057819309747866 0.6480380671616774 -0.4849468229937261
Ni 6.0128758748134885 5.6744280456126654 4.952980329145803 0.014541645259600762 -0.19709948279259606 -0.8945166146080337
Ni 5.119131499705924 2.9680104334431605 9.186396089757018 1.3851319487414469 0.14812819510021585 1.478209739834738
P -0.053641955793410495 5.799176356679668 12.398522202571684 0.8248363765030763 -0.7682209420018768 0.4848609481481392
P 3.8605169732738305 6.1076885959856 12.555553439694686 1.7955759154305913 -0.5774983092699022 2.171169092989138
P 2.5863384885807883 8.494162195997857 1.5563940057489543 -0.8595899779341777 0.6576221113056868 -1.695603454099996
P 6.6452549718968275 8.04043185490628 5.888361478206899 -1.4494223832894007 -0.9756251491545908 -0.8455666670718922
P 4.78219455768131 1.0544627230443169 12.814559549308832 -0.7473155593077775 -0.4924189630010552 0.6324409840543689
P 4.039284051755298 6.2011633628510685 8.380617204359744 0.20206659698988427 0.7329950289200473 -0.7178810560967444
P 4.7041108162072245 1.199316755630873 3.8355090599885764 1.0172076005820676 -0.23541689031555585 -0.10246771694862354
P 0.32341086110555106 5.466189565465143 3.6155475516304674 -0.4680490187971229 0.2330090522050116 -1.2141561596190962
Ni 1.5644235519348078 1.1741140653241076 2.5869965436581372 -1.0633833278071816 -0.4688154646495023 -0.6003284197905403
Ni 1.8796801731538182 6.670667001993068 4.555339399038497 1.4896200385542089 -0.34049684807604585 -0.057119884941443565
Ni 6.183214751336102 5.8415722149132945 9.250338473365584 -1.487081074182439 -0.516256174629969 0.5080109039020412
Ni 8.983025214801282 2.4361781474175452 10.089873854902162 -0.14178219827753002 -0.09037556167077984 1.6141519343917234
Ni 2.6054248163429 5.292819812860134 6.866811103346936 -2.045388412346187 -1.0729262343006103 1.816323432390588
Ni 0.4751558134578178 9.038345529602482 9.268135996162929 1.0482228180166593 0.6590729848196004 -0.09209074458967365
Ni 1.393866233892742 0.9130036357392426 11.60744989247151 0.1199267929653354 -0.04669971804938409 -0.8161738157320717
Ni 4.1210175869502255 6.874882517490684 1.4855252056277666 0.2293370026700631 0.12739636186950315 0.24749053365063828
Ni 5.693432457804983 8.074918309789753 7.949646649249064 -0.15503906328743622 0.24309060481072972 0.7140783945212025
Ni 5.3370724240091025 3.0050726779101695 4.9532197046442015 -0.44520579565036233 -0.10195786719174055 -0.7027259456228607
Ni 0.9746405511445935 7.3199571133739765 6.605367550444907 -0.5845374755048708 0.5989927316982522 1.4004050728504334
Ni 5.05304383834174 4.687472853808971 7.067830091276573 0.73668739016997 -0.9484606729246569 0.282574521837965
Ni 8.087524205808124 7.326328324357991 9.14331487125611 -0.13417327558202055 -0.501318322373214 0.17009492917929417
Ni 4.589975122293595 0.3931301127306231 10.61722444908702 -0.8065931140221722 -0.41952458883417426 -0.8312867601141103
Ni 8.282956551877778 6.9672013646490525 4.682650757267069 -0.7415197785616069 0.5054122899369295 0.49353070800799514
Ni 7.075830511926498 6.1693346131209275 7.059130657764399 1.5050872809518723 0.034088457043276774 -0.3812760868759369
Ni 2.3279312727991406 5.209693712978701 2.4701294205783606 0.52467190949749 -0.36920270065117056 0.7384398540847025
Ni 2.2237892784004365 5.259352751734104 11.666303498849846 -1.5426431277184594 -0.06596293715437028 0.296374918056167
Ni 1.141611787575657 3.3599491297197726 3.812610017539031 -0.7027269740641252 -0.09755099637329652 -0.21797992578603106
Ni 3.4412275784158424 2.5883681743656957 2.6411745913472022 0.8439332452335271 0.7051864913482113 0.030037426902354718
Ni 0.8530423488226876 3.471982324008678 8.125354636285207 1.37500514472009 0.9936593809484823 -0.38399194314520313
Ni 3.3555620958707797 3.1291656644188164 7.7001117998491555 -0.5039313345160288 -0.44907402035651695 -0.8328047394205335
Ni 4.092938749970676 6.6923746279886025 6.176754343398311 0.965434324664518 2.22930919166498 -1.0281566433944034
Ni 0.9978226573964288 7.371764160403991 11.256846702886184 -0.6764508139764157 -0.2784425019474624 0.4070992185866279
P 0.15336141959621094 5.723750320358914 7.986413087491816 -1.0224657636572132 -0.39370608510917354 0.2222219888918366
P 8.617936621957302 1.665270720081779 8.168901863360945 0.1820896396473251 -0.22514404763463805 -1.524557473861342
P 2.0391424823537214 3.3089248314677944 10.437933110958868 -1.7123436496728122 0.20526710620505295 -0.5143029075583401
P 4.139830862813023 6.338308230146968 3.831419652709837 -0.6075961570965471 -0.7731309777089846 -0.657708500371906
P 6.966718972960264 3.9048332965326393 10.360535639925061 -0.06748888688059344 0.24893703628917777 -1.257516528882602
P 6.162635739857736 7.951753699738778 10.34925313544537 1.5198065894399182 -0.6495786721759199 0.021874688585904262
P 2.3364140851378568 8.699069442973737 5.695975481160603 1.0249425073324798 -0.103074497294687 1.906349066921117
P 7.053940851331421 4.054784297906408 1.6829198846804965 -0.5185354575824489 -1.190418192572208 -0.3214588576079883
Ni 5.744283823187395 2.944655394321759 0.3547253630919819 -0.2631380103799081 -0.35689971491410144 0.32674941658296625
Ni 1.6393489931068173 1.3240741684278525 7.207517071755093 -0.7955571679229847 -0.4842035170697983 -1.314707119160981
Ni 7.077587145812092 0.7793001325477094 9.387867433666518 -1.0157811525481861 -0.41679202039435964 -0.14678350814686333
Ni 2.570137409221437 1.526633169069625 9.353565743901582 0.5634641997743393 -0.18126971484919105 0.7895137899423823
Ni 6.737501005215379 1.769749478489638 2.4760437247175213 -0.9386526856952995 1.66499164275141 0.9494528616345971
Ni 4.022582377247203 7.1156323771166345 10.655762994156325 1.2012546210660795 -1.3757420228861146 -1.6258419691351418
Ni 8.111143195098864 7.080645327084418 0.6002354274959888 1.008156803233709 -0.03489964009066248 -0.5369098463245786
Ni 7.6312908889728295 3.9207340188027437 8.159137527441445 -0.36960070742053763 0.23973351541303872 0.5923993947514508
Ni 3.014110695777493 8.175665358906976 12.520305170012124 0.08232878010690337 0.8899817028521575 0.8394510410924576
Ni 9.171813297987606 4.832845685004225 10.270950042278834 -0.09418953610023133 0.8948449444817298 -0.03466361282045643
Ni 8.718774688374296 2.41335100863482 5.9986353080912185 0.2722988509435697 -0.027597450002294403 -0.680152431197719
Ni 3.7125410473051073 2.6835631681968484 11.57169556660222 0.11574206546002648 -0.3307346264829594 0.2063240867146576
Ni 1.0316173808016367 3.339361016511429 12.526579902658384 -0.062433326734556996 -0.37527436076654724 0.18120260905668145
Ni 3.146313323695792 8.618437217106045 7.995751462448386 0.4228706224882718 -0.5777001408680631 -0.15646242599752408
Ni 5.5501985331543615 8.072988743034594 3.7750034896193867 0.6084906438863584 -0.6900416652869729 -0.1871858232233099
Ni 3.1793981121627812 8.563626599183568 3.635037086030567 0.5597242731159329 -0.5433442890960126 -0.041843161288031165
Ni 3.5305610581417017 4.768014062376889 9.869419942952288 1.0842254613635134 -0.42790124293364373 -0.8496608917459237
Ni 7.0076767578574986 6.106195912269345 11.572095132548217 0.9907836020625841 1.3187846316644642 -0.3410547774620449
Ni 0.6144177431464048 8.844360358599197 0.293111202011574 0.0884192092753574 0.6773532711860271 0.31011000825407237
Ni 4.751539931118223 0.41567054701906836 1.6478845954794012 -0.225113965727651 -0.5569701074095633 0.23064338018631247
Ni 5.939515931197551 5.525250691286957 0.46816659500835395 -0.32063070527973814 0.4714675575603687 -0.18069918705770172
Ni 8.158281054650594 8.618946913984768 11.571162205225557 -1.2423279940676217 0.5625098062808699 -0.06977151226718306
Ni 0.4297873302136489 5.158987975275923 5.7945399354293015 -0.9007913918731517 -2.010920203365988 0.3550505775205047
Ni 7.794157245184193 8.740427703989967 2.8019093223979135 0.6429907345457572 -0.9036838829295984 -0.9384647380542096
P 8.729678560886937 1.5226830182595361 3.7245689834699287 -0.5054405720717037 1.0134411915610997 -0.7536479292837085
P 1.771660841784842 3.208778496529065 1.351099935249044 0.0403542354473305 -0.06265572715800823 0.05844297462824128
P 4.75408841551183 1.2311910140108995 8.029921177128653 -1.6184431055679096 -1.2923045830960647 0.4241492320903792
P 8.495791405663768 1.6677463906355672 12.155008147551667 -0.5842507975023873 -0.7319069380621911 1.683009419485069
P 6.297141105460257 7.655346761302473 1.4822076250510903 -0.907876066634075 0.8955892788469221 0.6340360964556306
P 1.8059834655287255 3.269614459696425 5.899405517361189 0.4772412268193522 0.10142024952071567 1.6135613519955758
P 7.069623132082073 3.8738783128803065 5.996784016213863 -0.8458474315371045 1.8379605510443897 -0.153519027098484
P 2.4820963751523353 8.50640402281714 10.189263836079789 -0.4670941110830214 1.6569926837063336 -0.16869084974291593
