# total energy = -340859.44086530595 ev
CRYSTAL
PRIMVEC
9.38854582292223 0.00000000000000 0.00000000000000
0.00000000000000 9.38854582292223 0.00000000000000
0.00000000000000 0.00000000000000 13.74108582060182
PRIMCOORD
 96 1
Ni 0.8370648884956171 8.724090073051318 -0.023473241738179055 1.4853445511073065 -0.6933396193119543 0.960761601779197
Ni 2.552116519244231 5.451534117753608 4.698242282895939 3.4364526674116687 -1.0895088212496398 0.47672160687045634
Ni 7.8719856733404425 3.293229532734503 13.100324957414385 -0.9999637258999552 -0.3411797330756834 -0.206516919451754
Ni 5.018262126322833 4.893826342786386 2.8804752688833677 -1.968627099024732 0.8223753165570934 -3.840428252767651
Ni 0.5926754130977114 2.543357006188587 13.696852490776545 0.27106626408804924 1.4770090346584175 -0.6886738384051688
Ni 2.9720473873608904 8.822895127068035 12.65611718805519 1.2878817714380206 1.9971766285276509 0.8973718246686417
Ni 8.643282860972082 2.1620881689005893 7.755991131163405 0.494560177713774 0.32668565322456644 0.8932292632551778
Ni 1.263228812043833 2.2776142226516067 9.716500653800528 -0.22444547890571667 -3.396946638897246 -0.48732483630759943
Ni 7.970818892993995 7.976977778915219 0.9575809542392117 -0.7917169682412881 -0.7515910467546798 -0.5165073714088266
Ni 9.20848269533738 6.759264635996534 9.489030276449329 -0.3494239753623466 -0.4723977826841219 0.4967132195010349
Ni 3.4046340149620176 5.332722073038523 11.581646024387593 -0.508738268986369 1.6169359248947635 1.2531741927535063
Ni 0.14234725085430092 4.907280128647842 6.449117787134822 -0.24093499192030762 -0.06864665463412048 -0.07145507061719307
Ni 9.030682418544469 8.428613765562329 11.224611839886876 0.7670899137212273 -0.36422838736503077 0.8614604554840131
Ni 1.6248662004579275 3.3258922829173385 2.182317668129953 1.1579515874030704 -3.5497606695089057 -0.10269937334345537
Ni 4.860478228773903 0.2501258767666071 0.8865002754136163 -3.3328197265103503 3.623655202805527 -1.7008145659872902
Ni 2.2745535567822177 1.3292866189672101 0.7125868565039175 1.290149741536591 -1.7688850364029665 1.5187650355492812
Ni 6.027267900295147 8.336080260014176 5.066324907872413 0.4919157981123915 0.18178085015765466 -0.84565845545475
Ni 6.682729212170584 1.86203963969874 8.994942103110144 -0.9428448693997763 -0.6757126502588104 -0.5681721467729699
Ni -0.021801141764749052 1.0007062996516394 5.920882534551605 1.1304099303393758 0.31354037409186003 -0.5153958835122027
Ni 0.5296275738974204 8.208358485513662 7.600207932684311 -0.09765821137512214 -0.3445139396552389 -0.35745764430010046
Ni 6.205791095100152 9.42788361773539 2.8300174693482627 0.21473879314091404 0.521004745058548 0.7636484921398461
Ni 8.437025902430342 5.385926961019589 12.286688245638011 0.2602195511815325 1.1056856881198183 -0.20232345019569672
Ni 0.9597628522393528 1.086536383633094 3.1385738985833647 1.7535031546302575 0.3279102696602869 0.8322851194716376
Ni 7.651861832930337 6.536080129717039 4.778970631192038 -0.21694557098424574 -1.099032701579675 -1.0578099474844622
P 4.61601927813847 2.8386079885828974 0.28204505413700187 -0.6498602079720808 -0.14846680938655718 1.947693948416491
P 2.2399004349297185 6.887906487966988 9.761776915012579 -1.637942609053418 -1.1119504380826075 -0.9517845950915672
P 2.736545109238947 5.0495729259375945 2.650284091013919 0.5189530047358417 0.45543544379817047 -0.7725468230707405
P 8.192604505977357 8.031572171646806 6.128537447534915 -0.26279939609356673 1.7370640352376279 1.3600613789260643
P 0.6079543322260662 3.7559815573857738 8.317699365415741 0.0812175493205956 1.0789557283241418 -0.6398251923335819
P 2.637664946857337 9.166440788088533 2.3296633806678817 0.6196859983815457 -0.10157734392387023 -0.31784928587985906
P 1.5597378595501008 6.80975623429584 5.909683877346062 -0.7349817203327729 0.6982902784490103 1.496166581423475
P 4.710796646087801 6.093663694860543 13.70638937540883 -1.3577790106497907 -1.6008500750764945 -0.19312532863619641
Ni 8.542327830010302 0.5845975084534712 1.9406949971237926 0.91942289093141 -0.6436628209121172 -0.514924600302739
Ni 0.886186697990188 5.1424444191277665 1.4139985271663207 -2.100554773105686 3.2931496616142386 -1.001220738235508
Ni 4.781107464173243 3.377379067051477 9.88231363555652 -0.40708507751924083 -0.8121114727372402 0.5127535607933491
Ni 7.653777096235108 4.877537216150221 2.7898391884033233 2.623520755655662 0.76681943366866 0.8720302605800595
Ni 4.235632964137966 1.9855647343108598 2.444058114672698 -0.08937848786483317 -0.07300775981629364 -0.22776785841073033
Ni 3.8449568041471216 -0.08232627875919706 4.597396159063256 0.9891486375623224 0.8325445437806113 -1.4080643891679039
Ni 3.7145123514192364 1.1378541739462236 10.692419315328362 -2.0312229194790827 0.9887930539951164 0.2242593310368396
Ni 1.9953945415662286 9.064847336025164 10.104342411871222 -1.4568387303581296 0.7373317086221882 0.6128026409981512
Ni 6.917658789010219 0.991383473859298 0.5089192588418643 -0.1103257795404616 0.7426929729341015 -1.4338543536478143
Ni 7.645618450098608 9.169013249586117 8.268616048958178 1.4045826012668907 -1.0349386993132432 -0.24171686439165466
Ni 5.030889720170466 2.36771609488635 6.920683778406285 0.07151754842401231 0.4733894571734299 0.09497475100568804
Ni 6.185708996036891 6.96666699710289 6.97320236370314 0.054568579274499575 -0.050530147539067816 -1.1771117052712887
Ni 2.956668949649053 2.956086859821132 8.439816178186117 1.2027332624941351 -1.0817767427127047 0.1782666663568091
Ni 0.5117377002344734 5.685937936038992 4.055804761492944 -2.943857583844066 -0.40880026043813467 -0.8747314615613064
Ni 1.9726836497317133 0.7453585138158477 7.884951254830094 -0.20213344567207772 1.7757316270111547 0.6638436667353664
Ni 1.6498772859672903 7.797562672277109 3.88853467745803 -0.09660868706468524 0.6963496097828717 -0.6401085279019557
Ni 7.7295708249577375 2.0403562865002898 3.4282631065573494 0.6776324929893427 -0.01710092134634474 1.0956424449512034
Ni 6.804620699846282 4.60936279929983 6.337334007664598 1.3434523096144735 -0.794060014552168 0.4112842032022529
Ni 5.689533749008244 2.2955745104066407 12.306172294345812 0.17672220468782468 -1.0245918088612807 -0.5004729436537833
Ni 2.8511510855200255 4.456160512009371 0.06844249750872941 1.5935525129738168 -0.27328769721940027 1.3793528801658244
Ni 6.231543875712833 3.666151952973768 4.091353550596792 0.3180038091798523 -1.946850626579589 1.7063362671364675
Ni 3.707423999482461 7.012398602777104 2.879966409711218 -0.2581680679691425 0.44833277131511823 1.4368062371872867
Ni 6.490780397140959 3.261195815107646 1.5360064328076022 -0.4295722028781634 -1.4960195143226493 -0.44772084876273216
Ni 9.6570580161151 3.860363407495795 10.680698654986811 -1.1347604939985876 2.3528298726291608 1.5452461125589454
P 5.449496803355887 1.6588057928439437 4.4669517063353705 1.192653766770946 -2.4411146132091828 0.112717933921722
P 6.7450316008493125 3.172990429086451 10.63362167072645 1.866621923534824 1.4300534918444856 1.3566346126327022
P 9.131909717328984 7.116911892525688 2.545480695205936 0.13469263842060028 -0.16665505025980976 0.5051598076064914
P 4.5196458574351634 1.2420200875071774 8.848118393708221 0.8306617249356016 -0.20113611475581492 -3.2272671999888165
P 4.979750312223956 5.082113625027478 7.286238068049548 -1.5820671380420368 -0.9780034195787801 0.5054464856089746
P 5.796985653533266 7.035062551883561 3.326277213287415 1.0621196306034095 -0.1428682322528572 0.3647022416776558
P 0.030385089017455676 0.29472897925830416 9.461094658981944 -0.14329683514984354 0.5310598153017048 -0.9804539380018017
P 8.581787887215954 0.25902246258818074 13.08508640903216 -1.1620332136716116 1.2965489601947155 -0.7718587958647803
Ni 2.0334744825669704 9.160835826358394 5.9097664965474435 -0.3486942962851737 -2.7843640843297015 -0.30817653867678535
Ni 5.108814648746934 9.22977591678454 6.94709469606634 -1.8422632921848017 0.5093756454600517 0.40011558817994314
Ni 2.6224930571489544 4.454320357069492 6.925410911121737 -0.19043698317075589 0.7239074647964823 -1.0688664624089397
Ni 3.910517018153083 7.798848903025902 10.720121158010015 1.965847736507382 -0.6273190894467712 0.5050261102421044
Ni 4.051166819960803 3.163855374206342 4.655466191380264 -2.7876851782831342 0.7087770369129471 0.7679088100780967
Ni 6.6136576821058775 5.459101285516576 0.9945014098569179 -0.8829458790512986 1.8605181246299314 -2.512675613276621
Ni 6.917104864819134 9.068931353366219 10.700045630928683 -1.6405047133536392 0.6130067865891572 0.5055788974217809
Ni 5.128145664161265 5.48266653500175 4.960546042175383 -1.0483917394943556 1.8468282858476646 1.993173420905529
Ni 1.1800650750160793 3.3273381189415283 4.4008300573018335 -0.43135500581019903 -0.3029240320285944 1.6932256978964386
Ni 3.574810792718291 5.30990790720228 9.16321582267094 0.47448037624476347 0.5377788791930932 -0.81491474651399
Ni 7.0700818270149135 0.8918686457943421 6.3659155570700605 -0.48416546474301125 0.701624742138882 -1.7242085194311985
Ni 1.658599244840488 7.291360458535249 11.765323530733378 -1.0788909365244774 -2.1326264568292497 0.8336766005025255
Ni 5.377289499056896 7.745503186860662 1.25442141740557 0.30775127821390874 -3.8035869155695847 5.780189833710942
Ni 5.897931295949433 7.701743175764888 13.075164594029795 1.1472655684441337 1.2960853902947358 -5.563402642681432
Ni 5.647651447034796 8.262840215697908 8.94856550435241 -1.9405581087026582 0.14566507827170394 0.7516257566473572
Ni 8.911682602917152 8.889929342735021 4.213112659779366 -1.197970036777537 -0.9067730633778834 -0.8657845367806638
Ni 1.0088367801513045 1.2304440107680468 11.877217156187259 1.410641405866461 -1.4899247142788212 0.6342672386298304
Ni 8.371522019698052 1.559108826994122 11.019224260668773 -1.2289574862979868 0.997873933250462 -0.33695181103726485
Ni 6.91558392043005 4.429694201930206 8.78441523402424 0.10275825160584882 -0.26089215176852487 0.06812034981700527
Ni 2.9905522107613987 2.3802122490954196 12.530290022059102 0.5087819777401108 0.4036814511543306 0.29280159888261187
Ni 3.1994285735287806 8.179075611751008 8.331233892769456 0.41137033515815596 0.430105192563498 -0.21504346886552644
Ni 5.6086889827465605 5.4690437553192845 10.942644710678453 1.6501651192615387 0.7534602387529347 -0.612498479494171
Ni 3.6581716892038885 6.713298316682028 6.748466869688606 -0.014770987661587463 0.11867543705673755 -1.0978219691010254
Ni 2.771536218733465 7.15447546351779 0.8300028244865544 -0.3130670339998673 0.060298025559109056 -1.2414165379969457
P 5.02136973492028 0.1561502906125086 11.872119175920147 1.3399388971445763 -1.0574816176107658 2.008438317484399
P 8.181544799246867 3.9583141038618543 4.765436103838323 2.7377708099511944 0.5407623873014493 0.2704566555285084
P 8.848751181682445 2.911021840885343 1.6662574814958884 -1.4643648635318458 0.18651450818789814 0.7513743027581834
P 7.147443442854685 7.069584234097498 11.445114977539692 1.1284906018294758 -1.149117534051208 -0.45010503272419256
P 2.2071250221995435 1.778753851578035 5.630189691051738 0.15878593192437815 1.4763544317935542 -0.06568345824073848
P 2.629778568543574 3.6249080721019094 10.79962711766748 -0.303516928417587 -1.300290943735651 -1.2982708279818285
P 1.1386428117776 5.021923659111366 12.822892495736372 -1.3291646893472076 0.8240766155189162 -1.0735129600420157
P 6.82879620479621 6.558603250639321 8.884930881051394 1.9262925999225795 -0.4040971985355105 2.1406858367986166
