# total energy = -340873.6248494869 ev
CRYSTAL
PRIMVEC
9.17878602573992 0.00000000000000 0.00000000000000
0.00000000000000 9.17878602573992 0.00000000000000
0.00000000000000 0.00000000000000 13.43408115458133
PRIMCOORD
 96 1
Ni 3.413214226442713 3.233814851798499 8.571480911755147 -0.32233971755104485 -0.6176424855889556 -2.4095743765090565
Ni 8.514792728700522 2.652715081558 10.585344218707137 -0.12713976577400685 0.26395973495025504 -0.31193986237395954
Ni 1.5392365377826296 6.597032230265411 10.453475352209258 -0.2517613931118503 1.541382772948797 0.812075220182666
Ni 6.9338936807357445 3.1936025898227354 4.628847152421477 -0.1395329972320371 -2.7583162382027138 -0.09170122246073885
Ni 4.602858337411621 6.742552705354148 1.0754691904675326 0.6237619682231322 0.2889850533499991 1.617091990856654
Ni 1.768797978552739 6.643320848650204 4.536434215923374 0.001207390044539856 1.5947334206557955 0.1976281016025564
Ni 4.288356409920736 3.2970750457124374 10.494435685253507 0.268662282632247 0.23120259512389213 0.8719754960827241
Ni 8.344241703872477 5.344614401046732 10.614026089563533 -0.425898353571002 -1.158045175558141 -0.6684945352438164
Ni 5.673728956034859 6.07969748717525 10.360188595272879 0.2162104925904341 -1.7551653728240288 -1.1466096800276897
Ni 1.3402037396355257 4.35916156602232 9.627386437494277 0.7922957235628936 -0.2563932354569068 0.3944059393896756
Ni 5.59630589514338 4.236744095588455 2.3378661959519165 -0.013745117500234393 -0.45500992622497766 1.7043644881220776
Ni 3.62284852255421 4.102476812278373 12.56790511136651 0.04728207291541535 0.3041710170618181 1.62423888631408
Ni 0.5091527731460397 0.0588690626358727 2.431917545771789 0.442999789137979 1.3415887740431733 0.8993016947015028
Ni 0.3431580977461545 1.9519514767185435 4.393615975467292 0.30012512912721856 -0.20659430965690873 -2.223738382445422
Ni 0.6267082405740696 5.861554456333889 6.863646594830034 1.1444532958063194 -0.23441570274455112 0.053515969640269126
Ni -0.11926272164567242 0.560948663200647 11.854018596016497 0.6953787612291702 -0.8421036482239562 -2.297619288895288
Ni 3.9779023271071643 5.990488864910368 3.4666108967960136 0.7093889594653331 -0.2615012461074335 -0.760973002190212
Ni 6.001916453625233 0.670603031539716 7.44218548374407 1.7735798707754746 -0.6245482115698534 -0.6381408626526236
Ni 5.075244564889978 4.510960330814646 7.400593650215018 -1.1719229619814977 1.39013325861078 0.4575470908245346
Ni 2.4966757175799166 1.5514902172479672 12.925265544870506 1.4675928835508403 -0.8351498426139423 -0.1093724144882568
Ni 5.746984848029511 1.8338388569732509 9.411729021933224 0.8244877349144059 1.5888149982888315 0.6153894278887208
Ni 8.501584455479083 4.170877126417471 8.391841052914685 -0.5663556623895214 -0.03417638877139275 -0.45763810787644404
Ni 2.420243965589005 7.694741619492879 2.4905039017952775 -0.4125155045061928 -1.0138553962803831 0.7378258746497874
Ni 4.013984135330567 9.001176605006323 6.740120327033314 -0.607573788499044 -1.0180671203688854 0.3069367527324133
P 7.954326869649595 0.42475383480612927 5.921608500257384 -1.3972606136841808 0.9784060543338376 0.7786845605373621
P 3.199091503920317 5.166858029117345 10.731009718616512 0.2041489334402097 0.7455762080191676 -0.6032859597569674
P 3.770232291224568 4.684687215638951 1.302821297419435 -1.387372150925875 0.8856985020957714 0.011131076916155024
P 0.8525623696317823 2.6627474947831793 12.227794370610988 0.06228934495752498 -1.4403193925468678 -1.9431253552092023
P 5.663090742925999 7.464959887855977 3.7351179270578294 0.490459268171523 -1.7324949278097068 0.8923522599668631
P 5.012443310281857 6.90507229233038 7.880270587505597 -0.0421465514610629 -0.1778321499225518 0.19286359033437753
P 1.8423751280614638 2.373744235123536 2.7771739140241425 -0.9871915138359516 0.39934708544503483 -0.010954956349606939
P 0.02519485001079066 6.353252849801063 12.451150034087828 -1.4047080711011615 2.963495926900283 0.790363025316555
Ni 0.19177054257184126 8.68100218769553 4.697226355352508 2.2243785871325823 -1.0613968935047722 1.0626978717043827
Ni 1.125264105148774 4.77181225345542 12.113188965040754 2.1578890880507804 -1.676356690055242 -0.6438433123540396
Ni 7.953913824274359 4.654268718449341 3.3732846710793334 0.6904754103902818 1.5280359193282458 -0.17903311220918844
Ni 8.249736922018457 3.396609802358222 13.132015866384243 -1.012603783261469 0.27925754164959005 -0.24366678902917388
Ni 6.394575744896906 5.6772444311174235 12.575562972623388 0.2462780013997759 0.2839518618014658 1.3263632153426705
Ni 0.8712981078524921 4.675370747730848 4.755154592411454 -1.2253018918232705 -2.678819785338283 0.2866808306968546
Ni 7.4387911686382395 6.7296197957162 2.1307799308663204 -1.0170152820656033 -0.4761788469931089 1.0057849605674227
Ni 5.86896173672979 8.844990380450378 2.191125860188315 0.25027400993304644 1.034690073637547 -0.12335715880312303
Ni 1.8826608203261581 1.0524763312460563 7.223935061105148 -0.04884427519621266 0.5583129945907029 -0.2520663259467788
Ni 4.869685649814144 0.5022246253854128 13.656952480135972 0.21738034452881919 -1.2624659024680773 -0.9061395435589427
Ni 2.358791992539989 1.824146058834377 10.150241302554814 -2.6823131432035225 1.3001544181577867 0.23947717642785854
Ni 7.061671562261561 6.003568635126178 7.170374090480364 0.29712388040704957 -0.031273356191984854 1.4531728514707685
Ni 6.2833013208083 3.7293591566484263 11.591838503024688 1.2307078933301903 -0.8827959837369957 -0.6755691827024107
Ni 3.390046970285026 0.9159905353316501 2.7186554810179144 0.8556425632506555 -0.7123123037597152 -0.27328178368212935
Ni 4.177375706987854 2.5218255915387373 1.1221524966553287 0.1288210101311717 1.0581501044327002 0.094558746514192
Ni 5.26868748229222 0.8907773277486267 5.0630367793552224 1.374601738634084 0.48173500092464777 -1.0589042089899052
Ni 9.197877991479874 4.899782889489681 1.3809024772754566 -2.6273869234792877 2.598442729641112 -0.7590205064495316
Ni 6.839636726106865 7.726839834541782 0.14196094183281374 -1.2258562216648436 1.8686500097084462 -0.5710618096159391
Ni 6.682238901783561 3.0238776557451623 7.035240329760898 0.8392911184758255 -0.3140995890294397 0.4712292162973175
Ni 7.669766142470269 7.439277644302408 11.15116039218529 0.2729639953313944 1.5261459013943846 1.0358951496892417
Ni 2.290097957245167 3.9376900651314006 6.686813608783954 0.04912735365427023 -0.026368976911832008 0.11501778569949224
Ni 0.1975742890332143 2.750056108321975 6.391693606056369 -0.023704285595475307 -0.7089912098062822 0.609155531163867
Ni 3.7527375248867902 6.859095752673544 12.49311819784765 -0.4287224532833584 -0.45862592571101013 -2.311565209552419
Ni 2.923406662915509 5.923281792966396 8.441506546711686 0.8304976885539116 -0.7672500934481754 -0.2379882505871579
P 4.650771600939009 2.241698218053612 6.719700281560252 -1.2496450965543253 0.37417521416509747 0.08517987640245331
P 0.27901306885059934 7.071795763347904 2.710285345958408 0.5815915055026694 -0.7598352890413429 1.277995108451928
P 7.095238383089082 4.712994592021799 1.0336304475919504 0.30895763981718405 0.32302748764668887 -0.6989595366018929
P 9.250013496620785 6.3945573873246735 8.785271362220131 -0.4338008962475303 0.24498705050249422 1.1026386737633784
P 7.450347260358734 0.7626185265989802 9.938519750480456 1.1868217334702014 -1.5522243436489913 1.7112378182031431
P 6.562850430768094 4.07473852063474 9.441203939910073 -0.5052778212415944 0.08075089409682223 -0.4508809916582686
P 1.1346631821319246 2.735314977819104 8.30661510594569 -0.027524173562197756 -0.48807379865848205 1.0126662610682884
P 3.0774909454508084 8.705582976915135 0.8923652577467566 0.6267863568717528 0.47855377498318874 -1.803886749289132
Ni 1.964370374333976 6.109546899625646 0.5509263466401958 0.5792284045871315 -0.16620664986848152 0.011312853909657937
Ni 8.05978194334043 2.629143958811193 2.166393620997789 -0.5995388340097094 -0.606862107144 -0.32069575418971863
Ni 2.6859790024436805 1.3858314854199407 4.9209711993606815 -0.36081704769063666 0.11270379285433493 0.43070528804134206
Ni 4.063301753133758 7.670381121140065 9.85256867940827 -0.28750564059099515 0.007857034150573566 -0.047538154790279424
Ni 8.767034949964152 8.048583824278474 7.298427335589673 -0.05242787878241294 0.28472550674269675 -0.8200399835556975
Ni 3.8414504927013886 6.323541119142413 5.965376623974625 0.5656120993552775 1.431492024063225 1.5283351957362195
Ni 3.9100802764933964 0.6654987085804094 8.82245646053472 -0.4295423780814925 0.4996195945145524 0.12722949727433572
Ni 0.3160109199284145 1.2796329300536804 0.46053274308769215 1.9579130550413377 1.1538745891202191 0.9859794958057212
Ni 2.0289247770903205 8.280504213080487 8.432263509092513 0.8695321767485542 -1.6770110358097892 -1.5811379413595479
Ni 3.786386954789358 8.32192807482361 4.44582123938269 -0.3018829923585898 -0.15340538433875517 -0.6914514011503059
Ni 9.073771624400598 7.92384412095717 0.6280969909134745 -0.17512683517624678 -0.88344852971933 -0.05675247429969581
Ni 9.288380822587161 8.625718358916707 9.587877270535024 -1.557724190421298 0.09013516352519961 0.6524673065776248
Ni 1.7938652434365125 4.8933118452776485 2.5826488177387823 2.5974600540128687 -0.40117231157923167 2.010868781302763
Ni 6.214405352218917 5.306485723519381 5.047546659905256 -1.2960630216972324 0.9937326573885787 -0.6505814024088215
Ni 1.4375355876133844 3.445064614266475 0.6980641238426355 2.383760500769746 -1.3494020994400049 1.1027793131063008
Ni 8.214655601481736 1.4999696907768505 8.11805438487874 1.3299805003802836 -0.557931185771252 -0.4139640640272612
Ni 8.357358189232752 6.504069484478938 5.116289342766494 -0.34673100191121575 0.32564024267918756 -1.2146441549991083
Ni 1.6646738288487757 8.107034334267441 12.730686293747059 1.1734903064686177 1.3198125587083465 -2.0364553715226155
Ni 6.042743694270793 7.80486869531694 5.913601845128085 0.6146193824919157 -0.010754667413342769 -0.2886073582956062
Ni 3.8449384314256045 0.47139216494195507 11.21800857359211 2.913023114961712 -0.7043426552906773 1.55732824053446
Ni 7.628663538241219 0.5802947906980944 3.66272208732228 -1.6320434699601634 0.8805015312758643 0.17848186769140875
Ni 4.449508357765631 3.0185723173699075 4.291637825957333 -1.4504019735938507 1.374895101504787 1.2932983144679018
Ni 6.969277901214303 1.284442613978652 12.475935510237829 -0.4426470337842505 0.156152350956273 -0.23800444853707395
Ni 6.750831970431102 8.026453770951935 9.037173968397456 -0.4577383808997343 -0.1708346355587961 -0.892889620527572
P 5.606494347732537 7.735789151005231 11.765367126068877 -0.8138996749859145 0.8309419751801819 -0.04884607496842555
P 3.1193829252858656 4.698850082616492 4.937522386485698 -0.52890703062476 -1.0862589468537744 -1.6919720279949957
P 8.175352039331491 4.367853876474511 6.0508981278565654 -0.995868215674343 2.1448335404184027 -0.9807969231635174
P 4.980152340724511 2.151874617118934 12.24262637109641 -1.3129099180512422 0.39982839595682756 0.961169378740577
P 2.0720742506233187 8.893995919525613 10.484521678369228 -0.9244666240029047 -0.882528589008222 1.0086393992970821
P 5.714051363444018 2.003343500184031 3.0398909660037603 1.1169445488630891 -1.2767874612970722 -1.5053294788696656
P 7.739534095740705 0.5396860051621041 0.9902505865274316 -2.8259992433719847 -1.0826411475955289 1.2400258282970065
P 2.205432834107882 8.215793770960165 6.076785976219141 -1.9777961671185098 -0.2549757862840899 -0.593963396804461
