# total energy = -381164.94974847126 ev
CRYSTAL
PRIMVEC
9.31418085726181 0.00000000000000 0.00000000000000

0.00000000000000 9.31418085726181 0.00000000000000

0.00000000000000 0.00000000000000 13.63224517642940

PRIMCOORD
 96 1
Ni 5.155836876778256 2.2312679119451317 4.632155440254043 -0.45019604977610206 0.22649516234589379 -1.0267710759007866
Ni 4.57793852484119 7.4220050244346965 6.365344736044124 -1.0247992968863964 -0.6739673854329296 0.31382679498402727
Ni 5.8522022951717245 7.058826484040949 13.62105344384864 0.10992623010919779 -0.6101217517318783 -0.867784340819512
Ni 8.700450861974833 0.9815656365627484 0.6743560090030701 0.7036124619928721 1.425583886108906 0.17973116671747755
Ni 8.678264483147949 5.6405189065912795 6.640470736186887 1.3258345965327103 -0.2989480780999819 -0.6440410301871424
Ni 8.904738790946316 2.990122169780067 6.375418954070638 -0.6681386945662945 -0.34337776916826673 0.1047868520001034
Ni 6.985291026090379 2.486448525177782 10.008726295161898 -0.39870122433091976 -0.2962322218307156 -0.3815535089070397
Ni 7.540323063997216 3.9974694589846362 8.176116501371794 -0.28446145444803267 0.4145998978390472 0.1487015511051826
Ni 1.0435794527799616 7.847271894492599 4.361568240448114 0.30783432484601825 -0.5370196324295655 -0.34852048971147076
Ni 8.281648033439122 3.891939789753482 0.5154709860893263 0.3580798512651317 -0.7589323176110994 0.9061459713168458
Ni 2.5639797667205997 2.1548357437447034 2.807533487976088 -0.4958565279276944 1.071497986494516 1.5808967718830194
Ni 8.760806753997594 2.517045609328209 4.200558652878445 -0.7005471928039869 -0.1099336863083655 -1.0070041776865044
Ni 4.888771368758407 0.6354329785749969 6.2323894612479975 0.06866439524593336 -1.2208919356810328 1.312795503960565
Ni 1.6706473655176681 6.717592153771527 11.584027185391077 0.34487363698750284 0.4171481181821977 0.5754429694027703
Ni 7.039061792239668 6.795281736389095 11.230202876842771 -0.18756608938086408 0.927572516621738 -0.06162908566570676
Ni 6.851828128436963 6.651033017290871 2.214803234425281 0.7287159419287191 -0.8463876203112908 0.5680628748886152
Ni 9.111970001071995 8.673029913500296 6.331292090791775 -0.13275299819572622 -0.20081678374318318 1.8111737698688486
Ni 5.76416465761013 6.310189882617892 8.226950506293495 -0.7060930623228807 -1.1664190014441331 0.07338211243657686
Ni 3.591883453100205 1.3329989948823135 12.756591277663262 -0.6933925840370767 -2.402063669954308 -2.9501765840835574
Ni 1.0626455810161637 0.8159082727400926 5.014566832721525 0.228497023267271 1.4475837874187651 -0.28729326746987294
Ni 4.746571769451079 1.5453716328469689 10.374697226979785 -0.22135192758205752 -0.9684844243447516 -0.4241458896562696
Ni 7.138509301364208 4.917459045830954 12.391315183738104 0.7483491427786144 0.16375638855577604 0.6788537669909535
Ni 3.2863596922775824 4.386913989425326 1.6288490474557327 -0.8840249710480904 -0.011747884564547508 0.4088437120815604
Ni 1.1086390061409157 6.243733202126782 8.188617063514346 1.8300325544465643 0.9885595978280716 0.480401883935521
P 5.63673734915899 1.1693954079409878 8.39334648465896 1.5114494757244745 -3.6909132046222366 0.02921544522169162
Ni 0.4265280101473901 4.332137291742324 12.208643605724404 -0.3099827386475887 0.500134586477758 -0.061973356379002954
P 3.078923570172814 6.76231885029827 4.471035945350136 2.9392691931424344 2.211256705038643 0.25216865585259796
Ni 6.385653376008078 2.6282662430695343 6.486181330113272 0.4222149911821438 0.4964998179386482 1.5330480278308565
P 2.6922919223541726 4.068946482963443 7.211675917752417 0.3544368551959057 0.40040997949191043 0.1530433730136461
P 3.2656542682086633 1.0691468792618253 4.5503890406706775 0.12474735428243032 -0.536524952181334 0.034671840350572546
P 4.996210445067442 5.220225809116735 12.12704113572431 0.64599969657541 -0.1637990688682534 -0.2267245047478805
Ni 2.387969690863484 8.632485284183154 6.240133271221411 0.5919432810506386 -0.43568191532032713 -0.016840211485790353
Ni 6.07254787195914 2.9365376872481312 12.192789007051388 -0.3165357092747581 -1.1358861229625987 -0.21702681784414238
Ni 5.288889950473493 8.790295450624763 11.40260929612217 0.47086669075157617 1.2449181233923012 0.8175552694606306
Ni 8.183523137997797 6.511059507210925 8.69450934599932 -0.9919501115668594 0.2388259159971048 0.8539996283305938
Ni 0.7433144784752478 3.6107912402616567 2.496514360441516 -0.8788174587052219 0.7673400820588205 0.7023788466960871
Ni 3.7654625277508487 3.3551169754430177 11.396856858018273 -0.6284416330869886 0.3781542534175035 -1.4750218290250596
Ni 6.161749782129198 2.438210382463912 0.9841922355674426 1.058691578758467 0.22644939670962289 -1.4647024493769227
Ni 9.223237205717659 6.944429714623736 2.283264326639123 -0.6069855200957418 -0.7411192006890783 0.9407820733334766
Ni 7.811132872725884 1.2642603400786139 8.208615541255407 -1.5359592879403805 -0.20025371215086157 -2.5976356603587845
Ni 0.13197262871458268 1.8779437749094212 9.54360777084341 0.7391942157522238 0.46699769471447317 1.4555449512473706
Ni 5.5522391003271245 8.428225297754274 4.473898193130783 0.1870834933174907 0.5350313983549431 -0.5240643578204781
Ni 1.9333817794340313 5.833750902872792 3.1096920352512067 -0.8939581710014023 -0.3837749420383907 -1.8154168614159185
Ni 1.1149167640457522 5.279827252489211 0.4542358353926538 -0.016631952129726194 0.3986994245587069 2.944948245805083
Ni 2.5722600735119943 9.030377776670855 10.774912676175893 0.8763767104742133 -0.056494335542302695 -0.4178330600643643
Ni 3.182841886113854 8.804387806277608 2.871550784497945 -0.22134627115510266 -0.6968304060740322 1.0981302443700638
Ni 8.0341609336032 8.496200189726821 12.928275847925413 -2.301134758247714 0.5404381711928111 0.3380843819798113
Ni 1.9662980946205182 5.751096861852733 5.857625942690992 -0.952303957930147 -0.9287719362464778 1.1136915891434305
Ni 5.483947526205076 8.400245498427672 2.0220024847179445 -0.17678751070812132 1.8416601113831639 0.35203878727737437
Ni 1.0827455833286819 1.1442657479599063 7.429777708368801 -1.5817439503746629 -0.32884512276973044 0.9364086268561292
Ni 0.6417172564064408 0.09706307882240568 12.148348255877284 1.3772869987757312 0.778036385430402 0.1803402610563862
Ni 1.5764996253068555 4.568456688717861 10.328988815789584 1.7046077144811351 0.7208545369027715 0.94850695278156
Ni 1.5062427590217191 3.2858194697872554 4.8867921053240195 1.007806876093458 0.4637138817568788 0.51659016093062
Ni 4.794940310697098 6.772555135071882 10.509070120103976 -2.4481419523696095 -1.5319751064816518 0.1713686536853952
Ni 7.34662535867232 1.4930725072747772 2.610479883284555 -0.4610198798644834 -1.3744760116894972 1.392240791872086
Ni 6.170505112144845 8.130152881625818 9.457710532045216 1.4699328445379265 2.4969373766057577 -1.2575391545904213
P 2.348961901389515 7.015990566230351 0.42894038299212706 -0.1983086726093488 -0.3617652705365189 0.40005285326280776
Ni 7.278017102400768 0.9266520204209907 5.392766352600629 0.8017967210747934 -1.3590362800956595 -0.9945705799088418
P 9.023764708254783 9.020523373312818 8.850135337027453 0.7856028849237503 -1.689179038630891 -0.22376439367829207
Ni 2.3906894316768557 2.568189776472805 9.238191123100767 1.291403411438034 -0.5002759971516287 -1.0839791496806621
P 8.082212792699714 4.853116684396814 2.525209488858757 -0.12437274455183096 -0.29947669690994233 -0.12225518398819589
P 3.289442686144795 7.573025153023746 8.899647659684025 -0.16669515946912583 -1.1262059195603573 0.3497175953433655
P 1.4288326018301818 3.1177357618485613 0.6074634248473507 0.6110092965431542 -0.8738822261871337 -0.9449606301911985
Ni 8.563383376325612 2.4893824921511105 11.785294525507163 0.8093863604965932 0.17945220202447804 -0.40942452428569487
Ni 2.975741074520323 1.974429374518029 6.578253870826758 0.3238152736553068 1.1434199694457985 -0.5564373748345449
Ni 4.903953483572774 4.644842286013951 6.517630661813095 -0.718406332472595 -0.3233488755418496 -0.27254182019231127
Ni 6.661744325288738 8.378450315197231 7.12307942933876 0.48709575101592895 0.15857535857546884 -0.6536538706865581
Ni 9.09901397548501 7.531986872120616 10.614202073812079 0.9696517051799752 0.5280320842189744 -0.3071822930843161
Ni 0.6213797424817962 3.920692666092103 8.18245480145227 1.0328975005134986 -0.3967106762634523 -1.3353453642366226
Ni 4.6780939117116755 1.4082948330168812 2.271281632952814 0.16271971976114558 -0.741604110745297 0.338983496755313
Ni 3.623216357539182 4.466568864205982 4.154263448293579 -1.5702634605388892 -0.09371953844234827 1.1379761727224078
Ni 0.2920983005199056 0.618045265731156 2.784862771744082 0.15414277672541196 -0.22257217314240377 0.6687611586416419
Ni 6.118662381435172 4.61897680574432 10.072484657455632 -0.80952005786098 0.7078447549066649 0.5648065727348467
Ni 5.515289744824919 0.0813453986081451 0.0051209366410669465 0.798453001413541 1.9496469583778036 0.13404909129933043
Ni 3.68256631802823 8.14730960278414 12.93030727077266 -0.8954183004866966 -0.4441529289058157 -0.07435733186565259
Ni 2.59680294009841 0.8773315698902928 1.052562048808781 -1.0809521899288803 -0.3827884097554053 -1.097152710948143
Ni 4.733531916236285 2.861279105837035 8.233289737792058 -1.6609591245532491 3.375544004851754 0.13083521234772305
Ni 3.4802809379433044 4.755867321957053 9.329431907462766 1.8704379548468046 1.1142821715395776 -1.7666432915566412
Ni 7.955158051483284 0.20910801757052289 10.834758151087104 -0.999361316429266 0.41507658036514966 -1.2354135263359756
Ni 5.929034973149465 4.858686564555704 1.0375634233575075 0.0034704750471037005 -0.5754632811177445 -1.1033734950468739
Ni 4.170303399165863 3.1067822851481344 0.0078015578947938785 0.5266632288959059 1.84966241286235 1.882513912174732
Ni 0.8613027960350508 8.485079057770776 1.031510137211583 0.7839211263459532 -0.08086170864307364 -1.431363726015477
Ni 9.231768995392482 5.21170333362278 4.347650059977495 0.35358607715983625 -0.28518239177445726 -0.41894300529909134
Ni 5.238397775989637 3.7276190108853426 2.949118351346147 1.6272717596031328 0.06010159327758682 -1.1483300051529062
Ni 7.068876485197208 4.307473340804628 4.89843389999057 -0.08089461876353811 -0.7017756658944495 -0.5174746204181023
Ni 4.454674655237916 6.3932537475961295 2.2655021837244 -1.2931877570319665 -0.19395013853033696 -0.07487360938043879
Ni 2.9363048327264387 5.071599425010686 12.726109689355594 0.6527169606945856 0.4653994969894179 0.1491952029121495
Ni 5.3872383862556426 5.970082568233462 4.385997474027944 0.3721113896575333 0.6637040558337086 0.4465360844260116
P 6.673191453575153 5.9469088862346 6.318572645398831 -1.02720584944536 0.9446577542387988 -0.420013869765767
Ni 8.870797915864381 6.639073609056731 13.183744269346874 0.39798337232828873 -2.1385230248193428 -0.2124029459188858
P 8.942591621992689 4.3977556959553405 9.963821697780581 -3.672891057013204 0.16789637886607858 0.5134441591024705
Ni 8.024250645159956 7.442095712566347 4.748370337776634 -0.6444747752904514 -1.658527632293621 1.205976194911465
P 7.325202742676587 1.1759246487292525 12.75077084603903 -2.4720714666020136 0.08056500333826125 0.5067317800793015
P 7.407158220131566 8.551796535326181 3.2016006463814217 -0.012802808191623112 2.291325485466776 -1.6458603212385978
P 1.766359888114256 1.9611194100580713 11.137557514005922 0.3014605601091905 -1.1033549831041127 1.3009599447782176
Ni 3.1470568032201123 0.28682833698495525 8.310639352807955 1.243484219159252 0.3187054632325672 0.4856734167471055
