# total energy = -340890.71537790686 ev
CRYSTAL
PRIMVEC
9.09902390010770 0.00000000000000 0.00000000000000
0.00000000000000 9.09902390010770 0.00000000000000
0.00000000000000 0.00000000000000 13.31734122123715
PRIMCOORD
 96 1
Ni 6.4248297794337255 2.1734201135600686 11.407953819606195 0.10929425295215371 -0.6027383147836136 0.12428686970624402
Ni 4.7798809661402055 0.2726404183849312 6.117546647868615 -0.8561884084517964 0.1736304531363784 -0.4230351730905941
Ni 2.694075352412552 1.5842401267339734 4.915603824422505 0.36652592514995586 0.3664775884105237 0.055654870360142855
Ni 3.4005963497110545 4.423936255480304 5.019878636768487 1.332346686619615 -0.5345305474591245 -0.4558095393081376
Ni 5.317969934526276 4.462716294766392 2.7694207286003474 0.2671085649918819 0.39097197400746214 0.4839019266689795
Ni 7.351146794797634 6.152532394244732 2.666158637599401 1.0552851241800794 -0.9409491950389601 0.43663708014474484
Ni 5.284294447572307 4.439804952926324 11.743670490534305 -0.14382416840822326 0.41178042611238114 -0.2789932322446098
Ni 5.593424680961697 8.016494709559874 12.507579940620534 -0.07576989594246306 -0.7002355751008393 0.6787534939676633
Ni 1.8465285857815554 6.512835537288031 0.35512033910680085 -0.16803804665026542 0.774893468926046 1.015910736147515
Ni 2.5701648467818723 1.6587884284399623 13.536411107231913 1.3505485543396225 -1.8748502249818875 -0.5037719261200292
Ni 0.396185143260261 0.30249522526001 4.99329674874165 0.9263787534239529 -2.150654003754922 -1.5405877878513274
Ni 8.5560213237008 2.129490026823035 1.3505781063532063 1.518640851266591 0.6511794410041366 -0.2927411779583216
Ni 6.682859895359325 0.7897006329478945 4.557607283903613 0.2977049497215002 -0.08092830021495094 0.5049721170757174
Ni 0.875712794695306 7.768664599274749 3.0674365044608876 0.33732436388533515 -0.5220460418388687 -0.9020502039809174
Ni 7.535065362157961 3.8547013287469127 3.998838054304633 0.9279283572992598 -0.15784876482208945 -0.625191244470491
Ni 7.69256036450496 3.796867933697082 12.806301800725231 -0.35570903704011 -0.3030523300763426 -0.20031130486167437
Ni 8.076621058598464 8.77939325810582 6.905760500333321 -0.425680324022925 0.7932848269490401 0.5617158496246648
Ni 7.00392804792829 0.6233013259445448 0.2682355809803335 -1.986937467298146 -0.17337077171708853 1.7024564724660873
Ni 2.0022219814231 6.572970985350387 9.173636669694648 -0.6888975243802007 1.1032647373831517 0.6175684378179107
Ni 0.20734400404311282 4.86531170026904 1.3081875744371971 -1.3550189314061503 -1.0880168100851455 0.4766035932353534
Ni 6.46404657186053 1.767812931191233 6.964929632071843 0.7753670661283549 0.8117790290984859 0.9403426718032126
Ni 3.189708275911505 4.1813744799550685 0.17054755193777665 0.0858517056584973 -0.04980123979284326 0.662219243758066
Ni 6.1954433903200945 5.785295795092564 4.8888890906487 -1.0052979936286752 -0.38856002213185986 -0.6439816377041166
Ni 5.03390751160924 3.0833133910282964 9.405145861052635 0.6742453216846646 -0.8061953643631211 0.14755329643335233
P 0.1210443131447298 5.576327615307412 12.596699418983667 0.8650481728352715 -0.06038107219121859 -1.533111019858308
P 3.923681027908771 6.074708443983372 12.925624578573638 0.8632314313415068 0.6486240215721345 -0.6228248011208435
P 2.4534243718779494 8.338691141075689 1.4889988251818036 -1.3744549286435748 1.4407677929381961 0.4087814913850573
P 6.578985440058999 7.9409728123110375 5.590193617622774 -1.4816290499289324 -0.26862217342293093 0.06832732362148879
P 4.838797145018063 1.1013822326009677 12.766388932980409 -0.34173920512357914 -0.3535307984418686 -0.5471459222302899
P 4.083205112555347 6.265505873309977 8.141210478793749 -0.07611699486923666 1.1560898516039833 0.13895629879296068
P 4.560185037336215 1.4475454927135813 3.596974210312686 0.29474998085823434 -0.5740705145352758 0.07505590059457397
P 0.24485472951399523 5.437294532179436 3.587998023368592 0.06385308990021907 0.9376787518178045 -0.09144771168903607
Ni 1.5668336942716816 1.1840013683864405 2.4513497944595475 -0.3922423560794535 -0.596666911778553 0.7866230986581485
Ni 2.087570824338049 6.394011385941941 4.774919268481195 -0.6027185172892717 0.2906940656213058 -0.3849651056917499
Ni 5.969259857571714 5.61523504092621 9.139664554565941 -0.0034270234036779686 -0.2723250761958149 0.9009855101618289
Ni 8.661360721827279 2.197678110917345 10.091202244001456 0.6168004493036344 1.1763429454260643 0.6103986595423488
Ni 2.4204222126825847 5.31533121763445 7.13351361468115 -0.8766176228404258 0.08604942349160019 -1.2113441440915977
Ni 0.7622570673705196 8.91567843605679 8.809474630672645 -1.2756404921768225 -0.4305592493817811 1.667089405820703
Ni 1.4851335598864657 1.2273946127213438 11.381479300059784 -0.6943300082496817 -0.5084937570757307 0.4929938616679187
Ni 4.178781258182066 6.996785314272827 1.6703141618429864 -0.4169038633818756 -1.109945748947753 -1.5628527698971149
Ni 5.597373657275672 7.902938892973673 7.97465011906976 0.4141602391984674 0.3553082020572655 0.3518477543124908
Ni 5.45670274987001 2.9323787848158047 5.050667913384223 -1.2699961494068515 -0.2618087500455233 -0.414221431453706
Ni 0.9391739359437402 7.462646232012962 6.7457123119178855 -0.4980167688038068 -0.6107082203629676 0.5998003152012121
Ni 4.989049324448185 4.51973077767738 7.1894999079067015 0.5393343966056712 -0.014845035432632497 -0.9931202206155605
Ni 7.851811478438587 7.2553795696718515 9.106784322289027 1.7546424104410232 0.4729179168536501 0.04379000060175684
Ni 4.793456709597467 0.3424117326143372 10.611630007259816 -0.41805134672275746 -0.27905750982364197 -0.7891731187735118
Ni 8.41622392257657 6.980689141232683 4.819944877679525 0.618105027047671 0.9594873630524637 -0.28271644673246793
Ni 7.362274900862131 6.2561338788321095 6.904974344680032 -0.5425017385900592 0.0010053013360627847 1.0590561611867375
Ni 2.2195339660006828 5.106344839801768 2.454745550128616 0.5468111645986905 2.2182408496659605 0.2382391902556994
Ni 2.2116997065390867 5.415211201501975 11.611802888621202 0.29978754328214174 -0.359220135517162 -1.2003033128964038
Ni 1.1901341104039966 3.4789844394458393 3.8476732427908886 -0.9485375489091793 -0.8468169945392253 0.5638681200809772
Ni 3.3856011585464665 3.1972513666126234 2.7346497191850827 1.278640455345411 -2.225799892960141 0.6114037037680954
Ni 1.254282227946682 3.392298040037447 8.199992902022261 -0.6714677589395275 0.04106103170636799 0.5816791801204692
Ni 3.5117045289044913 2.6998805295745707 7.3965045183633835 0.5875829471994138 -0.4141936635395641 -0.6741144525337551
Ni 4.219208220769605 6.919461810318538 5.954569483703252 0.37595621732492024 -0.024570490250512524 -0.08395963084210702
Ni 0.8741641408505167 7.746963427595415 11.21665048455826 -0.2829979825286288 -1.2233679080253512 0.5314457378862137
P 0.13429795116071216 5.89706820302084 8.091164028281936 1.1982384599475753 -0.6896210328097865 0.19986573268382354
P 8.583145513544027 1.7459297790366006 7.961825954975482 -0.24594915730544742 -1.0922007662595061 -0.09096280163281754
P 1.9585011722326597 3.1932114000609992 10.371745164526219 -1.2134131108054844 1.3436209739818539 1.1221610600670222
P 4.077026875418967 6.093525225129226 3.677357715959118 -0.4010833514098512 -0.27437990184231453 0.5409266807934555
P 7.062480265855549 3.871034076404944 10.149225808647973 -0.8548059262819729 0.7459431044402831 1.4338196437551372
P 6.212722436449678 7.524455900448064 10.314027327078202 -0.21420708900716012 0.9782867551471539 1.1810259527240303
P 2.552449047511573 8.399563610063002 5.827402437467107 0.372498597793623 1.574777546359159 -0.5609110943351824
P 7.037749119262497 3.78291913026546 1.523317613115952 0.1663318625924361 1.729802725689524 0.11279326724434768
Ni 5.161585013078597 2.928156837788882 0.5835476911156097 0.19998580320145556 0.03125792957301714 -0.30947417444228636
Ni 1.433842362923612 1.1034750080668994 7.108783377990473 0.6291237467556778 0.741964065187877 -1.3478830916923172
Ni 7.192559909598844 0.5359870938963732 9.32311088259287 -1.2195942999155318 -0.35322072340061744 -0.4157337543331743
Ni 2.7246935673815074 1.5333401877930113 9.33598873092736 1.0168849271353262 0.03261032983585351 -0.4838371348693152
Ni 6.447613734941085 2.0351422494045806 2.434383754747478 -0.7441117076584991 -1.3193549023456375 1.5128360716593559
Ni 4.231364516519538 6.729319510703006 10.861463722577975 -0.4701606658234871 0.18794481287652148 -0.8699024156037792
Ni 8.057085454575182 7.049095601897352 0.3204030139317489 2.370385365014421 0.5412982052002613 -0.7453921170328195
Ni 7.98230967727507 4.054534088672085 8.212164666112594 -0.5020366885964773 -0.4651035630155538 -0.7692799793940106
Ni 3.0479818817491124 8.445595571289733 12.596713067519314 0.3877655512550225 0.02427224228380336 -0.241219613040262
Ni 0.17007076309249483 4.837186617811672 10.484356502445621 -0.32997486549879945 -0.41801046618249305 -1.2336780317021077
Ni 8.758283522971205 2.24998839854187 5.720144055228608 -0.534681214104376 2.301619925414249 1.0664300850533053
Ni 3.7063417462598935 2.7135108671744206 11.669839191900993 -0.12627793199434378 -0.5201010022973559 -1.0985670747971663
Ni 0.9196292328966922 3.353135841753232 12.542111645710781 0.487873766832534 -0.09259262392675667 -0.12019444480442525
Ni 3.1410193997454185 8.59465577860665 8.128638357657758 0.9250973156083682 -0.7055549304312236 -0.9711349745937211
Ni 5.56803840465757 7.716836559909766 3.3467410478512463 0.7886061905264482 0.8407427633206874 1.8319166588431548
Ni 3.265630530205997 8.637694161014721 3.726192176505443 0.15850208213537217 -0.35444713960855084 -0.48864406933965526
Ni 3.2540656710007836 4.625206661160332 9.271545805014691 0.6431126048356021 -1.084152442033733 1.1497528536423618
Ni 7.236835759238945 5.825713658656338 11.615038501472007 -0.21283643391187862 1.0025001191685636 -1.2635578499806754
Ni 0.43058946201779974 9.018269929006264 0.08864541922497941 1.2783774314920113 -0.042491336394991336 1.0849739094937636
Ni 4.623141182765695 0.29670278673126194 1.5233440002848704 -0.05762330694042334 0.5271926190368147 0.10200131883516625
Ni 6.172441058242377 5.589621289027961 0.6003444889856518 -1.5262891118404682 -0.5988248386618203 -0.8680764181386341
Ni 7.88181095979153 8.714799288398654 11.704771254036896 -0.6305625360847333 -0.9369066495384702 -2.2448211712576502
Ni -0.01031920285179569 4.835284921844804 5.9383486540375285 0.8566681763016925 -0.5461516766378207 0.06885054311481045
Ni 7.751330959002577 8.785489604028317 2.6516020193802823 0.8686148071406072 0.528378926035432 -0.21022059355558634
P 8.582554076999308 1.7593599381136225 3.557540861120276 -0.22994378301612658 -0.8021944707338442 -0.11419091892282271
P 1.7508432518696575 3.0834043812659457 1.3842845299879756 -1.9439013141432777 1.49205795857174 0.9649234464663704
P 4.880470673861396 1.0664965754862645 8.380695874384065 0.014221285805704541 -0.13794508391962695 -0.41804928984022843
P 8.432665858519782 1.5684897165968972 12.406447931082955 1.5127591956748334 1.304879848657914 -1.0369359322489302
P 6.457013026490247 7.6616236837042315 1.3314264811328027 -2.5290566257378058 1.3501027250514555 0.8487952013115189
P 1.8809228956129527 3.3337367230864223 6.051519581918473 -1.0948729137750306 -0.45692025587381313 -0.0967074174260786
P 6.906914256546712 4.059638641004205 6.168192724046536 0.5891016978367855 0.19894502064176706 0.18507494752789416
P 2.4718589940256774 8.699913285519244 10.245443435450118 0.7027313449394994 -1.040792072770227 0.7120832184680446
