# total energy = -381171.8719695541 ev
CRYSTAL
PRIMVEC
9.25517545858318 0.00000000000000 0.00000000000000
0.00000000000000 9.25517545858318 0.00000000000000
0.00000000000000 0.00000000000000 13.54588481110699
PRIMCOORD
 96 1
Ni 3.486230249252668 4.051915830515686 8.777570490649088 -1.595603996186207 0.5266357180920801 -0.46570751514813985
Ni 4.0760810937260015 4.287524833022395 6.159733921967556 0.4715781149963039 -0.4841598083160565 0.5851280579010182
Ni 4.439976083731063 8.306455218083633 1.5481187576972522 0.3041892718942632 0.6472366543063047 -0.19356601571804086
Ni 0.9739313722270355 4.3480999566193015 7.381952036090613 2.5478112806374895 2.0388606385299983 -3.0901150442841296
Ni 4.077191714785074 6.636729007523251 5.370211921423995 0.4420533660643096 0.8194758835221112 1.9469930656947243
Ni 7.653178655961773 0.8469207479115195 8.806897365231444 3.6931127833767174 1.2400821354562386 2.1130433924909995
Ni 1.6093454456488134 7.755827807346538 6.100321248412479 0.5357438510409354 -0.9240143669568345 0.3537269736130747
Ni 0.4481244911251093 3.040195576753713 3.2652897743836555 -0.0806670761337643 0.13744320458254394 0.5638490939175838
Ni 3.3871721059589053 6.237497757488704 10.408590631783248 0.4965334993900609 0.012247964129417616 0.17567705125276198
Ni 8.36980689432822 4.341251126755021 8.351512188932649 -3.3121542277411993 0.3750632731970057 0.9875373272111445
Ni 9.080030551254012 5.909984862343756 12.737724032711567 -2.600393425609579 0.4106481122801508 1.2340719247064167
Ni 0.5932400897386032 8.869253184593061 10.398200771775626 0.6419574081852364 -0.018180270453452562 0.17549244604578165
Ni 6.845572042506317 2.6084138745128533 6.5891925751598555 1.028273371477926 0.8304490947041634 -0.9534308724457388
Ni 4.968233735303342 3.3736873152666678 1.8524400340936715 0.008157338999811758 -1.303026340388943 1.3796665547515012
Ni 3.5731363471250805 1.3528567672315426 9.038599758162867 0.6183953045945801 0.30861722575862977 0.6733899156629047
Ni 7.767766983731565 2.333877603885657 1.7537585764424442 -0.7721066502095283 -0.05608835835313566 -0.5538888973810783
Ni 3.6807740381001777 3.23020432961001 13.393886358551917 0.22636840696004243 -0.17793885070374518 -1.8529421120548863
Ni 5.991263813516868 6.977624886430022 0.0604427745873659 0.16832678153527783 0.22099197313947747 0.3173702893609115
Ni 6.016484166733303 5.365669481292389 4.863297630054438 -0.5307325138692731 -0.09215296528617678 0.6449828252751215
Ni 8.427827589489258 4.034395783308819 5.145486079778644 -0.5790242589961253 -0.6089801819282674 1.0770196876436935
Ni 9.000852524917645 2.223879843160031 7.305038751197203 0.1386379962215935 0.29052514414360936 -0.07935375663897946
Ni 2.3641975587983324 7.699778464565352 8.829952932900236 0.13553236071307626 -0.33146507689108073 -0.7145874729471371
Ni 7.761723354135113 8.547321160269952 11.248963343033987 0.08658112762535411 -1.1287446268218109 1.2943630082869901
Ni 0.9349300627026108 0.6449737441877433 6.189182964866409 0.25158938631036026 0.6477243925760007 -1.2685961837355315
P 2.3168480809798804 8.87144666118473 2.0120649713263967 -1.1326460187587462 -0.5223383762683069 0.6981324127149074
Ni 3.542492461070175 7.489695236066321 12.948403294512302 -0.7439486997180736 0.011870526185340846 0.11737857262218493
P 1.736493046561615 1.6170457516583818 10.498277909891089 1.4570567599062068 -1.98806155360026 0.6117639153209915
Ni 0.7337873337291128 5.753905582842119 5.100066306050331 2.501006661579125 -1.014400727260892 -0.5163808731332914
P 7.490981705459746 2.2843253943000446 3.8334853592401767 0.002701972312195347 -0.7463315981279534 2.151503753349727
P 4.434025005889533 5.697717412428549 12.262723437474456 0.8536628138164652 -0.7398848140613452 0.5021444178189352
P 0.18325802785223594 8.177863809794037 8.243145190128761 -0.7877762384259852 -1.240690972684831 -0.1289621636947263
Ni 7.972306362110726 8.836027104575814 6.769285332993735 0.7880261496532622 0.683683584279429 -0.018150445656781644
Ni 8.27341424157623 0.10920181563329048 4.541013909062622 0.06076030990750827 0.24875037419966836 -1.4023927927044235
Ni 5.360495838192209 3.02986680090434 4.234592633347007 0.28350603251329887 -0.3290366699552462 0.8067054712303203
Ni 8.554688279961798 6.3753350860950775 6.693238332526403 -0.9153104114249333 0.48480618365080375 1.4846225853396173
Ni 5.692506748626402 3.411513217503574 8.571469764164382 0.3626846970269947 -0.7399704317966159 -0.9750307101037015
Ni 8.579279281244759 1.61018766661861 11.299435517063532 -0.8777900458819721 0.3389145911905905 -0.9900315543879079
Ni 7.230476280878831 4.460661400956286 3.1628960658424785 -0.31458089954123236 -0.4743068267813767 -1.5566936922742547
Ni 6.50525923965556 5.436240194420946 9.568975919405327 1.4000011525437952 -0.1437362366801073 1.2388711458672728
Ni 4.249948820523781 1.8596053909597867 11.278655797048286 -1.1834417612543748 0.4852077899645966 0.23037521412659034
Ni 3.365394678025594 9.05098781055927 4.577574628809735 0.4112690336936014 0.9541741783696664 0.8157416132906596
Ni 3.1481201781690697 8.787659557453212 11.176235248498182 -0.04754663943071167 0.2331589475193146 -3.0099850716007586
Ni 1.330366690785327 0.7088474123300936 8.463618278635414 0.30747796994786397 0.7950401190772501 -0.07814173860874929
Ni 7.0152008989286365 7.748469942830182 8.700941339643293 -1.1140394594011522 0.026467193052593124 0.07198343231683732
Ni 3.4881368154040757 1.3062754689789489 2.464930888856196 0.32347511670706874 0.1547176753922755 -1.3372976028669872
Ni 3.432392893414135 7.159720464240429 3.4327168245563637 -1.2068884223130891 -0.473523668758449 -3.1382466096840336
Ni 1.294947134176411 7.319557344991927 0.885848016032006 -0.03684570807343977 -0.031077952351727126 -0.08697116397492119
Ni 6.79081842429405 5.245019013575161 12.2790736304991 -0.07237578265924954 -0.018949030298677044 -2.6475261174313243
Ni 1.2876540558885023 6.9403913154246215 11.54118903057956 1.43313007388728 0.5660898103226444 -0.3249154486980211
Ni 7.364241332268605 0.8853621193186619 13.35219179295924 0.17713949473090138 -0.14608931029331615 0.23491835341258252
Ni 7.118173981455629 8.063145909567353 2.166678231030058 -0.22543381096091497 1.1675238044725376 -0.9943697767519455
Ni 2.414767837688094 2.579380388993603 7.168753515520884 0.9833119762758873 -1.384890522154602 -0.9523173276665857
Ni 0.4591076078817858 0.11126571976806662 12.970265870060139 2.510842416722624 1.9139147950835167 -1.5728813577777105
Ni 5.9420170247225 0.6450524131794277 7.711455719483949 -3.5843636042947558 -0.8131376000089092 -0.8603654226476215
Ni 8.804420680269711 4.204468888154767 10.949774986965581 -0.06467378602930152 0.506652590101934 0.06329104674916196
Ni 4.83830958174286 4.175703802724793 10.685806275715457 0.032268887336034745 -0.15588649888939604 1.3355135143833707
P 4.611881713324481 8.171098276509188 9.07567506566735 -0.03404269140700589 1.663914093416515 0.20213833076808413
Ni 6.402600833095304 4.524429560098024 0.750978822206004 1.5293487246023985 1.3228973682812573 0.8009048053881432
P 8.41263059133095 8.117881017428637 0.13365306376631786 -2.6476299899990403 -2.9021568616711697 1.3929067075908592
Ni 3.4274136089992937 5.767677283974616 0.9063685911334665 1.8564077020059835 0.05591043801437467 1.2533086614488418
P 2.8154428950994346 5.955316711904892 6.8749433419310355 -1.544098372107747 -0.05916596883719487 1.457317212656445
P 1.2755853070465826 3.304717747498274 5.335751200996078 -0.5479679039109531 0.21471616743309474 0.5527722672781319
P 5.1147339081704795 5.666990229794214 2.6581771020996894 0.38395209104620326 -0.08428281850948066 -0.14055192541485473
Ni 1.3452675233278815 0.815027413165158 3.8503640227854294 -0.5257029218651657 -0.5126260340765495 -1.1378370760413823
Ni 1.7547997836853244 4.940940222776638 13.236645554526 0.01953832714324377 -1.0290333895724022 -0.18029552386137984
Ni 5.967329929693859 0.5758255515323485 5.250087147674727 -0.3350751628398423 0.7968092951625309 0.4346385616574773
Ni 6.074967620668956 2.8700299201528416 12.581959429176669 -0.1713138891880598 -0.673286300205505 -0.16009539476442106
Ni 8.002681848076355 6.538170643706071 4.195377529268711 -0.22782159446680117 0.9267837021718555 0.13002402930033735
Ni 2.9298183538329043 0.7930454458534683 12.960906111084807 -0.1881805830364114 0.8179882432329911 2.0532475033792896
Ni 5.60898804498416 7.590308248842786 10.952904161799516 -0.40382903247578844 -0.8837897151088328 -0.3196488009824431
Ni 5.956973388318009 0.945777128379551 2.764092404915675 0.29812018288204784 -0.02020012909695876 0.5215840146007856
Ni 3.5480270560145524 9.310428889958576 7.1008344101708625 0.03939058598248055 0.02729457404989493 -0.8357044295658318
Ni 6.302700468831745 7.4116185756135335 6.005189150562538 0.2874717020292662 -0.01336665111489311 1.1456524583207432
Ni 4.855811118598742 6.198440916911325 8.286695418407636 -1.7616653787260756 -0.13829115440513604 -1.5794497550238475
Ni 5.3046408540963625 9.127065353105728 12.709629947504784 -0.5725509925669559 0.924793411214704 0.41608342436310924
Ni 2.7717121908984605 3.70618875000195 1.7880702885449355 -1.8467976897200453 -0.3978687011272954 1.590924074212034
Ni 1.3262851583932362 5.350250358922267 2.6796879809788225 -0.630203610083418 0.31487966172857385 -0.5111700183563131
Ni 8.957232882822577 9.542178484285008 1.8520883374249653 0.5774666847010184 -0.7756041218398255 0.47176889085087137
Ni 5.7376164739757245 8.065589275897313 3.8652232070382686 -1.2075407111851075 -1.4582199269763725 0.11102049161464106
Ni 2.947023725073034 2.4714465324027537 4.313781765893966 0.43098528117560614 0.7736017466978161 1.3064343376292273
Ni 8.283215472422544 6.27275072093876 1.792634941097723 1.261307620493918 -0.7112059580694139 -0.9875913203775315
Ni 0.9227271138160531 7.5955096574694405 3.5676202625316877 0.10528024669675418 0.8448259322511257 -0.6002271183259856
Ni 8.445708588540322 3.2791549527886246 13.210380291996488 -0.22362298300442132 0.42213477276351175 -0.5652665430904007
Ni 6.1724801496555095 0.8009613974520065 10.686416191780399 -0.1159356695280713 0.978145087362967 -0.5192371116351638
Ni 1.1292794928647827 2.1007489884108743 1.2554136520611807 0.364474699047882 -0.5432812970685611 -1.1004786899975822
Ni 0.9581605531882078 3.078049244517096 9.266062355201282 -0.1011752233894451 -0.3592931548469425 -0.09611323548550543
Ni 8.582796247931823 6.543788535229879 9.971315057370177 -0.18704132722564562 0.986412983798714 0.40017935153834305
Ni 1.1751018667270101 2.670173660572769 12.220528166887648 0.805211146072981 -0.9664524815163872 1.9341907717237334
P -0.4707080448437967 4.208161703176183 1.5007489184927174 1.2253083195811734 0.9380297073993199 0.4266228904418523
Ni 1.2099290921044212 5.5021185335749205 9.519289509775076 0.8806293151029801 0.0004699976578830616 -0.7185312880862335
P 6.5586153263684945 5.319754555675239 7.155153035134994 0.6886213879006786 -0.055403416470969094 -0.17432156566613205
Ni 3.4608247925263873 4.8237419355180275 3.8843231127016655 -0.2603902724314419 -0.3712801520054896 -0.5735300686507736
P 5.212857278739523 1.3410841840053753 0.8117233155144178 -0.18199270905814463 0.2885243116634967 -1.1409532530728608
P 7.260194649384509 3.0870545302710743 10.002457797384116 -0.30080338614116586 -0.8908587061404722 0.4548309774449521
P 4.828276971509239 2.1989186348573795 6.411240539417338 -2.1659911483326244 -1.0881692765026096 0.05737519548535926
Ni 2.3062786705677083 4.060810054163757 10.96772354879774 1.5230397516652352 0.6457945225431394 0.10466832414436814
