# total energy = -340875.6949981003 ev
CRYSTAL
PRIMVEC
9.16319504683159 0.00000000000000 0.00000000000000

0.00000000000000 9.16319504683159 0.00000000000000

0.00000000000000 0.00000000000000 13.41126218098773

PRIMCOORD
 96 1
Ni 8.913259662313648 8.889838535974755 1.1760951578577175 0.6357085990620471 -0.8815263729959527 0.2095199679441359
Ni 0.47876410861905416 7.427896594762416 10.688816532912448 -0.9946104320078418 0.004472176838740685 0.3337962961274187
Ni 0.5448334932987579 2.1710357838317678 1.2932951704603575 0.8531020562169888 0.06368313998125806 0.07225416947972071
Ni 7.460645853579006 7.924202723828723 6.428889342861448 0.295251345974685 2.2969983674818377 0.7666646532583505
Ni 5.68710946747071 2.55017213883883 2.4408900430082707 -0.437729284767659 0.9613251875921508 0.7206732741299008
Ni 6.945326094953543 6.25127821847201 -0.10909241769471621 -0.5894840208768687 -0.5106216020520109 1.4615124816847151
Ni 2.3950850640008916 6.043942605925007 2.4763360301040223 0.0691549617291067 -1.2542190890782527 -2.230080522613366
Ni 3.440559793905444 7.67120691075484 5.852178926907079 -0.7577462677227982 -0.5455235561355185 0.45250438619430455
Ni 7.440111133655117 1.1907755125163801 7.121661702603398 -0.7637438800671298 -0.9832644108674035 -0.4626440457314678
Ni 7.60485621598961 2.7167956761418175 8.9912989285804 -0.8004335221786796 0.535379268612665 0.880155203680039
Ni 0.3848569376257519 5.273446193823213 4.3397633588510285 -0.5782752966452428 -0.27350366988494834 -0.07966923099686925
Ni 4.4745713669046925 8.283134233930754 13.140542053970696 -1.2445543122949791 0.059843197409877584 0.15997738112931803
Ni 8.271112122132386 3.8963829276019424 11.308805635021445 -1.5162134727720211 0.5148706071363519 -0.378592883616819
Ni 8.125289037407367 3.56507845032924 3.0548708381765732 1.1732079993415085 -0.8249191660248696 0.11544844547900762
Ni 4.479656940112082 5.3997058572909795 3.767679440036139 -0.7304779189251484 0.2633305860066884 0.2552930604141926
Ni 9.082265630308386 0.5449177946924659 5.415936624538273 0.4773517842552876 0.0019470964240418077 -0.14387739024366186
Ni 1.7590402116684962 3.594593101322032 8.550631719361418 1.4886885278788748 -0.8486877291993772 0.6884658361594207
Ni 6.852026443786637 1.4994194086325554 4.436566099454304 0.11923773731811078 0.5548335206825348 1.509577198402426
Ni 4.492879430451293 0.1823246718811151 1.84124598268732 0.5461892147439754 -0.021688283606711038 0.1543669769210761
Ni 2.530315495342593 1.139654047788412 2.2838035590282564 -1.6474495201025887 -0.020011410124920373 -0.2729699088686654
Ni 7.729640605067486 6.401976122920148 2.12132636744841 0.28349883342444726 1.120913046592534 1.078985810231129
Ni 4.8404943947675125 0.5276680801647012 6.318836622334057 0.6105971487064 -1.0962595097099121 -0.18390252448634778
Ni 5.2052903496492355 6.877133597999691 7.2781305872425515 1.3564564351836252 -1.3322854943643765 1.5424875759772014
Ni 4.98648241700196 6.300502901841546 12.061740783966552 -0.3743644473577682 -1.3239242668838747 -0.6560095154029282
P 0.3684218311306662 0.5030859770233282 3.265695795367493 0.47705559317110746 0.8744339849255458 -0.39574214170259586
P 3.9620738723294564 8.81150238219103 10.554100156808467 -1.1993882572813022 0.19030148603415611 1.9142706357610386
P 3.208675982038451 3.983213363121251 10.095274244120867 -1.342720059434139 1.407808050182724 -0.4446290972112859
P 6.599507116851105 4.679075552206501 2.0781823802598165 -2.0240495416590947 -0.47674886056396604 -0.7839499227013594
P 5.59308592390131 1.9702152029072038 7.942726122457076 -0.33467741318079136 1.3547494797948476 -0.745361263794884
P 8.104818459848255 3.519775614406122 5.365953228625364 0.10303438808537095 -0.46374216389165296 -0.2747372851817333
P 2.0554054265271926 2.415757231849305 6.457603130614013 1.0675032635128259 -0.5478761155280952 0.681512030549407
P 6.249830433667024 7.470047291616449 9.271057685198103 0.6903265435172433 -0.9491355875044944 -0.5298274855565004
Ni 3.793745980762371 8.364512568443944 8.44221554545536 0.44438484241096365 -1.4071634746201895 -1.1863139405958472
Ni 3.473364031891844 1.543760109084005 8.156890147894433 -0.938777641308938 0.9544446584222337 -0.21343781494130337
Ni 8.582138448940311 4.424531159182981 0.572276345909224 -0.21658175988692377 -0.5622380406767221 -0.11189081003473633
Ni 0.981698892925406 2.9166816111796185 4.62389479210759 -0.2621519923175549 -0.49528985679094706 -0.10826581168763937
Ni 4.7804937941152925 2.682910181149162 5.367414758222803 -0.4139015862204421 0.15156087493084866 -0.33291132241930405
Ni 2.6001940201706057 1.9630404212470498 10.609354222467124 0.35079848711237005 -0.7825299024253813 0.14060514725029333
Ni 2.7486652682414543 6.862619097169954 11.14709265390195 0.5447185437357199 0.9435866326618072 0.7879266479609205
Ni 7.298594750565185 6.513904549457543 11.026310748386214 -1.2361815148502517 -0.8160815131285817 -2.079347542900451
Ni 7.75417047799754 5.759727787594235 6.640009354930346 0.3508758773175248 -1.6289722872340076 -0.4054861084632372
Ni 7.9583722778653945 -0.07166443152732822 9.560647633697263 0.7342278728858839 -0.2759187070843442 -0.19601113482442373
Ni 1.0814769229348777 8.530064011935643 12.61142802164 1.5555575217872823 0.017236161372628383 0.01147277652628992
Ni 4.133343149481356 4.540445575531573 1.5807720861998336 1.934048075498282 -1.7997449592066164 -0.3743713893363036
Ni 6.343331675123232 8.535158748338 3.403053920580826 0.4578034298097148 0.36575048043651204 -1.1954195024415413
Ni 6.522802011771732 3.7284673798084285 6.993892860924358 -0.09633512168832442 -0.5528398872912738 -1.1154898186944338
Ni 5.6786701649049345 7.189506914467953 5.11348613190115 -1.6091228566082483 -0.6563553287781212 -0.5473958334575669
Ni 4.350455891059501 5.904597900042554 9.655143081807529 -0.28697316512629284 0.40926074501432097 -0.30435048006247584
Ni 4.977951482486503 2.9357868726884577 10.084880432068362 1.7120621138766514 -0.8639338567251702 -0.5625113489427667
Ni 8.51949884813723 6.74788673297227 8.743861509574268 -1.8608117446109502 0.02128642018260205 -1.0280291166776037
Ni 0.3954660847600127 7.485588070282632 3.184892909498311 0.25692956757635105 0.09793254808243133 0.9713452908323142
Ni 3.7160787402113304 7.844565396359505 3.4266583108190845 -0.34955870116799803 0.7602366382448197 1.1753116759480726
Ni 0.6871085889320635 7.113470722621264 5.987310395743123 -0.11540987893158833 0.8328420204163721 -0.3949170746981392
Ni 0.5775543462109465 1.7671771288003184 9.160656763261919 0.09478346093048838 -1.147031598056457 -0.6618191801061699
Ni 4.244758437100528 4.218615841856059 7.84617811867392 -0.3721944362896429 -0.23502659685567265 -0.07394801224237586
Ni 7.1099978717282895 1.6515376083007747 11.13999759203802 0.6080972651026817 0.42331208090106454 1.3404492611220915
P 9.148341429224567 8.900412862968135 7.654933992810692 -1.2506863933346462 -0.28530451917461835 0.28328286075889925
P 2.2319160512009413 6.526980428677263 4.4124394071028545 -0.3478977685258073 0.3678533857121278 2.1400721144740174
P 4.908696054916332 4.810842295850197 5.790325528232276 0.65069041718286 1.061750677299765 0.42004600855528307
P 2.346089460505562 8.172855182487647 0.997450425075859 0.6645442923468168 0.7433293209665198 0.29679940718809533
P 3.424863240924801 5.749694089103981 13.56482088898893 -0.47476474025440174 2.3339458912404645 -1.8794414438969957
P 0.40807647367534333 0.7661493924088475 10.93833308085688 0.022894130989354118 -0.5264122892273644 2.1508164974747155
P 1.3285258224743548 3.7963758177182636 2.5379337756392113 0.13408585807453682 0.37656505455351275 0.5516420103284306
P 8.052221720730397 2.1052073911797295 13.422393684319152 -0.7655925032400943 0.6150670115522956 -1.1315432726128705
Ni 2.6989366091486633 4.531126606248844 5.56810155650083 0.8376181016487768 -0.24656056563720116 -0.10719803254475731
Ni 3.623933651610426 3.961716507725694 12.20710479262366 0.6880200068712538 -0.46700823623743437 0.3509409262275053
Ni 6.750177531714337 4.935608358538135 4.443995617934576 -0.07748559308198913 0.21126626121128134 -0.09098799844379814
Ni -0.00750099140102429 2.7266461107327062 7.097119001200388 0.16633314814401676 0.8456664258745501 -1.0275539768133979
Ni 0.9683572810516076 5.015117401277799 7.058641829209135 -1.2249306245267806 1.0304960901608575 -1.3433276111111512
Ni 0.9717476631898669 2.8183788555600384 12.136454726779318 -0.36359255355324477 -2.127914653175877 0.5774232330575926
Ni 7.675788508238973 1.2635221173694609 2.2405926805163947 -0.5010236739509306 -0.0742496026431947 0.2369389833870371
Ni 5.970444619084529 1.2348688067036862 0.46146124756047346 2.963850996246857 -0.8276651042011229 -0.9931575016113992
Ni 6.4720104220626204 4.9624107038203205 9.120865589112215 0.9059711363018783 0.4211590391138037 -0.07909973164664441
Ni 1.1462790377504701 5.003480143668098 11.364716701759326 1.1429404587062189 0.5762047872694592 -0.5881406194750968
Ni 5.13515525536211 6.861565329748604 1.8778318712371243 0.5524292821164164 -0.9185458876430954 -1.049226062470193
Ni 1.8145050308114232 4.225057567918752 0.42438970967735107 0.432738516421287 0.581622872961237 0.5413329150929387
Ni 6.060931169396176 8.703431660735276 11.414285004940172 -0.21610353469892463 -1.441591317280756 0.2998178822994449
Ni 6.3209918057905945 3.642150083207343 0.022380187390498078 -0.6005503059933592 0.1445376495354801 -0.38235646442430926
Ni 2.5687001190646686 0.8701214167552955 4.668661581125065 -0.9320755466984142 -0.025470119246646456 1.261935226775588
Ni 3.436005686006215 3.234580334213745 3.337177879314953 -1.2964193765953864 -0.8777887603303914 0.8698959878458761
Ni 1.9273131240657722 -0.17728491464856763 6.999806786956879 0.6274293897723905 1.5064247688163734 -0.0010793491071078186
Ni 4.650559689465251 1.3685323317058136 12.068218246489621 -0.6549965007573817 0.39100488412792656 -1.6608873907750492
Ni 8.036461025384975 8.218451240649749 12.474552796801497 -1.1637512248039827 1.6220912438434578 0.3613492660450229
Ni 1.935880711361103 8.855485718038718 9.568090896969988 -0.6906422749854493 0.4442583441354285 0.3478239778650784
Ni 5.618614585082906 0.40025660308942335 9.350546568908836 0.1816101289077453 1.1175806397851915 -0.6832385263222105
Ni 0.7759311030374737 6.478204741861171 0.8235229050636649 0.2519624533790628 1.0442640904792273 0.20795905121491925
Ni 2.51408747705379 1.142797023662528 13.09177919562756 0.3189977976620055 0.4778762893001899 0.9734597660721558
Ni 1.5110841558271606 6.084847108263356 9.044232873273092 1.4020904309726563 0.12217522267987992 1.1600380376184538
P 7.647620846906517 6.964568804386906 4.491700127258876 2.1172034374059603 0.1092150629747861 -0.6774861972194655
P 3.13079798800314 6.262164094094313 7.702382848995378 -0.11311054137445037 -0.007355154813490558 -0.7968414339520471
P 4.549407180210539 0.8522486049696886 3.964905299574651 1.4363562941340617 0.32037770872866755 -0.0415251158269801
P 8.922697753130965 6.262539785088012 12.428860525092228 0.7903946498854387 -1.0765093236661782 -0.10490486563520643
P 6.589299317656454 8.324643507137008 0.9972891528444174 0.2962674459440252 -0.5460082090814209 0.13747740025458904
P 4.1806160723226515 2.354702863775734 0.7493889924923882 -1.3693312342637645 0.4372361471813244 -0.08018679406323609
P 8.972096537204898 4.501190448287512 9.185937101859874 -0.34034643854111063 0.3855186642023748 0.0191806866935089
P 6.119154110224552 4.401119196039056 11.243439067395807 -0.39786021648686315 0.5556205353602044 0.5792836833050992
