# total energy = -340856.1552862179 ev
CRYSTAL
PRIMVEC
9.45191630460690 0.00000000000000 0.00000000000000

0.00000000000000 9.45191630460690 0.00000000000000

0.00000000000000 0.00000000000000 13.83383492613460

PRIMCOORD
 96 1
Ni 3.964814179601272 9.189096188835677 4.075475323734697 0.15711240087669714 0.6201472542886804 0.5688807428042203
Ni 7.0610728785222605 5.578917903927352 3.400591495757968 -0.10169638600023775 0.1441391285454808 0.6256751260854451
Ni 2.1186564613890906 0.4085326110766919 6.4562646118372164 -1.237455753576985 -0.03644230198743401 0.3074386320694963
Ni 0.17477349151354848 9.30783115976139 0.7636231429374085 -0.7943515776506578 -1.2805834380043946 -0.6973834503640247
Ni 2.812512175501951 5.850622686145993 3.8894379837215323 -1.2299884986656624 1.0014282262606238 -2.1994926225241795
Ni 8.560335821384605 6.879038425007029 1.923622787565459 1.208873313953602 -1.127524895482097 -0.6528791973040627
Ni 8.088874242832254 8.24848875119259 10.974768259902108 -1.276733468130685 -1.3888487354714016 -2.0468505987140104
Ni 9.360780794144917 8.142901395659145 7.908222604652674 -1.9458368406030941 1.6267675662732048 0.7016321983380497
Ni 1.1624061024848953 0.313776206282282 10.987536853455962 0.10316242902280298 -0.1808503679235853 -0.47503522030696904
Ni 0.768472921124161 2.0199784565758083 1.6657045702721671 1.2959570922469874 -0.7174820208861128 0.3615241010599903
Ni 8.869961691276703 3.8266555209465065 1.8475773960208934 -1.2238577031775761 0.749281939005529 1.5171534680877872
Ni 6.839623934578736 3.243046957038831 10.09553116875827 -0.02402953014537797 -1.1877838402731544 0.8544099763951349
Ni 6.80158942391124 3.1446147020459643 3.1259490579937355 -0.5400532770495666 0.34124349643408325 -0.38406701935751275
Ni 8.585090389833454 5.213497372884601 12.070436272694893 -0.22609484158368157 0.9063552591141746 -0.17521091024962085
Ni 4.293825929557743 2.6688903093010095 8.660990221869005 -0.03609006085433785 2.7442908704579 0.7505181254054751
Ni 1.3525313962415217 6.322897129488951 8.76735830567808 -1.6021916767060536 -3.0492980102677674 2.7941792706479105
Ni 8.015877094252467 0.7497543463413808 6.6993111842288595 -0.48036074628494047 -2.41227583460062 1.5595902970957594
Ni 0.15284977195757057 5.838240675963483 4.253655285835861 -1.1887192076032302 -1.0813555960148862 -1.4246426052415595
Ni 1.1780112160813254 5.224159134324196 2.0389550686700257 1.1031366964457197 0.2365363486319797 -0.11982446305951622
Ni 5.509436868162751 0.5200623863061259 5.830311463488592 0.3088954191206809 -1.7105281937306283 -0.17732795659262363
Ni 8.16404533213111 0.911279086959644 9.366114510439566 1.7733672405440364 -0.880866885035083 -1.7556754796912282
Ni 3.7026936403788624 2.948629220264028 12.16089489120687 0.6195507583552621 1.4353934160001602 0.162954461479771
Ni 4.783113822006439 7.940772168366802 7.355408383626385 -1.0640998942582318 -0.5241119232289619 -0.35461837507909244
Ni 1.7194453300391095 6.632078759321066 11.644713461680086 -0.270987588331314 -0.8899102261842737 0.12326434197900062
P 8.238327941309997 1.485699443158604 0.8250738307241017 0.846679954740729 0.27984066784656964 -0.5274183618943756
P 4.004663458173379 7.369148634162502 0.701166771270243 -0.26829230088733796 1.083834910793314 0.26261042001121226
P 3.0406247203452232 6.9634251325714915 5.659131590502823 1.1922552457809465 0.1562881052031889 1.0434433943501449
P 3.9376777282776194 1.1729827966789628 7.267756984216854 0.39565858084985406 -1.2557632936369212 -0.11018385464595863
P 0.00458985049208142 0.569088530287545 5.165636650166925 -0.6345163785261588 0.029634277926665092 -0.08624894109691598
P 7.377296185900917 6.76973646641883 -0.006076636905599558 0.2319279033256909 0.6217408240280454 0.049357981607837574
P 3.2022997464305876 0.8937580699555845 11.846272738427386 0.7209319271079261 -1.0182499258036528 -0.7493176773394707
P 1.3725127470245946 0.2548057012985588 8.610386553078838 -0.6382699320313201 0.1287806438115395 -0.1328509572261712
Ni 1.9493159312899748 7.732461387899376 7.399165084343109 4.948785059961729 1.6575992069420806 -0.21185350117331903
Ni 3.8021277984857336 7.9067452701553265 12.512869126306386 -0.4775821550985388 -0.3910524495364104 -1.0076947759956258
Ni 2.3819962977974116 8.927041813026456 1.7872344728093073 0.3336039776109545 -0.6824116595455408 -0.14799938283183545
Ni 4.287219040155014 0.41106666980182993 0.08215038419867475 -0.1629403204123839 -2.5506983723772976 -1.2344457631060677
Ni 3.9421012250451115 9.30858731305498 9.294345165770242 -1.8143177148144687 -0.22461465749372928 -0.9135157814183557
Ni 1.0982086878592425 3.1072040178456795 5.935780670069916 -0.38792187432722874 -1.0413744276362582 1.4406130125278866
Ni 4.71218664306785 7.19252067669643 3.3945876386068763 0.4331522069199379 -0.6195759551662426 -0.7822645645791366
Ni 3.5435800835755296 5.3480548514786515 7.428796841535604 2.2617950801078273 2.4870625406942066 1.1874719654596904
Ni 8.454568879443931 3.353861222214207 13.512834597496159 0.20514549302552415 -0.8901657938385056 -0.300503852622876
Ni 4.531059573504924 4.422457056713294 2.532131479431 -0.4001287008060657 0.01603905574073367 1.1390339245629608
Ni 5.926360890415039 1.1676046563783156 8.598890187441443 1.556764911831822 -1.3032816509328586 -1.5052520886645107
Ni 5.565779740451254 8.372497891341084 10.77853513791652 -0.402478689095481 -0.22499852319570926 -0.028954221140504978
Ni 1.3976075844555587 3.587975733825337 13.636550728243385 0.46560749923516587 0.9520144517141863 2.45351272976322
Ni 7.296028610672507 2.086784600064341 5.161597846387546 0.5220846083862879 1.3750087442645158 -1.389235172276543
Ni 1.4063978664935235 2.6150710986298575 11.742546465187782 -0.7517905643599955 0.47209850627614824 -2.775921867099619
Ni 8.481525744360358 1.73113735034122 11.663208971241259 0.10333006494891882 -0.3471945718111956 0.7601857304022261
Ni 4.868672567175963 4.6289152616114295 10.034275190444676 3.6377487047841153 -0.31512417363921214 -2.4979362501839177
Ni 8.276759432456625 8.241900765622203 3.921324968112154 0.3896856510958708 -0.5902962323655189 -0.04620349513925591
Ni 3.744423850268771 6.81522853894434 9.976546667245673 1.785727561881602 -1.4874767669589608 -0.24965591673307327
Ni 0.7277389431985554 5.819998477755664 13.681898186451498 -0.6586019587204529 0.5786938722399002 -0.04070364836694926
Ni 9.29557202448909 2.343905075632897 7.670709183986864 1.2219756556635148 -0.3333741209883355 -0.9102065145394647
Ni 6.577475039607816 6.228803304018048 11.34474083377226 -0.9836493050106477 -0.37538568953343093 0.4891487768902157
Ni 5.07170917842061 5.830981604345035 5.368717685417571 0.12721278510378736 0.516348220123143 -0.32973575290479984
Ni 6.269446543548423 1.9799779473449834 13.173905897094276 -0.025767081661774983 0.14335005698528214 -3.185348448267843
P 6.659555479626834 4.145619884014422 12.634012445472178 -0.3444671455777035 0.2162647428671372 -1.0769101586490226
P 5.069355651294317 3.104718163893008 4.542228902842842 -0.09284536336751106 0.6534579526256681 -0.4757903533054386
P 2.129053569175931 7.942577484355245 10.041164692140883 -1.8933428844694358 2.1925814972266435 -0.6446997468170639
P 0.596730659126285 4.63866018718255 10.688656867057372 0.7765793412689012 0.5399789721682056 0.06403306712150908
P 3.90642024150391 5.207958550009066 11.622288790567106 -2.094339388323593 1.0370889128870266 2.8968421343264756
P 6.892242751896316 0.5246512916065903 10.876396497172728 -1.757245909502141 1.4485258396170602 1.655096495124885
P 1.3149694813825192 7.230583543112434 2.901481172025559 -0.5612844185142012 1.0403349306281502 -0.2978463603953709
P 2.5040677951310846 3.374088322817696 1.9539596577042244 -0.3574100788916167 1.3585881368146473 0.09200358419250607
Ni 1.246197339330657 3.5515196931582076 3.8547012466056993 0.8874720490564265 0.05022392915255867 -2.4950383598108323
Ni 6.297216273255456 1.3070865832968606 1.3974383951561182 -1.2037624750895977 1.2023185435542196 -1.2239510342223308
Ni 6.068810719010918 0.7258173686412239 3.338311874923179 -0.7171940573320488 -1.2986796333844732 3.988844411421931
Ni -0.10722537260568217 2.879800366715146 9.74900785371391 0.3126224902632809 1.150881053709534 1.4881586235173339
Ni 2.6419145405522446 4.451559506600278 9.782167066020994 -1.2702380902143287 -0.3257387159302648 0.3865633034168052
Ni 3.188027353014107 2.0777107605412803 5.3267738622222245 1.4830398142335297 0.03154692156834567 -1.1994767032300504
Ni 0.9028508133109847 7.477571564546905 5.502476477095269 -0.32793983734664167 2.468317141765904 -1.4419566710399745
Ni 6.005936572649045 3.8617221299366675 0.8264443585687307 0.6610041404040423 0.4331750897380734 0.2443764135016888
Ni 6.968198350237269 8.274736722396277 8.111261106280557 -0.11544098927983991 0.2640792912472549 1.1189137567743181
Ni 5.504058727862103 2.6893820635572543 6.64737857602521 0.29896401893958185 1.6174581159468209 -0.4034153419771375
Ni 8.568190363721754 0.9010247031069687 3.0919864328122135 0.007735420971044743 1.0312152277150692 -0.18526443783088092
Ni 4.9426621669535855 1.5464563602984298 10.622587027838472 0.13065163558200724 0.1822855577082151 1.89865298382844
Ni 3.1676017621710506 4.433449635218835 5.420400763034336 0.1665079831589842 -2.5026812210680704 0.4541102972288437
Ni 6.070464804340643 8.628096608406294 13.239643974055616 1.4448075102252083 -1.258309971318175 -0.1872164193509292
Ni 7.125979186860652 8.635979506491953 1.7342782220844624 -0.13167622019177966 -0.24351715082518705 -0.4393801901075207
Ni 7.806857420072302 5.320011016202693 9.344589661745955 -0.44605631657611566 -0.22341652342057006 1.1604213890998016
Ni 3.9502393248673564 2.4056733478028973 0.7264326883838814 0.00491234969995283 3.090457515225213 1.0212408901111767
Ni 1.9281530909856703 1.174721949254216 13.465190323658772 -0.6185806811325089 -0.694172913846527 1.1463381715338579
Ni 5.769865514390755 6.4706116753914396 1.4490524737848436 0.5932771693707137 -0.6311814006156549 -0.6464187863906997
Ni 6.656994010344803 5.052465077098788 6.882069654522701 0.6529090221007335 -0.20740883513840408 1.059653171340788
Ni 0.7870856344458388 5.400919418616648 6.540761906820866 -0.05622694081352897 0.25145980271103147 -0.2143983790823598
Ni 1.7350598955517096 0.016886793429062328 4.140771051019286 -1.0419331283532056 0.08674876355146995 -1.3949504774937653
Ni 2.203714255001613 2.199933488533671 9.131119080241405 -1.9172027218061691 -0.7726964612747274 -0.05764567553792653
Ni 7.873030285177455 7.525152510545954 6.097525640334936 0.07155765763332837 -0.46294974989734455 0.137233402564583
P 7.300839636002963 2.8809724043202083 7.98313282106524 -0.7300703990740846 0.7986149809127021 -0.15463797119427564
P 8.615081319840405 3.8761268501795256 4.3321203679199085 -0.8587440849941145 -0.26091169215255067 -0.5196744562828987
P 2.036519309873054 4.074428051423077 7.645005643154562 -1.299613715162968 -2.422715284766389 1.1173420414118242
P 8.526772067065451 6.180872637120714 7.641533954345374 0.4901543353365946 -0.19658063417464855 -0.5957719107681094
P 4.0611859168691105 0.8063703790071932 2.175231850815373 0.5258708149015976 -0.042269707302488496 1.228042430682885
P 9.389353936726387 8.584986418755586 12.372442007770855 2.8023857177181024 0.31316473591999616 3.439938826188056
P 6.254777169652808 7.814844289235829 4.791348331373616 -1.049151500478516 0.5667202448177917 -0.4300334587852981
P 5.805158969368993 6.79056848965719 9.213900852440227 0.47299067907311443 -0.667273775462838 -0.039467461967003
