# total energy = -340881.3524853546 ev
CRYSTAL
PRIMVEC
9.10627580613633 0.00000000000000 0.00000000000000
0.00000000000000 9.10627580613633 0.00000000000000
0.00000000000000 0.00000000000000 13.32795511874816
PRIMCOORD
 96 1
Ni 6.599755035349258 2.0624712564935925 11.464533267710538 2.4389425452585285 1.161070592648026 1.1564564909147825
Ni 4.6972628287613105 0.4927979427600643 5.910721406344791 1.4735275038677202 2.5527598828920164 0.07853897404716798
Ni 2.7406338136755783 1.9557548126272306 4.679964547613726 -0.2321598168308389 -0.9072636298610569 1.0900531237888842
Ni 3.8720430267633943 5.165625902178716 5.741936587924872 1.6584265879393827 -0.49394311295506543 -0.2714444733630744
Ni 3.5268696497897243 3.9417697791044417 3.7608153339601444 -1.0072463756042975 -0.16165296905952806 -1.4677733749927624
Ni 5.636447670010656 4.801720916276545 3.110104555230205 1.034403909855696 -0.9066465651023482 -0.20524550893849813
Ni 5.516818527330188 3.365916228393876 0.2638352126030986 -0.1226915001946661 0.3025769331018209 -0.6978902147971141
Ni 5.860726131994155 8.63299514713673 12.59831557622216 -1.2392526975764075 -0.7105768091258472 -1.4295901790548218
Ni 2.6605076945886155 5.379077002462658 11.354778059673324 -1.1363980296020106 1.969302270714886 1.3734601688304733
Ni 0.8398936545148754 0.5582829919222607 0.35126638598390864 -0.801384059017407 -0.8002018657838477 -0.329592028238084
Ni 7.76710671826731 8.761748777977798 7.261003596214376 -0.3156147401223855 0.4353188755539535 0.053412868403501554
Ni 8.740594899737202 2.705529121201406 1.2560094716234456 0.8375008593446223 0.8513819882020887 0.41367224381845524
Ni 1.012016833573193 8.450778572192972 4.019404421184677 1.0789063631434452 1.0879587031537006 -0.7610997575760634
Ni 2.3810907337903013 6.932889915967324 0.31475659518320853 -0.6481398828468643 -1.039054778364146 -1.6190570850028243
Ni 7.2280334147430425 3.1270130877817075 4.2851373816247715 0.4587506242143325 -0.08628802186496752 -0.8911500121286459
Ni 8.194045343937631 4.330762554310464 12.912335473708568 -1.723228672016432 -0.4141129309002997 -1.9422812620413514
Ni 7.836451007032762 7.385908914982919 9.177789923626372 0.1597891763779119 0.4275857685757539 0.8402390842113916
Ni 7.158470575362965 0.9736065630528146 0.5438595619845588 0.8738914821585143 -0.5073120780628038 -1.3630225184369171
Ni 2.352779322920729 6.864756761857919 9.139951527214263 -0.4899908131755368 0.8566285813130087 0.6335064492044057
Ni 0.34197980611745965 5.210328609145178 1.3400321660436634 1.0887827417168927 0.3225603182022832 0.559608573473675
Ni 6.635661080077056 2.024935188431715 6.78306254211102 0.615417710023495 -0.49448767260462584 0.5963522087516117
Ni 3.970700416715452 4.869608200944497 1.3064072433560159 -0.16355738517109253 0.3405045613855297 -0.6815279713890069
Ni 6.472704278047144 6.442963181906898 4.882110206728619 -0.5615944935554521 -1.720474506310063 0.19856835402863868
Ni 5.378375819240736 3.086125910295577 9.768497631110964 -0.3698503615374985 0.2461165361212471 -0.7354296065034689
P 0.4889295968811983 6.078211312373054 12.5830425307701 0.30931348049470603 0.10259138701068139 0.018094909828497867
P 4.289583976004833 6.417757011020125 12.458385813325695 -0.47981001598779305 1.6043174647998046 1.2888410500274965
P 2.3990118841895676 8.751067116687993 1.5652212555881007 1.5587485179207543 1.1928072616296748 0.7086312553637022
P 6.854566839451019 8.5771645713756 5.239898507303968 -1.6419959531871848 0.888924722342553 -0.11354660047060444
P 4.801302027598513 1.6243045929969009 12.542898425373696 -0.7831546804935738 0.046035859213140067 2.0528078447387097
P 4.395626555476101 6.419805923032237 7.527349409002981 -0.8901753069202024 -1.4423317949912062 0.48905158919071895
P 4.769120449594952 2.0309635428851265 3.4466087578237428 0.12736936528630965 0.2679529152700482 0.12062279059109547
P 0.2965039763517609 6.387478644618926 3.6894840558567235 -0.3268969979044241 -0.3116601263500116 -0.04490817336660008
Ni 0.580159908446243 7.684239610221923 1.7130416063000964 0.23004251337751996 -0.7837992560561081 1.6017116517458414
Ni 2.187154382137267 6.649639213137459 4.979617474071211 -1.066797495695053 -0.08645642912203176 0.30684727834240055
Ni 5.919133783752739 5.776383807300047 9.461368452378174 0.06437733783480526 -0.03315643214731064 -1.6679602384614307
Ni 8.925579782466212 2.670515491483328 9.941748167089724 -0.7900033279842911 -0.4789492106493945 1.0139582404068344
Ni 2.2065507491852534 5.650143508527168 7.150141065063061 -0.9432963551148981 -0.47059338248553145 0.7580846248988234
Ni 0.4274412920839601 0.3344197761065497 9.379361887377874 -0.10838845330843268 -0.5006889163193312 -0.7963161575761963
Ni 1.6496837831202515 1.5122336590722216 11.386951442028836 -1.340104219077847 -0.03218789758645424 0.2993419711042909
Ni 4.195379554825764 7.337536378945876 1.710243247805333 0.645509644312869 0.30446823658726274 -0.5031816008341978
Ni 5.435080597460365 8.156582126080629 8.02501465607626 1.3729965989304935 0.45689248795967125 0.5083528606224922
Ni 8.680857731739648 0.6600356049539478 5.183987796317476 -0.7193506986637354 1.2246681148940135 0.042163520741927384
Ni 0.9753458616942068 7.826516060342926 7.307957374511477 0.2048477592794472 0.9188623904422498 -0.5464589234655944
Ni 5.226337441666473 4.124842343955482 7.696001275799001 2.256415818073785 1.7891831245303702 -0.8140004622298368
Ni 0.6131674256475742 7.497442578646645 10.951833559606166 0.5057506471129548 0.3397982793471245 0.3657558797531507
Ni 4.789263531242908 0.91520801756984 10.617675133609605 -1.2838381974962663 -1.5365555267634827 -2.3206082935912935
Ni 8.509951151102744 7.332974134865575 5.55946321600893 1.850338612993768 0.12032325707280568 -0.4339528484443623
Ni 7.308186852656834 6.05670228938369 7.247115615282505 -0.8650844253898455 1.0711992243071744 -0.26489381672875023
Ni 2.2085359172680987 6.046120797125587 2.6838771296849755 -0.5088624532690591 -0.7609704310870508 -0.8786642209568093
Ni 3.417740042886876 4.703673646790315 9.386305422530029 0.9891393815909418 -0.536288667800812 -1.819656610528879
Ni 0.7241984228976618 3.6181145313957437 3.877741734039746 0.4751349791096269 0.18505335026133937 -0.9778116152829482
Ni 1.7772080667540542 1.8955714371248171 2.4334308741103534 -0.07243620358353976 -1.7378402512820201 1.7234176480987866
Ni 1.0729651362267947 3.6321928334878506 7.875288361879221 0.5285010534355931 0.09391777049608342 1.2692728980875816
Ni 5.093385817769479 2.9034722341225687 5.432114683494389 -0.9847474231708331 1.1776122990567914 -0.9791686435314749
Ni 4.319352390971907 7.571950125682618 5.332968286542107 0.5968797991203075 -2.3280552367876424 0.5467137197888777
Ni 8.122351636064959 7.819941329352951 0.2154572128006894 0.07143681578474795 -0.9478171258033871 -2.0790703779796647
P 0.1667058556982955 6.115683636505666 8.26270575140482 1.1986488080121163 -1.892537100738689 0.2268540883472093
P 8.574478220070834 1.6383464699865695 7.8510046567116785 1.1068480838590355 1.046948579289926 -0.39020064305907637
P 1.79764254922151 3.4595742730363823 10.180705034727987 0.049657772236443506 0.9595439273220119 0.29304405391072114
P 4.103515446478306 6.191548018607437 3.5726915180285794 0.5238206172407882 0.4228299990583234 1.4401363300017844
P 7.0462721535797535 4.277691180058978 10.764269779624579 1.455015818216778 -0.2554483550451343 -0.9408442940299796
P 6.373855656307289 8.428586578532904 10.335896004918217 0.20689410028551464 -0.07648903349667473 0.4534104429483417
P 2.533220174120657 8.826986136443422 5.729234244077344 -1.252511362358527 0.30749133968430264 -1.9432922198043694
P 7.497123859000316 4.615306348276861 1.965980249509007 -0.6909474649306939 -2.892368414825838 -0.2890097359403474
Ni 2.7034437840868573 1.9373328170694484 0.38499420958594216 1.2532749799974285 0.8117828857532277 -1.4984736322900967
Ni 1.4344751716436985 1.393733694567318 6.768988793156717 0.14749467528127502 -0.6559200410129155 0.6145155099241998
Ni 6.920323255626375 1.139149547355792 9.102673166752131 -0.8629450104493396 -0.4801234334631537 0.9951061406973377
Ni 2.6740851515222057 1.7668087000081385 9.205125141750619 0.9089261051651442 -0.3469989108606218 -0.9151070371648756
Ni 6.5385426507029845 2.3774391172709386 2.0571695828338092 -1.049493457198967 1.0113609119933034 2.768343797642045
Ni 4.417390554182527 7.464350373082146 10.292580183727065 -0.6835719984022293 -0.06067906304761163 1.276814972100898
Ni 7.001177876762089 6.521604978069531 11.482406154849075 0.8024248415770955 0.1602370625486079 0.3356588032574542
Ni 7.960114229808187 4.093525862134813 8.342940235171534 -1.5036587760354618 0.07333120459398337 0.3473647788404727
Ni 3.204507493217559 9.02835320899371 12.354148097680206 0.3003966376210504 -0.8137533792160373 -0.019805721872017505
Ni 0.26205038258365954 5.133908744231234 10.503867632926218 -0.7819490902212468 -0.2837526013064662 -0.5900800025896548
Ni 8.807680832151528 2.9781254815682927 6.055569468697883 0.0509392100520284 -2.1525499352260544 0.5008640084446148
Ni 3.460311881360742 3.156890778056094 11.648446341800325 1.089967248943297 -0.972502801475525 -0.42278166231889125
Ni 1.3935242502283023 3.701773885419147 12.56400950411893 -0.9522013709140117 0.30401032311423776 0.6896925094776702
Ni 3.1578287244438603 8.843177094476903 7.689990223269248 0.40296797002707374 0.10728159339749911 2.0396813346590807
Ni 5.757652198371546 8.13428085711325 3.383661627673881 -1.427969355621947 0.15659638047222707 0.32566646793143267
Ni 3.6103377720253307 0.13098102585512425 3.605545139172112 -0.5748734700525454 -0.7228605115892067 -1.3689144584413198
Ni 3.3287899427344207 3.1582111880194543 7.361042408176377 -0.42096800614892016 -1.3383715526574562 -0.8007793355538725
Ni 5.098184825015624 4.802622437561873 11.463227427788151 0.11680907327196012 -0.22626273462011354 0.7705624456508601
Ni 7.784945912186091 8.973815724369116 2.7428393536281708 1.0113796810463807 1.0605080631419155 0.040549125066955974
Ni 4.567644101737349 0.7109542556513749 1.219772869091027 0.6708360388927994 -0.3311475456506619 0.8659064070705087
Ni 6.470145414600907 5.765164875749288 0.47700857148095477 -1.652148982460787 0.733046450983273 -0.6008169293911846
Ni 8.142385442405601 0.19426144569228906 11.549552188682423 0.2748316446677525 -0.5108229194295396 -0.7183767647862402
Ni 8.839516371681931 5.056095619149055 5.476923023257919 0.7267395349286387 2.2114508233273202 -0.584831866816838
Ni 7.409639869220972 6.60415336646859 2.5897546649863905 1.0028112226510792 -0.16929325921360525 0.7098095919425195
P 8.831047535365204 1.6877753339943018 3.1695075229128946 -0.17459333127027996 -0.004627214359366224 1.2961663800443162
P 2.11476859731828 3.731451237630127 1.5132562938231555 -0.03141656663806848 1.4574727643977028 -0.030796416555566315
P 4.912680884576879 1.341072102718255 8.004823311167575 -0.7856807893495373 0.7531272808935482 0.4857739468807118
P 8.835036084082116 2.0002480752546767 12.52638510518364 -0.6939777671165854 0.8191182430723764 -0.8871514324922141
P 6.313918150246328 7.977698448009906 1.2504783198183063 -0.6977400623724951 0.6987476777014031 1.0736451147445059
P 1.9369776723206826 3.6077060583742186 5.725236589084825 -0.5122159431223243 1.1322652383805596 0.5902147283953061
P 6.894525176824992 4.2882999911439095 6.09432759894654 -1.0762900085665206 -0.5960979266489606 0.26053219732594485
P 2.4104675789061716 8.940322842677803 10.198737281689688 0.6353761554232928 -1.5535525755421113 0.12871379512934608
