# total energy = -381172.3156302153 ev
CRYSTAL
PRIMVEC
9.18933964891455 0.00000000000000 0.00000000000000
0.00000000000000 9.18933964891455 0.00000000000000
0.00000000000000 0.00000000000000 13.44952744887046
PRIMCOORD
 96 1
Ni 1.560790934958479 3.878112622721387 12.605354237376117 -0.5523488065874681 -0.025868640236645774 -0.15303411704226547
Ni 1.4892059802735458 0.4476697008244092 4.7921073024839265 -1.8472540605311736 0.44613422100190264 2.268152389784423
Ni 6.505050726171004 2.2071139391703016 12.630410809383742 0.07861944957611622 -0.6936581789936377 -2.0647156519198893
Ni 1.4014477880731462 5.4837751024457875 3.212163946144916 -0.7128069840079466 -1.1523121297291057 0.3393511645073768
Ni 5.272457051363024 0.15328829109048023 2.5546703808400246 0.6642105631564819 -0.44104575073540175 0.09703986106483288
Ni 3.4618539221670726 5.4766257963167915 11.58215436596014 -0.6368748514560063 -3.119060780784203 -2.3084251212615405
Ni 4.746459258530472 2.123665547194194 1.246910665744966 -0.42869185715573915 0.4157612651370001 0.5895578115375976
Ni 8.07737428219875 6.429450030125696 7.595727917516565 0.25481174990239985 1.5168755318360523 0.2945599763346153
Ni 6.055783918141942 6.380764909468344 6.1796277276147755 0.42579088145886024 -0.006584595196053176 0.596902681938443
Ni 8.261363237616175 4.252026846871571 12.367095799688755 -0.3685509259997846 0.33018518173739264 -1.216397133134473
Ni 2.293585623841062 7.814669444646391 12.868870493606096 -0.2479103947968763 2.599928055937387 -1.8562938021359385
Ni 1.1735429791975323 3.1825531374823663 3.9268446090101765 -0.6143707568162193 1.3988742380282038 -1.7891216751648154
Ni 2.0280045230260098 3.4379708288132678 1.5705683921837381 -0.14903887983994332 -0.03517063436386201 -0.008042924909134535
Ni 2.644223251044271 2.382611944892106 5.1833131067664135 2.5117348466299068 -0.46021152503057516 0.4616842529213597
Ni 9.162175809869659 2.394723494349711 0.5104044026393734 0.4444820301104603 0.2141286703607409 -1.2246506313925165
Ni 7.53980711093894 8.326579980029392 2.0974400912024955 0.5038490592148678 -0.13389199689617584 -0.3586601492486339
Ni 3.871275754135304 2.8892386100640888 12.719917732890503 -0.9497739924194418 0.7374270965494719 -0.5675517395801516
Ni 0.3368526990231234 0.839365296902109 2.475075997849136 -0.29914013950612994 0.9204413048935954 0.04162821706374766
Ni 0.1827621785945181 8.967931551573109 0.13474144718282927 -0.7621531385412421 -0.2077194244002874 0.15239391235510527
Ni 8.167530892007976 5.802847348475345 2.9471277731620606 -0.31623489020488765 -0.4694669821905721 -0.8281405011756447
Ni 6.988942965426359 3.1673355912746324 10.087307050169125 0.7221028074875757 -1.2525242178743332 0.5434895564246253
Ni 8.516091728484769 3.227222516779345 2.547071716009605 -0.26854529743840844 0.5803882292231877 0.46805081856933584
Ni 5.404948948236885 8.960212506395273 6.5257239832383584 0.7566944294195161 -0.7115767111452713 0.8049373235863041
Ni 3.663651817530505 5.358901168015293 9.114597085687796 0.20033984410676467 -0.06825353296075988 0.4359575375792169
P 5.966307319455524 4.719938824740906 2.5548854113842645 0.35565015877771655 0.8022767460350054 -0.250471213545517
Ni 4.72584757003775 4.832848239145756 0.6105829061044913 0.07392332965202753 -0.43431151733536166 0.30248797293244034
P 5.732153759721662 4.229099444825499 7.41545053632215 0.13781447187903365 0.23260975988406393 -0.15299349361231715
Ni 0.12157771835276933 2.806736720056215 10.463772234963795 0.1353313004458637 0.670241085621278 -0.5242391928354455
P 2.3239196335220584 4.818191242647364 5.512477085432042 -0.23215673150704533 0.16752716845211793 0.21767679272331542
P 5.084939389578589 1.9779685694625357 11.061913694322723 -0.3809611267386794 -0.7304254684206581 -0.5763585392385042
P 8.878473331565687 1.4835729151616248 11.966205350509933 -1.365993685250099 -1.1382533376431945 1.2073347658218885
Ni 7.50627521111284 6.846848208777692 0.0750934445050498 0.03502176749082356 -0.4298539957846403 -0.20442018482372534
Ni 2.688580192798337 1.1908556948106794 8.970202237362923 -1.1354608624997218 0.7053721249964562 -1.5221105549827463
Ni 4.47067799087328 3.978294801922304 5.602494936214858 0.5103292676225727 -0.1619069940518631 -0.6343523421444689
Ni 1.4369278278727005 5.07006184893226 10.259635652698268 0.05989436236278717 0.3854623570431426 -0.2185255138768559
Ni 6.24782273495911 1.7643991302029036 8.001110115841728 0.929149888411187 -0.7697929144746872 -1.3609157565065593
Ni 8.005679055439847 4.366351419559024 6.740352034408094 -1.4660098553344365 -0.23315406242330813 0.3865972419785342
Ni 0.16882930204852375 5.104457546671118 0.851344519870951 0.570931711795978 0.5351735803597623 0.5334470845869587
Ni 6.3365917545042265 5.2591416984312565 9.55011939863056 -2.2736506938948327 0.8231746725299371 -1.2703689593652379
Ni 0.08740348369579905 5.624087127231955 5.289174297776738 0.40242958102510046 0.9986087545339576 -0.27308612273155547
Ni 0.3905974700077577 8.856786490351764 10.977086901422002 -0.307226001838058 1.3357230592910156 1.296770075066586
Ni 3.008957325036529 6.751848817053321 2.484181714357134 -0.7817107489581957 -0.8835922543860459 -0.42177199010745425
Ni 3.0950338681089002 3.4256754925657145 7.38477192641 -1.2963273311022128 1.2717861514277387 1.7922699909858102
Ni 3.9006632618480657 6.088893108351161 6.8708654664881585 -0.5217557642919595 -0.8110326378507645 -0.4901422511517365
Ni 4.658076191244248 1.3297433719747462 4.496863013771189 0.6293196648165679 -0.06280228003820151 -0.7806427127049975
Ni 3.317728321489474 0.034090611667543715 10.88437933096829 1.6496946073830236 -1.0404411171887114 -1.0772734555257124
Ni 7.174852492798745 0.6636366387589193 10.103742183860268 0.20138576887277573 0.35089953146660857 0.5029319467172371
Ni 6.941875168520553 0.21940466984049647 4.379609798585907 0.9967138515040899 2.2598338426163984 0.5093018547993229
Ni 4.858183248140154 2.92957981045778 9.129915714630002 -2.5044825359428673 1.6952008193449386 0.4670385752547376
Ni 4.185909549187605 1.6570216981755037 6.6382024176207794 0.26274977380255393 -0.7382184821025156 2.2077664324971975
Ni 7.04719418850053 9.054734052465776 12.370121849185256 0.6028128767752909 -0.2657312250283811 0.39000318233628967
Ni 8.30707101227636 2.4075426229486174 7.909895813056348 1.3029209251593303 0.5826055485894804 1.2932520346109984
Ni 7.848238101830481 7.2596057709834865 10.227491343136279 0.01940668666138593 0.4249845835074809 -0.9451267234554175
Ni 6.605655614988803 4.5895512866119565 4.667833431922613 0.7946547107133733 0.4787049558490723 -0.9001265045956434
Ni 4.513068413974897 5.9122923818896655 4.02229611623782 -0.29958494035303246 0.13571568036847595 2.60338130459331
Ni 3.4561381529996753 8.544137592630907 1.2902549422864156 1.5176067535751219 -0.23423443997168045 -2.692071251031551
P 8.398201692072316 7.812868334104897 5.406265780586865 -0.027066517199488868 -0.4249529589385972 0.08367989481815911
Ni 3.387916496570799 7.747348343488263 8.357926654923006 -0.9165723088564924 0.9358422128296979 0.5389196776657557
P 1.21646638399 3.0081302844817603 8.582802657500268 0.5133053195317612 0.222910530318429 -0.1735674611089269
Ni 4.301713605534143 0.5934319228664992 12.929877599595544 1.2149933108084108 -0.6829158528754691 -0.4963602070369904
P 2.4816546459953424 0.14036164721945382 6.829912256083938 0.44012272470050007 0.11140050066187912 0.4882532616591398
P 5.767688935558201 8.358669153554397 0.559321094652061 0.2906277311597446 0.1472056832859465 0.34265246096646795
P 6.844651956637807 5.933372726696756 11.604373269930962 0.6044828082785461 0.3834941775731782 0.7000070040298009
Ni 5.277336590636157 6.826916531407779 2.164190534377834 1.3688784629970618 0.48359056607614775 -2.464528107037117
Ni 6.686751536053569 7.250646164973498 4.045819906417275 0.12669753603026565 -1.5911439035323243 0.6241746302805186
Ni 7.178197412375806 1.3126879578675272 1.1783545173583836 -0.0036918470292904163 -0.9015740356754472 0.6729916517832216
Ni 0.46047228861222034 7.949780303277017 3.403160691863076 -0.04203625113544373 -1.9493852200759847 0.20260344332996075
Ni 8.72481838582926 0.6730731714888242 6.368377679825816 -0.3207806005940411 -0.06518543555839741 -0.5496758877409953
Ni 6.676000008841583 2.5113454019115196 5.773694168919768 -0.036399107454324404 -0.6983643262200553 -0.501278213163898
Ni 1.9647451099257425 1.302735903191817 11.912084735539853 -1.5955150360168264 1.546399766547414 0.16931871313490193
Ni 5.869663035961115 7.429773959796786 8.618739407472845 -1.7854025744420154 -1.6349866117488874 -1.2484263936558757
Ni 6.27739402946182 2.642899986156642 2.9723727266293842 0.11300255504167635 -0.6506613637171376 1.3606105665613146
Ni 8.502436369991596 4.9766522129409445 9.405093242682215 1.3437945234452406 -0.6117124932577658 -0.07458667426763929
Ni 7.379701248875322 8.761079519486094 8.023248153624973 1.015223480272503 0.720397908981327 -0.9886701552640069
Ni 5.675997706052904 7.700988125723758 10.812155717188286 -0.858968799410411 0.8440080643355206 0.24710435395581315
Ni 0.7946113756817546 3.1100400595081936 6.312252869911349 -0.4276790996205086 0.13051665266603973 0.16870139126587722
Ni 0.9009899265057845 7.785383019668101 6.910003782341637 -0.5157352691294924 0.28733131979666005 0.9258851016169861
Ni 2.53124951126294 3.173235147231978 10.570911663098212 2.0416739396090775 -0.9095259435326722 -0.9917817043097951
Ni 0.9100699128631891 7.273279508155653 9.474815518251019 0.9103625805013549 -0.7116078214935228 -2.1318643818522447
Ni 0.12417922036449007 0.421653761773252 8.847273686104032 1.134379456510085 0.3892603906329941 -0.5946578517683243
Ni 3.9552387491232674 3.843974226488457 2.9867770162915965 -0.07399532054054354 0.19127207747754157 0.17639978835139944
Ni 6.846204955012872 3.6739163097491274 0.7218924565028391 0.5516916326194434 1.7416969060239487 1.870774769360933
Ni 5.479373408826522 4.318888481054829 11.64679309891897 0.23309415571965017 -0.24650554402954966 0.4577887745216954
Ni 2.6755037626935025 5.7523059812395125 0.09950033021020806 -1.656733773617992 -1.3535935118135332 3.1532091445311368
Ni 2.3386960914339165 7.1257354731850135 5.234004260236053 0.8243830910157415 -0.23526133857429807 -1.3380681624844248
Ni 4.872169422855233 0.42317275959217615 9.068666929011771 0.198027136813188 -0.7869704546952383 0.8061804519647857
Ni 1.3273725223844108 5.202939698065011 7.7012399136259875 -0.12342837836069065 0.4720398851240709 -0.20883271206912424
Ni 0.42450888955510163 6.687137488312461 11.683940084903357 -0.15673701981514943 -1.3979201016450507 1.878694538428642
P 4.773172668449484 8.158755072787937 4.7174485137371045 -0.799446732785378 -0.47142024926220105 -1.198769906971013
Ni 4.556065333483343 6.945183330739625 12.667262817570261 1.7648517468738572 1.8805110228120903 2.225776238811057
P 1.224240565204821 7.318509437161976 1.1720175488409599 -0.8431459734455415 -1.0648167178195984 1.2823001635851852
Ni 2.789938607454924 8.924162727546879 3.260905121773203 0.8399583197461792 0.3213056198595757 1.1706726345141643
P 2.763491688381338 7.246235282014735 10.77382422534268 -0.9651707865904862 -0.8565959283028601 -1.7536450795247607
P 3.152816434868702 1.8498967448869368 2.9209546964054978 -0.6073917543952249 -0.04878668248539985 -0.7796343260451412
P 8.665648228805345 2.1505259865451647 4.666179350813076 -1.1048853037057103 -0.5807461267832384 -0.19868508211216104
Ni 2.129326180324607 1.1330639387113794 0.6169621455836032 0.29986956147298677 0.7605009476497998 2.012399359014676
