# total energy = -340892.95121582027 ev
CRYSTAL
PRIMVEC
9.06340921943891 0.00000000000000 0.00000000000000

0.00000000000000 9.06340921943891 0.00000000000000

0.00000000000000 0.00000000000000 13.26521553609458

PRIMCOORD
 96 1
Ni 6.382896781493126 2.297021333938474 11.220608296156886 1.0351986378428495 -0.5936556357560551 0.8333192171631069
Ni 4.745265648384144 0.5285472019805808 5.908274144518459 -0.09413502871321207 -1.4549147738625396 0.19374753560122762
Ni 2.6941074125708564 1.6129967872283362 4.764029624203387 0.07985203643163667 -0.738373005402509 -0.22352682374618923
Ni 3.2256854185479376 4.267687433708345 4.9475409995596635 0.8957528010079799 -0.31918214575866966 0.02644508156540607
Ni 5.000545628543912 4.769202111765596 2.576582187024748 0.25716148108149905 -1.0118831030453606 -0.6523719186503409
Ni 7.420004555750094 6.217924609410897 2.6469677156025626 -0.7466005355186238 -0.45334282293519984 -1.5452641102810742
Ni 5.3418282974680045 4.521381317279034 11.488472819824846 -0.14605999971727748 0.37886902009634105 0.3890660152340009
Ni 5.75593545835346 7.979216896013447 12.205205397224487 -0.39241924797695 -0.033246934978587904 0.6375194270185408
Ni 2.068188381475441 6.331761027461265 0.6515757295203345 -1.0170337940083645 0.3335684963873287 -0.7778538371059507
Ni 2.8370101835422066 1.7667484588689768 0.34005004528915284 0.6641182605529917 -0.8284392633629861 0.21408136206257322
Ni 0.5084935030491919 -0.20939375266729807 4.905105211904119 0.6358716070024727 1.1145238552367387 -1.0574209395761596
Ni 8.58772511826533 2.293840077351238 1.321064380747257 0.9354601468999308 0.5646101404533245 0.6019844673367245
Ni 6.972408098312401 0.6416540155999731 4.710876355310218 -0.6568672354175332 -0.6958734414774016 0.3378524684746633
Ni 0.6937142373580396 7.49024597612353 2.496314823526526 0.5305754194661185 -0.4623663665900488 0.26709570947607547
Ni 7.562671678085352 3.8204716394520304 3.7931354913245054 0.7073570166369689 -0.5245888628653803 -0.8297816363234936
Ni 7.7292571369839 3.893350511867875 12.742313895422456 0.044828212058284085 0.19440625223114907 -0.7460035253645733
Ni 7.758994182176836 8.772872438960627 7.384453333632056 -0.15505551834766845 -2.264520192348474 -1.574695528168314
Ni 7.083579874093118 0.8130702715383976 0.37662905799691404 -1.8581439679707998 -0.9079760825470492 -0.7898179514463624
Ni 1.748884479571423 6.572267650819908 9.236980615061071 0.8966367462748299 -0.1655250504204246 0.7224555628413042
Ni 0.06421969138038917 4.797978435596003 1.3841719918334758 -0.23950725833484557 0.1882759709636951 0.5569793633809439
Ni 6.531518563594236 1.8230050390312886 7.22416966306714 -1.577635070412612 0.7429783653850044 -0.8177815265388237
Ni 3.438439883302264 4.307140453435515 0.461268610035542 0.009853752865628191 -0.4476411445647323 0.6376832062899147
Ni 6.145879570630453 5.47729000958431 4.575530654830143 -1.1356835200334894 1.237679696662333 1.660422792433805
Ni 5.454930579382857 3.2044317242542983 9.198736654105232 0.2899057653920556 -1.130026835968344 -1.3044167929785664
P 0.22517405421725792 5.679322461396472 12.629546053302672 1.0460183541661727 0.28356311100347936 0.053518797853746546
P 4.1083345752559906 6.022916299636078 12.675987867771772 0.0631277816984203 0.9048596484052546 0.25929755358789536
P 2.4462775546752145 8.384333155091102 1.362602890903837 -0.24867041289135236 0.7235361974999927 0.2539650856313884
P 6.3626672524255765 7.7169762176799 5.842770168071371 -1.1743372278499453 0.5593195814783464 0.2599812099184813
P 4.998796390591386 1.118542504844751 12.430116612578413 -0.7262332847161815 -0.6344454160789074 0.8899277096857705
P 3.680786378704238 5.992852971716248 8.314451552058161 1.3785368120224324 0.7920854073243004 -0.7866580656611419
P 4.6805257173225385 0.9857182447708543 3.6971875237762086 0.3788165695918508 -0.0030539563349753856 0.5537531431341624
P 0.16215435819911944 5.516054210221366 3.6357167643699175 0.4313892014822442 0.2721983208099635 0.6966787109875163
Ni 1.6134771479096 1.049887181060393 2.557653257160242 -0.590792455275647 0.3014340777466293 -0.10950534052169528
Ni 1.8269929390266837 6.457978062315519 4.924883383199462 -0.17778432740375189 0.6959649727499434 -1.2211277058409227
Ni 5.91768105680305 5.741089594279694 9.246332240550274 -0.10395355746553063 -0.25171588458589556 -0.6850221005851944
Ni 8.72511733651577 2.481371074634691 10.074374357548656 0.16831624001231654 0.02374516613573975 0.2786193938449589
Ni 2.1068347577944513 5.252336196207707 6.892380008813903 0.6564381182999146 -0.45586173270231173 1.504454789574196
Ni 0.6566630210371873 0.0821398638142417 9.430984699109777 -1.2248403788058195 -0.05046201330529374 -1.1036755996683252
Ni 1.6256221160773938 1.2604573642263326 11.432400226866868 -0.779205980258471 -0.23235316378856755 0.2503465150421947
Ni 4.17823158608437 6.938166538806486 1.591745811957421 0.5358868043767029 0.19355033198875696 -0.15181412859223534
Ni 5.4925799807030184 7.873365341362949 8.029912168364 -0.7009225738655348 0.6511123352116271 0.22542121255542466
Ni 5.357317663586482 2.8460464023954084 4.622118390185437 -0.44753624355575183 0.38538368128640726 0.9307087482578744
Ni 0.5893436437512866 7.352554665373435 6.8974745510580195 0.2855474884233598 -0.18884855563771347 0.555281663963547
Ni 4.844383090087873 4.504777151843662 6.909094747840056 0.202210064546284 0.3943496322304434 0.4389639285057086
Ni 8.347807616496915 7.017299163487836 9.357628185035393 0.5756386303533441 0.5963054146740763 -1.387403775494759
Ni 4.554725599285985 0.12591794235459902 10.383984037100232 0.14481301468405383 0.15710443045689718 -0.41428056682641556
Ni 8.057760399104568 7.200833197366813 4.709775151106944 0.32674761681075337 -0.6361685694176011 0.10173443832702479
Ni 7.195331708054985 6.217960863047218 7.2045111287716574 0.28417271956302026 -0.3546885661953956 -0.6793569318796171
Ni 2.279030466913794 5.0100803348965375 2.9179364568805766 0.2335307290364365 0.8440538299717915 -2.150374267730974
Ni 2.315909478462118 5.349604702459025 11.62847348720864 -0.2673350791803912 0.2605702496527319 -0.21722067902250328
Ni 0.9677455045643352 3.4000563458465867 3.9250044680813234 -0.49675744247540904 -1.2443712497498955 -0.08650425164083167
Ni 3.6228258776348032 2.6716120312331966 2.7321963892314196 -0.39615197554650483 0.47381317497440983 -0.7931112774856534
Ni 1.1993065431605816 3.1061481161859708 8.091900448428783 -1.1330026307672165 1.0223266669761877 0.9781396880463282
Ni 3.6220917414992875 2.422848642202269 6.878902719511283 0.2042407218230676 0.2057975247872262 1.035889493262287
Ni 4.175095646542537 6.769859032182654 5.90953395838064 0.20207533874063263 0.8321074562431928 0.8069525542441198
Ni 0.7007465364635556 7.6274569261923615 11.4090139124166 0.4892338804048542 -0.7567967593253353 0.8179185663373205
P 0.27121526600500195 5.404148298305133 8.209006038134467 -0.6972597803019668 0.11619123718230312 -1.38300718908896
P 8.572389830101221 1.4493025558264496 7.987145566277019 0.9469146685937756 2.385100045516776 0.5683590659727954
P 1.854844795130886 3.380751284505242 10.44611823805121 -0.656003087645025 -1.0158598283049214 -0.000340671168870381
P 3.9752293495006 6.200840083294262 3.8337667542321325 -0.3157646354366884 -0.46871647717779275 -0.18860147262391389
P 7.114123562694212 4.248237357821713 10.252645269774618 0.743479473391139 -0.5182505793521784 0.2857434064842498
P 6.508144031575773 7.69511527497787 10.095226542820031 -1.8466750480992518 0.7388473739357663 -0.3969618730423099
P 2.489219986898355 8.490039695196312 5.8945041071025415 -0.09045038077277326 -0.523090423942983 -0.759259361933215
P 6.881502105235555 3.904598202536705 1.534175037478445 0.05401090699881666 0.6675041463060891 0.630177899051805
Ni 5.216091623295014 2.795971067225959 0.5992744210807283 0.3341570219009471 -0.08783428330616486 -0.7219122887433245
Ni 1.38817892498794 1.0037906824772584 6.840606190782778 -0.41611839136610274 0.20742811841211373 0.9582468057771433
Ni 6.9819790583013495 0.7925643084938946 9.364963202004196 -1.580758446532942 0.09286876040627877 -0.5421636385243502
Ni 2.5712891561217694 1.596329177929401 9.218449568855197 1.6893379328062583 -0.3178788535662138 -0.11138995913891785
Ni 6.360464844019029 1.9355453895831531 2.562309130404866 0.6746369006961285 -0.1413577091456017 0.13014667092113072
Ni 4.173989910634722 6.6596207875372215 10.60894872656773 -0.5266269763413317 1.0036370609864844 -0.4523089823540468
Ni 8.151548556268997 7.3772343282994814 0.20656234367056756 -0.2958408999295679 -0.3288314959229756 0.5691525084083682
Ni 7.698550307019358 3.902277969812112 7.969476450274694 0.25856273230439986 -0.42332879307161286 1.0960461081475252
Ni 3.220863684917142 8.654821535687852 12.469156340851514 0.09105561845693995 -0.6849958753329493 0.44084160514439563
Ni 9.305220834709546 4.978186198342458 10.508942164433211 -0.3896758809038579 -1.388351741230325 -0.7294942148556404
Ni 8.389345220312588 2.285818960315046 5.724298722617264 1.0550082163696088 0.25067998712221345 0.07414367319294973
Ni 3.876157224842274 2.636482257637398 11.268800254919418 -0.43647715752811284 -0.8479673060935847 0.8849945340502114
Ni 1.3552787500259307 3.3262076886591347 12.635714609522822 -2.0042183658657806 0.7942088814252064 -0.9638348413878821
Ni 2.8741973509992653 8.324659669705463 8.050924775976098 1.0975054663018713 0.12430718142121817 0.0036429960692259842
Ni 5.5431991204172935 7.8420150093536956 3.5561916940753835 0.8831597948343176 0.22847079801502587 0.24705807409891
Ni 3.2109483153831366 8.355185231488397 3.6828618993836595 -1.0566115563009868 -0.04162744573279927 0.07345384621477673
Ni 3.5592098092991717 4.324904735233184 9.735514337871765 -0.17810571529891261 1.408603806611142 -1.4363935751299004
Ni 7.519910514043821 6.246329333469006 11.394621218796857 -1.3916437817180356 -0.9662187682390263 0.9853647450398578
Ni 0.5982112831955922 9.115795584928279 0.26722736600960684 0.6968352911700386 0.793172469740892 0.09486702178323017
Ni 4.5876982815206375 0.4253575705770095 1.5772869554513895 -0.29098640005074405 -0.5312914716965366 -0.8667582135478429
Ni 6.098269482730885 5.695899436604603 0.30484504539798685 0.14458778604712516 0.22180161352496636 0.6330413366425292
Ni 7.807918464393069 9.009626810959967 11.247602753762077 1.213680762644574 -0.004036631963218854 1.7917591127876626
Ni -0.0982011310456953 4.779815363798795 5.994736348123164 -0.19223341294954635 0.09836449341352738 -0.9422853973518803
Ni 7.739371901517675 8.727491949694848 2.4811526464758527 -0.010785777761594327 -0.14118390257189878 0.055359964827543365
P 8.600241686205424 1.4030701061071083 3.4292042694492926 0.31627731340704884 0.9525664675629143 1.0784607909655943
P 1.6256583697137157 3.2365161923990673 1.4447010630363084 1.5127669089843172 -0.40227711460763627 2.4355810849854636
P 4.699830778663882 1.0782556514821806 8.43016409578818 0.308077808315392 0.5943236083573571 -1.3189142152637932
P 8.473580544306229 1.7803798261259636 12.30271770918007 1.1822695953231444 -0.12841117628726273 -0.21235640895166655
P 6.2237705082677826 7.86029590546895 1.1402212730242636 0.17917452288305916 -0.6011719987377582 1.080465994321081
P 1.6785071080617806 3.1118852541338913 6.043844617543731 -0.24407867975561193 0.4829693875523811 -1.2182239019305665
P 6.726309351551123 3.921111733881273 6.012710901011499 0.6722151786285133 -0.2357259369155424 -0.06964732798449295
P 2.4432866296786684 8.421438751866438 10.351868753364588 0.4639542799024591 0.1495919241299359 0.33173015762700936
