# total energy = -340873.75353076064 ev
CRYSTAL
PRIMVEC
9.14640252640269 0.00000000000000 0.00000000000000

0.00000000000000 9.14640252640269 0.00000000000000

0.00000000000000 0.00000000000000 13.38668462992532

PRIMCOORD
 96 1
Ni 1.2886000750010556 4.832895102636407 7.231607779336642 1.6365529277947428 0.7887779402176223 0.012200141610617696
Ni 6.6164161680721545 2.8348360180985135 1.0892048400234637 -0.10167401740273456 -0.16754876571867272 -0.1508741332764692
Ni 1.1911725946345801 0.016097668554731187 2.423203998909896 -0.8237670546982975 0.15057974196450197 -0.9304922613716943
Ni 0.16260017200666685 0.24041136274283992 12.377703145791036 2.1653632849406383 -0.1067336913138291 -0.614066081091607
Ni 2.3715067022024807 1.2951946312669427 12.22134722283114 -1.0097190055145062 -1.024874630209022 0.292356026704761
Ni 4.990853475329706 0.10906353373882136 4.740479850888109 1.3086485716717269 2.0920932726018937 0.37519774189234095
Ni 8.249478910936693 4.3775688890048 6.6939310153644795 -0.8218631528073652 0.2034858459349141 -0.408762979442296
Ni 6.91335412808883 5.962356919010321 0.1887268709990473 1.9118723107321909 0.7055024799267333 -2.5422769810828214
Ni 8.497465324302846 8.568633482839415 5.975856094589825 -0.584562158095219 1.1717386138848334 -1.542724631688672
Ni 0.6854890322746874 1.930229362945912 0.7369073637031717 -0.7374867461428138 -1.4526627446035691 0.4163173947507862
Ni 3.47536773773282 5.583558655831803 3.311022432112379 -0.021685712503549746 1.634175685811818 -1.0170214527131904
Ni 9.046340943603651 3.2183904106227477 2.719959945515072 -0.644194010825239 0.07811088537081387 1.0949055667851788
Ni 4.6135094901626665 0.825059477205242 11.260517630970622 0.9824673688874048 -0.18383207625972856 0.1642029891748914
Ni 0.08134718997666118 4.163863192538155 0.5563774987034142 -0.0986686549175075 0.34113628143225766 0.03847244504358536
Ni 7.483120130900435 7.880878886643702 11.955393616221288 -1.0517987082933757 -0.28545775692303094 -1.9891578719882324
Ni 3.241759469234872 2.235380792486535 5.090018772187886 0.8360630984568311 -0.1458597107810133 1.940130791357252
Ni 0.8651115741377237 5.340785691940764 4.567750952655585 -2.7416937991546844 -0.34219043372838487 -1.4441613920007774
Ni 7.185423019468963 8.518447171839522 7.909174197689676 0.7208522229099263 -0.7783577733255628 0.222176737476198
Ni 3.8476354694635666 3.679689225144263 7.24733684786708 0.06786761037625086 1.2016665117925174 -0.03395938766458022
Ni 5.463292608203302 4.711284533827483 10.760458191562037 0.08903447426185311 -0.2873585734901697 -0.9777262546579935
Ni 7.2372831221424425 1.2618377010288149 12.80975908195847 -0.494136202802478 0.053401812659908024 -0.29505568502411117
Ni 1.7812527575939452 2.6261608430552226 7.322891621084814 -0.7153464626003486 -1.8599224000274615 0.3147703898442192
Ni 1.7278743520908706 1.914762796169747 9.777969003733078 -1.287088329002448 -0.4198580609141931 0.07490523394932261
Ni 6.824871829453335 2.8755009240043856 9.845705432018661 0.09214808019017033 -0.5999296416902249 0.631201455220313
P 0.255180059001547 8.649103532807896 8.104339221470358 -0.6073806986516314 0.42768012806177313 -0.7691449964780431
P 6.6966849971837 0.7657231050563993 5.76735835975674 0.14664286880394098 0.08403624971631334 -0.5380167062355121
P 8.183231516992421 5.961533742777409 10.92951846771655 -0.6049808309608872 -0.29352562153283 0.12930643440802247
P 2.8334274720999746 1.293520839593354 1.6445140389046091 -0.21279581048193028 -0.739290632120772 -1.1568100175994591
P 9.144701357034094 2.5575353844380926 12.086756994109704 0.7133435732377069 -0.8292203645033848 0.10503342079327072
P 8.561490142418254 7.063977085906621 4.294689676594663 -1.0337907017517292 0.1912085712294578 -0.47488583921329824
P 7.171813172418144 4.751720779668657 1.7297603403044988 0.4115017185296978 -0.16222041152722386 2.2323227816803235
P 4.701068002136781 3.8578520011542685 3.9045608498902347 -0.7968365488560405 -1.570359105576489 2.576162578086673
Ni 8.948904316834588 3.798839411657038 10.30591308071144 1.2938762984585588 -0.5641262588383703 -0.6016767062883186
Ni 1.178971293582301 5.766651342836695 10.164469452530879 0.02290852916705732 0.6117826843740689 -0.23199243801503916
Ni 2.6062125390109787 3.236646630188227 0.43037299809125584 0.5504413051521101 0.9033442402019927 0.2603956717480806
Ni 1.6813283093209688 0.1725688361872359 6.462676116252402 0.8427425673595358 -0.12920461872283556 0.4198290074484705
Ni 0.941859952893181 3.0175079705843606 5.051760284802894 -1.1002028106283763 0.8938301300639703 0.7151569722973619
Ni 2.461022544330409 2.965419207846182 2.862501142006181 -1.0860514588286587 1.3988017329190554 1.125311689880862
Ni 6.372664539104208 7.4785377832038895 5.25395248969187 1.3915774472564744 -0.17615039134475471 -0.4157072719706131
Ni 8.614585009441102 5.701803348488373 8.664370708007644 -1.2215375396848316 0.6683886057935715 -0.4204612417158307
Ni 7.149934977427851 7.185386433858611 2.4355196299945248 -0.2600269755547521 -0.4679209778596909 1.1105324746891585
Ni 3.7586775578935008 7.501440375284029 5.363455965395171 -1.1123962673707746 -0.9288128167867423 -0.9715031565664172
Ni 1.7871704800683264 4.384693936620786 11.817403669657924 -0.46485982243586393 -0.5935754173374229 1.8112308483590291
Ni 2.423046680785384 4.042060549274885 9.308471353931756 0.4191630917296975 0.43848416065581264 -0.9455486414841846
Ni 6.299054291076664 5.275352327826815 3.8483772427134464 0.5412030743832937 0.09489941768306236 -0.22074026213998757
Ni 8.347391150640329 8.116252410841117 0.5925359720542203 0.365308507803087 0.8225295827467706 2.3112096259852133
Ni 6.308621428183624 1.4672293175430442 7.940633249390811 -1.3162644363457716 0.6202395568921705 0.10387488170879529
Ni 5.787806972022543 2.9861541025129865 5.935615581764033 0.2961772002230641 0.2621738466944259 -0.9114393585053011
Ni 6.711685097427882 2.338607092093749 3.613695186551677 0.812075220182666 0.2250895402476188 0.392859163727846
Ni 4.3764438814864866 8.050105627325314 9.913067772438401 -0.9041222560185979 -0.45464123003164925 0.6089760681632093
Ni 3.11061834892934 0.34482395076570627 3.743438736541775 -3.031664099236089 -2.0309717227002246 -0.641062921395425
Ni 7.503992221606057 4.05691430707766 12.161655970261885 -1.0293784316166465 -0.18959957487112505 -0.10483236052605815
Ni 2.9502361795502425 7.502519650789403 2.062125061464947 -0.2065025212740508 1.8201487196739492 1.428427011984656
Ni 3.40459287450753 2.900434017459043 11.09121588978779 2.512376593978963 0.9885958503826459 -0.3002737388899409
Ni 8.517349603528974 0.9812260696315691 10.285792824298543 -0.6961974004757235 0.8522548777253451 -0.6492251454912431
Ni 0.42320587702336526 6.7004075830369825 2.249873267387087 0.48349312126633515 -0.26011310751065525 -0.1832309523406199
P 5.523238130764501 2.6685086870372707 12.159875165678018 0.554927880168554 2.1989092392168836 -0.890946123647956
P 3.877022860978539 0.7541867474722614 6.841960968048596 -0.5104454814854629 -0.12341063774887778 -4.106697095467057
P 5.7187333396786055 8.786345303639568 12.971135465298874 0.2109063067687013 -1.0194305763753153 0.4526105727548657
P 3.1400514724572517 6.248813101661245 7.045572694619217 -1.0022921169228156 -1.0919997059922935 -0.6733960863104919
P 4.890352803693691 2.895851669762497 8.877888903221235 -0.19553059564357939 1.2118971883815903 0.7991942504549397
P 1.6724928844210427 4.859529426972417 2.0934094168766526 -0.23421104293291278 -0.23085960996217664 -0.3663624029888981
P 6.777712977710044 6.459271825209179 7.226869028155842 1.0860339753271617 0.9019964679248466 0.5042218691732542
P 2.4094093945268025 9.076761878611057 10.148124831106275 -0.0254462079872465 -0.38192940418921967 1.1028245645219394
Ni 8.352888138595667 1.5989100756012629 6.7705568323252585 1.7716404876609166 1.0564997133134708 -0.04319710421276431
Ni 4.772995312088148 4.20188478809612 1.876049732576136 0.5106411424360366 0.045682589638779386 -1.5192260343460997
Ni 0.7211142703546181 6.9266347046464825 6.317069045613823 0.5376325834232161 -1.6315917271347256 2.9503059105725704
Ni 4.516365548276417 1.861100852186447 2.979541253441924 1.373999586273711 0.9142493171502707 -1.179369390957214
Ni 4.251055848408753 5.911228528543874 8.910137289465709 -0.3081333441436758 -0.6244901046384084 -0.7573063519719022
Ni 0.15316565773723206 7.872729441937869 10.192367809704539 -0.24397506429821209 0.4874868158067604 -0.13816208502643948
Ni 3.911980411669552 0.8945575026292587 8.779911724059227 0.0648319088737206 1.1969626785589451 2.244089435297948
Ni 1.5691842671905376 7.497479982963461 4.443335182172947 1.4540326283679021 2.019070086166632 -2.492807156487468
Ni 5.160811928218351 5.646677980091007 6.1571652330900735 -1.280670598401562 -1.6282444079290475 -0.49026257877968465
Ni 1.8998633063540329 7.384933499119162 8.51913863987517 1.3421281914864112 0.0311910808908237 0.0622716043457121
Ni 4.564823189187193 1.5244034801201038 0.2947172134683291 -0.24456436114277877 -0.021179462291092556 0.6306054735075268
Ni 3.621746764749819 8.37801330650467 13.150409529223309 -0.523744255476898 0.8795265689571046 0.6887867098339492
Ni 4.568673824676705 4.6015094099673215 12.930011409983086 0.28444319961558756 -0.9973730823546436 -0.09307701976234292
Ni 6.404192188824752 7.029421976929477 9.626418600692872 1.4164359010610508 -1.4136819924649977 0.5225612909123903
Ni 0.2825515833861427 6.180754720004566 12.874443355700466 -0.3212881363580789 0.4860387705063242 -1.0787233005983616
Ni 5.610988717192962 9.064935580064883 1.849772117941055 0.6262739360117086 0.3041874721220503 -0.04068616486545251
Ni 6.2908682607604804 4.677259916200437 8.152089845461088 -0.46395248013024615 -1.5946352045150343 0.881714577747359
Ni 2.2512406545739805 7.332936200406863 11.536792038260678 0.06834352157140487 0.467785223612775 0.044876548797716256
Ni 4.791599094951968 7.8096924353019554 7.429248734297872 0.5149477402311905 1.0415286938259354 0.8144953995883842
Ni 5.0945736806766675 6.817856538668405 12.103076005607063 -0.023924114915765248 -0.09403938367561224 -1.5126429818119433
Ni 5.105521924574402 6.703160650215945 1.0556851038192712 -1.482310906487305 0.4436708470630746 1.8529225716708606
Ni 8.192816946904559 0.23260948133534806 3.576413534963075 0.17440898317361575 -0.6501134616334675 1.021085595480235
Ni 2.8995376700054276 5.997223005675456 0.469944908887872 -1.2074944313282043 -1.9506993109017177 -1.1220448462041321
Ni 2.7959089286843453 4.5938081389882965 5.126136086727046 1.9689595426634865 -0.7981948626561479 2.835743210132626
P 3.349055917993708 5.530756473691767 10.816936312902156 0.8718507975794016 -0.3145461896485551 0.7761275984434634
P 4.853181823576404 7.51038555701501 3.2647041347669163 0.44586502650091603 -0.5332280265976171 0.42755748644097974
P 7.697447782743057 1.0773181752202088 1.7295463144839418 0.8001188191517381 -0.05598371445447132 -0.42471024680017183
P 6.4114361396743815 0.09657503564528161 9.902023491313493 -0.30058715636530164 0.17144090168422732 0.18100103456883665
P 8.000879688597152 4.019478081285322 4.687909987373806 -0.08528991961775634 -0.9669286498218573 -1.9258537126129478
P 1.5521811047796028 7.761335404819646 0.2511035073681131 -1.3307407755850758 1.0665308722972278 0.5496805157266856
P 8.669426839358243 3.054999074792226 8.277964467156497 0.50441341635877 0.07668957954325502 1.5389008870672078
P 1.1237819003668192 1.0423972101395476 4.59631791185842 -0.5932627711930105 -1.558622533865851 -1.4507413592111402
