# total energy = -340891.67157668405 ev
CRYSTAL
PRIMVEC
9.08051308030684 0.00000000000000 0.00000000000000

0.00000000000000 9.08051308030684 0.00000000000000

0.00000000000000 0.00000000000000 13.29024876536202

PRIMCOORD
 96 1
Ni 6.297553799185597 1.8079664894553744 11.473711443487346 1.337949377518373 0.6242795312894991 0.2194757936052672
Ni 4.706656976489458 0.015411446911682647 6.011033643730497 0.17687030022991473 0.27548599042229976 0.3656368376767832
Ni 2.951148611479517 1.5291856553547565 5.056314847901204 -1.4255890283152286 -0.04519279448655442 0.3040625165084119
Ni 3.6523276756006053 4.512915148002738 5.1325475718659455 -1.7160429529012704 -0.13014461403860167 -0.16483959431762582
Ni 5.200037577773553 4.191119923128705 2.825892013141224 -0.277473967386606 1.0390079842866105 -0.029373568066110703
Ni 7.206649372814579 6.029161072124199 2.4898748885776567 -0.020277776412429595 0.7728306728597465 0.6375916750173729
Ni 5.115416275764377 4.7279326187909385 11.486057309160882 0.11044379317556463 -0.051807214479278524 0.22892999703963154
Ni 5.688260447590621 7.862798172243801 12.460445404516097 -0.36354730213760617 1.1891192712551262 -0.45403599234748265
Ni 1.8351807873544512 6.494501048812915 0.32468192000320145 0.46564786555479803 -0.0817687938383753 0.2419202386517124
Ni 2.930735617926923 1.9111211187958854 0.2654651696230718 -0.04355500177281531 -0.8653482205741936 1.0034311156232654
Ni 0.6511263676080749 0.45003386372952897 4.917312168762237 -0.8549668773398694 0.24188115788366085 -0.25687094642427377
Ni 8.71001912929477 2.477418240643739 1.3741186404088965 -0.21341698900569697 -0.19242778834853957 0.009045398031719904
Ni 6.829581064419798 0.91946551964191 4.934031209566968 0.6433275490598857 -0.3758448885580366 -1.3542190612126743
Ni 1.0451489020980729 7.352782070875921 2.502780113860996 -1.1265067386302277 0.2609759697315828 0.2042407218230676
Ni 7.81942056094454 4.029477708613701 3.7646627037318954 -0.6263677812770955 -0.6838869585394867 0.06047774567008295
Ni 7.582637100144965 3.9927651939637294 12.653579746673339 1.3073637914220324 -1.4746163660565248 -1.1459558484937746
Ni 7.686282077195369 8.91035341032561 7.065415611595597 0.5831938169927827 0.05687485881017301 0.24506469781796505
Ni 7.027572573058927 0.6479046015438131 0.37467468512944985 -0.6272301292773907 0.39902492621892566 -0.23282701810119255
Ni 1.8478935057590915 6.274816194267583 9.170630882788274 0.19485825216690314 0.43309281443691217 0.7821151834854658
Ni 9.10575697271808 4.856140383901737 1.5301327528759021 1.0455205885941476 0.827729124669839 0.0016964138658164332
Ni 6.408054563661361 1.9813679684946697 6.971413231455113 -0.3880779402891188 0.514584700464817 1.4235087487474323
Ni 3.4577413593912913 4.471153868043494 0.6130672128585253 -0.7300369747329878 0.6225095838732698 -0.21297990146827836
Ni 5.913202919247587 5.795800964780732 4.8893096823220725 0.7396410734816553 -0.6075681320720892 -1.2851237490769092
Ni 5.153926732017292 2.7587143768858464 9.284076457677342 1.0850505283679701 -1.0643868293710315 -0.24684904341189748
P 0.09170501031450283 5.66772032685398 12.691270232589153 -0.5959678288289995 -0.6358199278289308 -1.0293000129702272
P 4.063929175490277 6.367328462200781 12.652316647294704 -0.3153254910167408 -1.4494864037581165 0.1259971675291314
P 2.400551696861395 8.411070475496503 1.3242221287219975 0.8488509942501187 1.3283738180147961 -0.05348768750549498
P 6.675648205565895 7.647880587100209 5.728017658298504 -0.7213240203400223 0.3422763085739718 -0.06459125361782425
P 4.88891195584627 1.039618869592054 12.916952766067531 -0.49934088693186907 0.5500944633356527 -0.3931993206760841
P 3.9298735599133443 6.015903522930788 7.953868454689387 0.5247595841152899 -0.42442948233495936 2.1860951181713513
P 4.822224667300785 0.9437286507684808 3.877390010031101 0.4660967801667586 0.6398599022262593 -0.5477007662924954
P 0.2817083915389438 5.656741986460259 3.7377362580995523 -0.37394664309405923 -1.0751805775524257 -0.6645275801762685
Ni 1.396265103921095 0.9959506818721144 2.6272957423265613 0.03433322606423119 0.06295191824218836 -0.3905428568898435
Ni 1.8263726896026646 6.747311615315483 4.769458713459696 1.1239325501451483 -0.312940535724332 -0.17232073318601937
Ni 6.021133898502984 5.25364892738855 9.189914260505484 -0.5029522584322113 0.8401115574945918 0.9750870172629337
Ni 8.907075345079841 2.2770113155077283 10.190471486696651 -1.1608348224881364 -0.01238783214139157 0.3564621131560506
Ni 2.0497079104327582 5.5202709543864446 6.985554314577646 0.1815921311856163 0.19963690450246907 -0.6224010833198635
Ni 0.295574335113148 9.087141920768426 9.26206710991365 1.5836535086925498 0.08469959433192509 -0.07014457933588565
Ni 1.6564762886377917 1.0116145670492607 11.389025669834835 -0.4153380615566525 0.47121096146487235 -0.19913939604076025
Ni 4.193390051415247 6.682558476070132 1.6275103597528184 0.16296448878209996 0.3711464546411027 -0.18347289314809695
Ni 5.687661133722973 7.644502636209833 8.029862361158383 -0.9095166875612917 0.3627134933824011 0.0668031736674785
Ni 4.977120060548183 2.730464900488106 5.155805490187235 1.6105233365002007 -0.2687977797688467 -0.6085271535512486
Ni 0.5395886085310184 7.522932726208887 6.597040019362115 -2.239705704407956 -0.7848400386157968 1.3336949731173933
Ni 5.151438671415241 4.310056484317261 7.201494365501498 -0.45182304385656386 -0.3907876259107979 -0.4093857006279595
Ni 7.95094271335369 7.317722209618552 9.018270768811288 -0.560022521082642 -0.28060839925052966 0.9255043212387998
Ni 4.537223681695039 0.3931844031266063 10.631600999235044 -0.15279397600700137 -0.8933051107984357 0.060012633108206315
Ni 8.435006708149812 7.49645394987465 4.355533510255919 -0.5752447373490351 0.03413859355492185 0.632689352619749
Ni 7.08083886317437 5.905820462059749 7.1588186778684335 0.41208458761636124 0.6576048849145062 -0.9149702544766952
Ni 2.362222850871404 5.227433485935552 2.7462704416703327 -0.6206370494409054 -0.6991667675166926 -0.04473410968258102
Ni 2.4588576717729635 5.20827360319713 11.54686042518765 -0.5967851825239722 -0.42144828821944835 0.12222304519867984
Ni 1.0922495237872656 3.22624275724279 3.9861173502894167 0.7556387344614922 -0.09907488921699066 -0.2944777010334541
Ni 3.3433268937495275 2.49812181061701 2.875863893087237 0.6200238413369386 0.6322890318575368 -0.47993394316016696
Ni 1.2537918526576606 3.4549990444211476 8.397071956430365 -0.2297604633607269 0.4454119981238974 -0.6702901936916584
Ni 3.4104863689786136 2.5972537726337666 7.199261467318854 1.3444948919463748 0.33811292122490155 0.5575828012928977
Ni 4.070031280324504 6.731384395257097 5.986420004796484 -0.3703517266539493 1.4333270203894346 -0.29396348040119696
Ni 0.5919831693844293 7.056049062285322 11.150704878159614 -0.23263084292998643 1.028755453320667 -0.12301545919298815
P 9.076263466019313 5.906210924125034 8.006909548078806 1.1045484891915816 -2.1071733068634675 0.3274184176255329
P 8.51527844436197 1.63491915042878 7.988608681884011 0.12311418955438151 0.6810266062725562 -0.25294435767635787
P 1.8115442116349663 3.1935983124823024 10.462402889731111 1.4202462759460768 0.2963240102135735 0.6358368971097953
P 4.034699003672751 6.182267604281801 3.761206660428462 -0.02475355279559608 0.09682543106118163 0.2171882831226711
P 6.908000375950137 3.603447273334763 10.402981827805194 0.3814835749010526 1.397843225660528 -0.55648751134619
P 6.2228574980451885 7.835602035371017 10.248841933251557 0.049745446854243355 -0.8805349556169608 0.807094479138623
P 2.1480407872926515 8.567854615478305 6.039687202963242 3.618478543700594 1.063662292500181 -0.5246366853841803
P 7.03717067545443 4.113490616242083 1.43332631027588 -1.7493027433956647 -0.8394078465593479 1.6602117048642633
Ni 5.268550049461418 3.236022469901217 0.27688391490438274 1.1597909546046543 -1.3062944696172536 0.022244670330813305
Ni 1.5290948502232946 1.1875222677168993 7.368990786841837 -1.033174665434285 -0.6447156876566639 -1.3689162582135328
Ni 6.886779216727534 0.6470501252567584 9.230237187182373 -0.9183671959733862 0.6885550534391174 -0.1408396318586026
Ni 2.7808435874230666 1.5066387412128122 9.295731296300453 0.5019538990746838 -0.31449373914406487 0.37845198716358047
Ni 6.344091429059727 2.0614217723913195 2.416033971775618 0.35188117865358753 -0.37043991549238137 0.7588040195633512
Ni 3.991366794939219 6.783942405347139 10.454894213410542 0.9350693392194154 0.9049861466807898 -0.8173225846245342
Ni 8.180534407741497 7.53094173880381 0.1635927087388005 0.5751771173358933 -0.5495648160844278 -0.21284029056662054
Ni 7.812383163256256 3.7458842025456125 8.210450158301558 0.09125513606225574 -0.019268875531941006 -0.07532998019156704
Ni 2.980042804310636 8.346054001369914 12.379760504955788 0.38543330357742006 0.043678671834873166 0.56722443814772
Ni 9.14434915358931 4.7537303566392115 10.240043824064232 0.1314011121535221 -0.030913658859720958 0.03854674992494652
Ni 8.668902565768905 2.572000865574263 5.821740358634087 -0.2634653118123398 -0.8850135602136049 0.4972544367164855
Ni 3.840939014159738 2.754718951101531 11.522831571300248 -0.7742802608220795 -0.34412853129136217 -0.5412843212431903
Ni 1.1190642791079106 3.3867226660750824 12.60693042648751 -0.4660343023599393 0.49096680393556086 0.00869444245020438
Ni 3.233071303128711 8.205778234287854 8.013608242626736 -0.42910940430913186 0.24719279990456133 0.2780828046151985
Ni 6.034890875919434 8.020081740448642 3.5974178126057046 -1.1761017759495358 0.08220331027263261 -0.0552964585794596
Ni 3.2066288488470582 8.574819369061418 3.6728796010043356 -0.04530849412881229 -1.0249908440719122 -0.21852165722211397
Ni 3.6087139709595424 4.356303537770714 9.530092076192627 -1.110668228936074 0.8141233609609464 -0.9313345547673316
Ni 7.256564953579084 5.896267762229977 11.211734098963719 0.250551174853833 1.5627296140556894 -0.019659426102140335
Ni 0.6674658429632963 9.543256096100631 0.28102462889903707 0.26429603524375134 -1.2197871326526282 0.447382491586707
Ni 4.609223070431035 0.11482127263071218 1.6207462855102353 -0.23670038501366977 0.34588228075767524 0.04610065101280447
Ni 6.294502746768484 5.765853432424659 0.15009634204964548 -1.1756207225480593 0.5957693396649482 0.9855336665175545
Ni 7.980082080039756 9.028944912014612 11.22045229963536 0.3810542006731179 -0.3621457938043892 1.2653550510904144
Ni -0.005938655597596306 4.91014219558202 5.870648910490682 -0.13831223745105858 0.8341573967936861 -0.1693084287222568
Ni 8.172498153607135 8.892028934796635 2.394091819809208 -0.2317155302045687 0.17978515988386456 -0.10811103127732996
P 8.431528871614828 1.6928982268670862 3.4737521201706216 -0.24852797377621713 0.1877021007380961 1.0188032272039615
P 1.6963397413494856 3.3859235809182193 1.509413746030282 1.3592756497999752 -0.6514308948933104 0.9162835739714799
P 4.821870527288084 0.7552680487275745 8.396925760168712 -0.1628873556872614 0.6769907456402857 -1.382063080008136
P 8.599454801226981 1.8750805621187299 12.467529112821424 -1.097025441341659 -1.2822672534647208 -0.9541106721215826
P 6.3356374713206405 7.722921947740172 1.3966591981916388 0.7576459946995081 0.17853354686495057 -0.15016348036268976
P 1.7949177920643258 3.5605963317979787 6.213244866828652 -0.15591632368606695 -1.2069079626971149 -1.7120423163823097
P 6.902116203431419 4.146307590752347 5.922640296560403 0.3005470471559856 -2.0338940385533424 -0.313282492444783
P 2.2691294300968514 8.26745307957665 10.166973842828302 -0.12709991367500692 0.9455892649141328 0.17183505179885247
