# total energy = -340862.4568922349 ev
CRYSTAL
PRIMVEC
9.30115243520893 0.00000000000000 0.00000000000000

0.00000000000000 9.30115243520893 0.00000000000000

0.00000000000000 0.00000000000000 13.61317676382579

PRIMCOORD
 96 1
Ni 1.952535142624578 7.228772031933167 13.048284589641417 -1.0266656606711737 -2.225328352640361 -1.3062564172904665
Ni 7.0993557957025395 3.3476057086728517 1.0430963522032666 0.05506017419893744 -0.9409376250747344 -1.1722322656918005
Ni 9.175373039246898 4.420196015532388 2.4768494814870987 -0.5827145633635189 -0.5489168980877837 1.1542867369569734
Ni 7.525618314763447 0.8041246307283019 0.11577237559193986 0.8299976089890416 -0.6804565927016991 1.5114559034823776
Ni 4.210947987181055 6.062974875622208 11.416554568635854 -0.5042583788381445 1.5899521972170683 0.567414699781655
Ni 0.7517898358167829 7.859343667354717 7.240563102988908 0.6945678352921006 -0.7731744293524104 -2.1865869702061054
Ni 6.949309603171815 4.684739395643896 8.317801195765107 0.13148287323405097 1.8698178047643021 -1.1720576877871491
Ni 1.4117289302202627 7.152958337703194 9.262391831923546 0.35535345347290415 -1.7719402782895226 1.093414069841317
Ni 3.3766904126180273 5.489186776364809 4.914098375984437 0.10964520853366923 -0.4469158363629335 -0.45388301170938605
Ni 5.5215361848462035 4.1555131181330065 12.058225269365296 0.6109277925729414 -1.2086596552808992 -0.7164738913365726
Ni 5.542333561891747 2.363711192290194 4.995504853227597 -1.4469096441698757 -0.2413204002841844 -6.324913776763301e-05
Ni 8.440368063276441 4.995323480753363 4.885946577637503 1.719002035529594 1.338081275110547 -1.4361662896104428
Ni 7.346385105609774 3.5803856529120304 6.144226023618203 1.5188776498677454 4.158887661427682 0.5560990176585197
Ni 3.446979222248246 4.3599431494764715 9.934025265396508 -0.11983294769994846 -0.5123848646000209 -0.7161658731778505
Ni 8.962255731445232 5.226419916385546 0.43266729268951176 -0.31204810581704967 0.4623632812662553 -1.983884539404435
Ni 2.1473198787997836 4.1025337533515165 1.9725493626275294 1.0757120245758636 -0.4397679124642427 0.21354760104629028
Ni 6.299968241955139 4.94506935366165 4.6643373175806575 -2.7295543355786736 2.587627898413795 -1.2395938829659103
Ni 8.119031845848259 0.09840619371281052 2.569460127061681 1.7069034524938473 -0.4182431510185894 0.6418998154744235
Ni 1.0697441541869341 3.8639684922418867 10.868107459432384 -2.263191189124406 -3.754526410597508 0.36991463911653066
Ni 6.060035711424359 8.985955068078525 6.571216822921805 1.8736752308371794 0.8143123370433007 1.0822559963419685
Ni 4.142863550699223 7.82278083677957 0.13422028150970816 -1.074007640290247 -0.2294524452020048 -0.011270687817812848
Ni 8.57353266397458 5.464027158785116 9.870724411658202 0.336318291218324 0.8041317969658731 0.5972672643667134
Ni 1.7420593621399665 8.550809948356395 3.981813164616361 -0.006466838671266282 -0.6984612568092358 2.750053998193922
Ni 0.10526579369988025 2.7803749219454654 0.4385251585496562 -0.01079786194645237 -0.3541956857193771 0.7486635886952397
P 5.873947552859878 2.754043359147642 7.245027656200832 -1.7902653018509553 -1.1210482866188176 1.0598701724476005
P 3.565271280059165 3.281641934966684 3.838398693835848 -0.5371163059084298 1.9319078892268278 0.5837671729977495
P 4.315660362305707 7.449562790567827 3.8491526863850685 -0.444859210944221 -0.42389494998772803 1.4938482177029433
P 1.5515996618888113 2.396637272228128 12.499904448736125 -1.0195246787510182 -0.1571730789113035 -1.3356068454281256
P 0.6929135403345437 9.185595005871697 1.0027246996691972 -1.263317194724779 -1.0453282700776836 -1.0019023376835647
P 8.378264267868083 7.77645179605334 10.356428736274859 0.17569402053362645 -1.5350077226603887 -0.8344900975427564
P -0.11657692528533856 1.929886836226592 10.189313068630549 0.8531305954620791 -3.3101220278025187 2.868790627505898
P 2.6048621738017284 6.031090524767055 1.0210172763398007 0.15350308625888404 -1.0733450670055837 0.4467651697176822
Ni 0.0501964599460582 0.6024868053727938 12.275423922894863 0.5553415706672049 2.041183887346536 1.0439167344421378
Ni 4.765696627220105 0.21889797409585435 3.52522702809397 -2.181459419171553 -0.6089272172031448 1.754273714247695
Ni 0.7264553565696229 9.037743885336836 10.311899468562185 1.384668635951783 0.6593388368864773 -0.03963509789311883
Ni 4.555341761718317 5.873091846827593 8.14461373575258 -0.483007182768852 1.8550077363346633 1.7792509530183227
Ni 5.306884186877939 1.3478579158321842 13.532437482016931 -1.354832269316641 0.7374247825566267 -0.029433988990400922
Ni 3.88822589802667 8.949373635198327 5.878360019617663 -0.7050576790798309 2.4832110281586006 -1.4420497449744132
Ni 6.80550448398526 6.565218509658535 11.52720293930186 -0.3191592629405342 -0.814936600890861 0.24146978137785508
Ni 8.880731129565007 7.6147698617140405 12.370130118133293 0.7787645218456781 -0.3747935644753868 0.3931036756384843
Ni 1.8385681207377098 0.9335380766131726 2.5610332828741758 -0.847443829489947 0.6868252152322043 -1.0681144147342638
Ni 4.474765877395625 9.095466837905995 11.7833892338698 0.8150332743697254 -0.5225746606488291 0.36721472368686436
Ni 6.192828266021504 1.0837702921943932 2.153863239601009 -0.055084599678969656 2.420592581996431 -1.1208963344219858
Ni 1.9645708339917212 2.452546500054944 9.150627322954561 -0.3194063459543338 -1.7318074148243787 0.7377045185805747
Ni 4.117369091628636 2.1262155637209212 8.489054946167718 -0.9608749874286094 0.9994099102790143 -1.8865158342452735
Ni 1.13726122036475 4.133906540817802 4.634701055290759 2.3639524649048833 -0.9819822017208701 -0.2237836769520017
Ni 8.746701521682057 3.148244805455424 8.776074561355504 -0.5940808962189317 2.6635759718053356 -2.7380654583734776
Ni 1.7626893184400623 6.314115294945422 3.231972850368784 -1.0923974556513443 -1.624074592822074 0.27014118117061864
Ni 5.141425984613554 0.6230023574968341 9.643629331842206 -0.7275802856623792 0.08547555326600119 0.31707589804894426
Ni 0.7196664453417418 2.7941592299872786 6.712766412621087 0.11918451548267216 0.27571610415523484 0.4444298367162862
Ni 6.529948539284341 5.261206226828448 2.112057349347609 2.7107791118536992 1.6209460744954212 1.6321391149977635
Ni 3.006904491687951 7.182852241918032 6.695545328721346 -1.5634541509265396 -2.234522103324487 1.0988941191192818
Ni 7.019347281683864 0.135859144584585 11.515849022414788 0.4237643379471347 -0.7948015207038828 0.5947067027283888
Ni 6.5971679685813625 7.438912970926886 3.9653138501525467 -0.06018001192400603 -0.1440879635925712 -0.12819597495266308
Ni 5.904725066564575 7.953880581617193 1.8341305408681083 -0.551378986475031 0.14137802086057588 -0.2831242236938479
Ni 4.348911982582011 5.847281148571161 2.4466691017744973 -1.3730086831153514 0.11864818336322794 0.29875627380415
P 4.708587550717586 3.497493781610653 0.40130380637575025 -0.11262074622222538 0.1121738884927939 0.19892702291963804
P 0.9995576572344892 6.270334770010998 5.4224956525311985 0.736773522125873 0.4127222212003601 -0.014787956942451951
P 3.8011857126992146 0.31470542579322447 1.5008256003709606 1.823613538294098 1.7104860276387832 -1.0988182715760237
P 1.8292204624502453 0.5338926657326014 6.391168832806955 -0.17055335687295142 0.2670232043669273 -0.6065468898964264
P 7.744632553265862 4.591374426599548 12.225735305876661 0.6053248445638671 3.884737616207987 0.921634039650116
P 1.9369929167555697 5.542984642568485 11.073203453296626 2.054050458896559 5.541218907495541 0.3210906756352922
P 5.59047632736032 5.319226816278402 9.951259370909785 0.6329796301666583 -0.2622430093694645 0.09297057609146568
P 8.167621066638024 8.584098773242799 7.286426155973643 -2.3904080879932508 1.3128973196457518 0.26226872040107735
Ni 8.023657827858546 7.404377791602153 0.8806517233569305 -0.6134621289590209 1.8594269484482817 -1.6054762609945963
Ni 8.73992098149145 7.7010194490768855 4.655052907130362 1.4819015868640286 -0.1183234530339575 0.018330679988387784
Ni 7.546480799876663 0.9671338395328958 8.943516699453436 -0.3473496093318211 -0.2881774698470392 -0.28726652799699554
Ni 0.5354729315465717 0.7581146195336743 8.228144596232413 -0.8955764233311158 0.5859441260444102 -1.4252689259716487
Ni 0.15027500088283502 5.301573228786255 7.275726110109067 0.42655115666365245 -0.664992435627829 0.6505940008143118
Ni 2.2916644648327806 0.0919939791621856 13.067805848560551 0.2424434581450341 0.3885047434138922 -1.2203874852407883
Ni 5.271967660299688 7.014854825014366 5.868272919704473 -0.9242025717082406 -1.5939770021057451 -0.14129883088320827
Ni 7.909532686378755 2.6577764305155447 11.979840736577456 -0.11723407662452068 -2.6453905591455604 -0.606911986545329
Ni 2.792922176701475 9.206969054373781 8.248346699516366 -0.17892898253115636 0.2490149407149647 1.085918018574588
Ni 2.640578599497115 1.6088110510691043 4.564076474054394 1.747558249900732 -0.30467289639890105 1.569693189857716
Ni 0.4209422598166981 1.4556675747476084 4.840110497995091 -1.6888460807715044 -0.5760916587303627 -0.6024488085676527
Ni 5.044015014220902 4.680916621956186 6.499597948480535 0.7584787750134485 -1.7035281082637113 -1.1653599640519994
Ni 5.243422423200953 3.487708969154521 2.5574393175385777 -1.804904391920369 -0.7679057247543032 -0.5415476022069061
Ni 5.98826801854269 3.010987697646356 9.369541109009706 0.505065191010156 -0.14646726245802516 2.4525092281993697
Ni 2.566327498891315 1.968021561578437 0.6024747138745115 2.04171559148029 2.74539927303073 1.5670737499569978
Ni 7.736131299858157 1.6317941989579847 6.398615335518343 0.5878675683193683 -5.159526559017792 0.24271496663886588
Ni 3.5213884424469684 2.3766304931471973 11.60573722064535 0.5096893200457286 -0.49189754327994634 -0.379492769723269
Ni 6.484568216115645 8.193403861436881 9.625087484283936 -0.2200470927277049 -2.4843392282257732 -1.989938458907999
Ni 2.9174646090090866 4.707685338922676 12.951018717228154 -0.20389953643356498 -1.0113629688758323 0.3694263866262025
Ni 3.1276427526129034 3.440077767074814 6.658368622079559 0.08486568759614416 -0.597384763781184 -1.2295071881538695
Ni 5.423325315336414 5.820791466180416 0.30424627977904156 -0.4354227481216694 -0.24621912313738242 -2.0428818438742495
Ni 2.6950089440724807 7.929985920780879 1.9235964667740422 -0.98906841914369 0.09504879877673308 0.6605187161271915
Ni 7.216354993312506 3.310549917013888 3.57399018043595 2.3980195817919214 -2.1121519910249815 -0.4981656356768453
Ni 7.533301066748964 6.387073535350269 6.4516523674454875 -0.6842186308472926 1.4586613853891652 0.6722588873822551
P 2.8965184135231463 0.2954883145616519 10.56447877618099 -0.8878106633427677 0.6034613089925672 -0.7182394678774275
P 1.9209949344128445 4.248785075652105 8.154673862323447 -0.4086850750165091 1.3622843547193118 -0.20562860330952973
P 0.04475342548852165 2.2763175631667942 2.8287641679559474 -0.3474527105685887 0.22470387477342593 -0.4477349898301192
P 6.0875020148302115 8.040409203555784 13.185232899186662 2.2411290671180435 0.24447000165675964 -0.6981894912050878
P 6.786697553580034 0.6627154884321448 4.385620841251798 0.9538193661334088 -0.55146871797536 0.12547857602150003
P 4.575088108528552 8.091612048205029 8.27052250736609 1.044029348760602 -0.1716008243008593 -1.1802595068716513
P 8.379631537289233 6.424185133924382 2.5476656664654755 0.5276412765384589 -0.3453462057485472 3.071246489514401
P 5.8811931506767285 1.8923752880939109 11.313448502552243 -1.0142302631212985 0.5821808023472361 0.23755964769017154
