# total energy = -381176.81736550544 ev
CRYSTAL
PRIMVEC
9.15669571764019 0.00000000000000 0.00000000000000
0.00000000000000 9.15669571764019 0.00000000000000
0.00000000000000 0.00000000000000 13.40174975575315
PRIMCOORD
 96 1
Ni 5.573634836639028 0.6773125335263734 6.217728709817675 -0.5538950680286654 -0.439924749757081 0.4284481165760492
Ni 2.6418989751877855 6.842111880018067 4.4594453673437515 -0.9070018915592378 -0.5422168603597888 -0.46334287157070525
Ni 6.211004948228465 2.7395551339089104 1.1954533115285848 1.1168812997253217 -0.3330301073853555 -0.6148137578909089
Ni 3.4863202879963584 4.841657745967859 0.030888281314015116 0.5505387499619229 1.654862524737208 0.8348729348034719
Ni 2.7660546110152335 3.215520171913981 12.190164194854761 0.8318164073653352 -2.8185309600193977 -1.905182300306525
Ni 3.672054701826579 1.596066985658174 4.82365110404333 0.9123837246964417 0.15325574613476833 0.6071403005060511
Ni 8.623931592897689 7.783392719029366 7.993298977940881 0.95645654664594 -0.2834813499229505 -0.3212835083723886
Ni 6.715483936374895 2.724043691539141 6.477199246417103 1.4906317676481748 1.4281272213560503 -0.21848257645406244
Ni 7.040986152054083 7.135959398960367 3.6713963354119468 -1.7764646485224374 0.8316328305996193 0.9909206418610805
Ni 8.703622314824548 6.740875453311948 12.643116625443241 0.09814877785829548 0.3385721202495072 0.2328054208346378
Ni 6.062345994938501 5.049551363183463 5.206472402925754 0.27171341075374494 0.0810609691380733 1.4829858210671427
Ni 7.759273982782629 0.9508587426233278 7.55858668501508 1.4003557076697366 0.7162944283359147 -1.8312178330039173
Ni 6.663162577637669 8.608823045134926 8.707907648371805 -2.7438584109061717 -0.6092218656254282 1.0004679192298833
Ni 7.530713703566689 7.384160790267897 10.615994531087416 1.8079578340347122 -0.005238879801436139 -0.10360440165622802
Ni 5.956457966860575 2.0168720892857435 8.579571980996658 -1.4044843851261297 -0.6216840026481809 1.2632359478648825
Ni 7.885993493381939 6.707334477278616 1.6641625839292844 -0.34288386025098366 0.13176569458179244 -1.3468011714820483
Ni 2.1727282053281503 7.9460431032172085 2.360892806174272 -0.30896509601635175 -0.8565748452569376 0.3148318392097739
Ni 2.758143226004914 5.450147639591386 2.2594549321646493 0.39515695862308714 -0.12341860816867777 0.7369115903656341
Ni 3.74048268814847 3.0467622717517364 9.74213352621093 -0.2713889375347907 0.09410391836496051 -0.569702210264251
Ni 0.8905545766499958 4.23678474711178 12.75766139355445 0.7279487247453915 -0.6759535626250229 1.3003642201757475
Ni 4.974951764017875 1.674420830025419 11.222732748840025 0.23804147242259652 0.37120764689634134 0.6528249470273596
Ni 5.640139916882021 8.398063382192205 11.324371154483588 -1.7132692468108754 0.860434328212344 -0.03880154624822995
Ni 3.2219115454524103 5.514418486104614 8.756542521454916 -0.4710335553467436 0.16588063398763045 -1.186057087390035
Ni 3.136992350330074 8.624920516023979 6.1405075486978555 -0.7568435534028707 0.2697290333338645 -0.13003945591930507
P 0.2502579851423892 3.2896161528208117 6.83136741338484 -0.9524574527888757 -1.1242876194917217 -1.5558580837468365
Ni 7.906275574166496 2.7732884005501313 12.523010080416212 -0.16967481092274003 -0.31936186586964355 0.5858279121815201
P 6.4182301266642625 0.14190497460522866 4.281966630278929 -0.7507194427830038 0.63105953032581 -0.9940535310631075
Ni 6.338896515866342 7.537022666844593 -0.07548505163144292 1.5066674809547986 1.2904929838086225 1.6958950171984857
P 8.111568689827783 1.1676984514536104 0.9350185748810236 1.008339094447844 1.7213916188076934 -0.950428338173989
P 4.41841696130702 0.2216405643405953 9.655209930418733 0.9794980018464357 -0.10814856938348472 -0.8072058079055067
P 2.1473641584779375 7.056241206946666 7.79274170525105 -0.5580512562888841 -1.2206265978347883 -1.8555746645817268
Ni 8.872627445768364 4.992926357507754 11.003211959534024 -0.13456562592443277 -0.2718018567024932 -1.376244930664462
Ni 3.2039003251800753 0.7767634045878025 1.6938202053528053 -0.9608806438555645 0.027872043819919742 0.44979804300673504
Ni 4.649797502772009 7.788804326137117 1.900019833879858 0.8647617519431041 -1.1421737557435234 -1.8139994122431018
Ni 1.761446065138928 8.86791174752726 8.591741229467392 -0.9894934224962506 1.4026247062095714 0.6800457304165255
Ni 5.802790301069864 2.9730234019738444 4.229230473230398 -0.5738712540402762 -0.3062772647715435 -0.5458187187784341
Ni 8.4437278232182 9.259800006406465 12.492025653798253 -1.783810290254231 0.26038358756322255 0.07570664680469542
Ni 0.6216444025423059 1.9354873786703322 11.324572601787093 -0.5484479288711651 0.17411047809659044 -1.3935165732607162
Ni 8.27676463539626 5.893597251471871 6.211107503219339 -1.665345426546403 0.02433600564220325 0.6812508064682203
Ni 0.3891238524733993 8.615525746324225 1.0584114579638426 -0.1426856839284059 -0.8129074862759741 -0.17696157439214039
Ni 5.338756437449568 0.4544431406344069 0.3408332711453665 2.037548090366162 0.32103822513080194 -0.006460153803046939
Ni 7.743551936413742 8.430203383796625 5.59852731366513 -0.18061151243990184 -1.5539498109805303 1.7665443040849318
Ni 1.4578466653679365 2.4480334156525148 8.825185690123732 -1.6908736527244945 -0.1987280195349545 1.4020413229022757
Ni 3.501648596453851 4.028268474594436 4.353035407615838 -1.0621299150160546 -0.7408417786579757 0.45861564129836496
Ni 1.2154597757751657 8.505764436001662 11.654362898022223 1.2273235502389894 0.4469909125752431 0.4581387016619465
Ni 3.856397297923502 8.677067897544543 3.7000888411177737 1.1627896322216618 0.40499425642848313 2.0106304400397117
Ni 7.854082409167863 5.520928896686023 8.817600283477264 -1.5910068637338277 0.7969422211959695 -0.19149422079067666
Ni 3.467869546334561 1.3932644912038394 7.952611200980983 1.4235912811589095 -1.2564181536121009 -0.32589735299531614
Ni 2.570760606964211 1.040914843985003 10.427499373529637 0.6577555515597575 -0.35014465557845503 0.7524186848622978
Ni 5.240962928294237 4.380901979377302 8.315196202556919 0.7285927860872936 -0.05208360806911675 -0.9323455125303491
Ni 7.934139398919274 3.1630339926557074 9.484458617621366 0.2142705952552439 -0.3426267499348551 0.2595675194198304
Ni 5.794686625451655 5.499502228949742 0.8873891069763068 0.22216902416671414 0.06451206364045664 -0.004234864016953997
Ni 7.608170191763781 1.8414389580210424 2.922238536760614 -0.38512837074249157 0.5432494153893612 1.8854845647672818
Ni 8.666308780198333 3.566478001399521 1.850017866141607 0.5941927392064476 0.7727059743564241 -0.5732860709607676
Ni 4.607411158775752 3.9798753382755296 2.185543916509218 -0.3961026103658081 -0.7667281595064344 0.20137059936412416
Ni 1.2506306436277528 5.07188454378551 5.767188152853867 -0.008790601708436475 -0.4243592912186563 -0.992601114887297
P 6.017395776170381 3.9807177542719985 10.344274167095852 -0.12991578585724722 -0.43463521922336756 0.2981348381700672
Ni 3.547441231218441 5.61089343109156 6.1171881919782045 1.322039648266652 0.19147108086222508 1.634434338789843
P 1.9149672237998172 0.09288185762809228 4.480513092611972 -1.720636485809224 0.5649729231093819 -0.36935336729642193
Ni 0.7947828658861898 5.840552513781155 1.382417469579738 -0.5180721447927852 -0.009949655013544155 -0.8498462682838526
P 1.3243969834924862 3.893903123157607 3.143634617328321 -0.2654759144844654 0.5874045126400206 0.3041013401661472
P 8.188860357503827 4.76831261410136 0.034072980048493066 -2.0614848036874176 1.0055502188487973 0.7914323471213338
P -0.23844035378322523 0.8463433032179087 9.271947278807724 0.9881975865029626 -0.02674590063527652 1.1933083696358093
Ni 5.66424033973753 3.7953587649619442 12.595808557554568 -0.8550815485408629 -0.5814066431853729 -0.8180450646128556
Ni 0.8246639106826874 1.5391855925052786 2.584393095394029 0.544566591538888 -0.500080593311371 0.4147227965701567
Ni 9.209712881399005 8.259339443643208 3.483342530582752 0.3437012139459565 1.264570607515906 0.34168418351592766
Ni 3.3942680269908756 0.35450055501851707 12.783834892296921 -2.201035027310635 -0.546842017836626 -2.0007129238156836
Ni 0.8242619317452419 4.761857143693634 8.191899464778047 0.44431619395655736 1.2911139052220733 1.0539604918313847
Ni 0.728850079119058 7.55916355683875 5.826116067476446 1.4015566699563733 0.32086647543962804 0.5683238418594858
Ni 4.017335380031565 7.029814983405253 12.605163037793622 0.9069293864500896 0.8179008257255074 0.46656189272863513
Ni 7.188317384480047 0.8624627501764338 10.7358199655591 1.1203366052637738 0.7200572378124567 -1.2123810699965443
Ni 5.42861109150774 6.589762505597487 9.79332861138766 0.17727859141192695 -0.2315566360292012 -1.8446587890001713
Ni 1.9547347528505294 6.216636316030949 11.873373659382535 -0.5875153271862721 -0.7169708855776491 -0.07954504671417914
Ni 6.0159123914809465 5.984633119264222 11.870626650698398 0.8887470591141081 -1.6433640371793052 -0.5850511819164956
Ni 7.037396727373475 8.991994129789799 2.10625883619805 -0.005341466817571446 -3.168308204956105 -0.8632435155263649
Ni 8.182871878572405 3.497418203080278 4.66258940654448 0.9452830465276236 1.957616349736525 -0.07269434234093286
Ni 5.368286780804058 7.369134652765659 5.307294031320568 -0.6835779119395002 0.46667939214310594 1.2589527471084963
Ni 6.883225443324007 4.985921485363201 2.9086893742608817 -0.2857606328754304 -1.7987638262402699 0.26955625520142606
Ni 3.9581556562796076 5.081407507223856 10.89125304226415 0.6451864566454953 0.0982019996937341 1.6707324018899292
Ni 0.704686475063814 6.994433511553549 10.003119495934442 -0.04954875746240499 -0.6441487594096004 -1.158580736346637
Ni 2.4369446572642084 3.1064913972405224 1.3553997235016741 -1.2300198661242299 0.9186911549717082 0.4234023266220256
Ni 4.389646623688475 7.774345903762935 7.777772339261617 -0.007128126404349015 0.4037349301000853 1.1669375929517645
Ni 2.5175144219699916 3.2471473985640293 7.004450936555041 1.3560247469628453 1.5372458679622878 -1.3379966858165409
Ni 1.0221069911942677 1.1125476737717221 6.735438207456476 0.34021402672830436 -0.18596892009707325 0.12647564982744672
Ni 8.9564844641995 6.007222687343455 3.809273279616667 1.5345279548104926 -1.8871637522419176 0.26025117575041634
Ni 8.476746867601546 1.3347623629273027 5.101603515069643 -0.0807210693001513 -0.33595268034878917 -0.3891156375250137
Ni 5.24907576060806 1.1318957716036713 2.6856167027262883 -0.44785377479617056 0.883282436455111 1.3022403541525378
Ni 1.57675551460868 2.4920130246855727 4.772497223996863 -1.242362961070615 0.3752792458625537 0.12531505386044225
P 4.6593113095147425 3.0123147828526395 6.383320224636669 -0.8062095054305083 -0.141512232445595 -0.3607699965027851
Ni 4.586094371386836 5.818448250569454 3.56198389519227 1.681962980498426 1.9566365023217593 -0.07227293853279812
P 5.923786876910554 6.3565506250097386 7.587480638024411 1.6316572902653383 -0.5220853797172363 -1.0948088933063145
Ni 1.2431679367025097 1.498007932330042 0.08172076134443741 -0.5140532534413791 -0.16102510566754202 -0.015066921635451471
P 4.0923561871953895 2.264762152942405 0.38617905916400275 1.6195481657066302 0.760279061446981 -0.9140444002283161
P 2.2632238280792873 7.295514820030747 0.3781678661714934 -0.4660643842669264 0.14530589516007233 -0.5225947152534871
P 1.9755662353719132 4.464255379549678 10.182783020572716 -1.3572262234701142 -0.7915930410689141 0.6382161959752493
Ni 3.2096049465474694 7.567139038718365 10.181805085481162 -0.007782986379528531 0.3823212403109996 0.2682012838354284
