# total energy = -340860.61241756007 ev
CRYSTAL
PRIMVEC
9.34280822895811 0.00000000000000 0.00000000000000
0.00000000000000 9.34280822895811 0.00000000000000
0.00000000000000 0.00000000000000 13.67414422861052
PRIMCOORD
 96 1
Ni 1.5069295785395496 0.6744769508093036 4.227634768300633 -0.8024143000541342 0.8440594863987464 0.024695960084783274
Ni 8.61407859202224 0.1340534162781957 5.402558311221889 1.9492371245338942 -0.8490294288095119 -0.4727273981093988
Ni 0.8145985210759641 2.9867743558280457 3.4782098093381904 0.2139281243141606 -0.6704195201806713 2.266405582296645
Ni 4.206590092613156 5.841703000978318 12.07830315162166 0.7236539540247795 0.591974134288574 -0.4291639116961512
Ni 2.615911580505326 5.411457336124141 10.086991939835691 2.465120232095161 -0.5255080322455401 -1.7590883620275188
Ni 8.89928650088423 4.4184943275821595 11.834274604606563 0.07143295913000601 1.0075199409806583 1.7869202966381226
Ni 9.221874985739825 2.960698577872996 7.937485495133819 0.5730204760042066 0.23525645347829163 1.250524413835485
Ni 1.1073843817471045 0.25262673349020637 7.113877704017706 -0.804989259870162 1.1938207904958535 0.5282853378803611
Ni 8.399829312170858 6.409381375871473 4.963427635677904 1.3056779190791772 -0.2811326471851159 -1.8293123884510882
Ni 4.181158968430552 4.6398534845470465 3.588437195899092 -0.06705462755665226 -0.48807765531322395 -0.255449897707031
Ni 4.1685461772305095 2.464511372063339 10.389997898502186 -1.5648996251238148 -0.9542289428670018 -0.896172662154218
Ni 2.883704494702961 4.363268987742567 5.565184838112742 2.2720069876438225 -0.12092798053634012 -0.679488572361475
Ni 1.7471144942215366 5.443736738787953 3.2159263491929 0.5784915264211069 -2.3536156017552496 1.3563893293911156
Ni 2.3948327077893286 3.2056109545529248 1.8330870161643422 0.9968025545631541 0.7570559265239929 -0.3402734192113301
Ni 4.590990597157254 4.25916207489659 8.429467502929299 -1.1007648537794334 -0.17561611610783948 0.28123266309808986
Ni 4.545173465272064 8.509999707601153 5.5850401743040985 2.7770374687613013 1.0822665378649297 -0.11486403373044733
Ni 2.780662662002765 8.235760255679052 6.703407027203536 -0.343086463180093 -1.0663745492250216 1.87252029129713
Ni 6.836861569469938 7.130197721549732 8.5727179796944 1.641142089827322 0.6918776900544472 -0.670379153861039
Ni 6.4003375374406275 7.452505922156436 3.716414049661356 -0.8523392099090353 1.4838893067180186 0.9698905606636585
Ni 2.9774035191068298 6.793193283492902 4.766437325592328 -0.6417584048005528 0.14633819307932863 0.4236576371659414
Ni 4.103781830120368 9.029123507778293 3.4041643164664768 0.08442140096987397 -1.4622375327761978 -0.5090583713299491
Ni 5.079376558039477 8.81416417449639 1.235345352735265 -0.592915672266237 0.5311508323536143 0.029042924199569334
Ni 0.052445854371434356 4.336268271766181 1.9339342231957306 0.20969634562100015 0.06517926491081032 -0.7565782155566261
Ni 0.5180876827370778 -0.22412929962474828 11.5485126672126 1.651433701561317 2.5457736813821707 -1.1697354674118758
P 1.3259500390313899 4.085647439217197 13.757146008498612 -0.07760566359962119 2.261360820783886 -1.1313612385090515
P 8.749455884236026 6.246545570074781 10.337844474030424 0.5577005578176847 0.2870315291680541 -0.17077755706861555
P 3.4676300132234292 1.3618357656975837 4.520234707086677 0.5809258468942124 0.45608541867734353 0.45604299547518234
P 0.6476799080537772 1.3867810638487783 1.9273709003675608 -1.0255320612873629 -0.08593783761440038 0.922533925756566
P 6.479078725762076 0.030994766523066444 4.647964910709918 0.7567044567218452 0.20228874030301935 1.1164331564443093
P 7.088837109221889 2.3786135925869045 -0.12094358767678896 -0.24448825648920472 1.5071505912388043 0.7333033041890855
P 3.3243487051909506 1.591958476844426 12.218887190898988 -0.30997939621347903 0.24822946869919185 -0.2253206824218184
P 6.871364560508274 7.8099711103822225 1.580566790688714 1.7783688075236856 -0.02298874758568944 2.743936058221642
Ni 1.559296019040465 5.713846669443077 11.870182754012667 -0.616309625710145 0.4992372714744692 2.7598581287685375
Ni 6.852893828506435 7.745617846837119 13.277265740289364 -1.517329331544019 -0.0386202834753593 -2.3839808443106683
Ni 7.330442131764918 4.642161158196239 9.828291446672042 -1.039438644066126 0.7021790719804553 -2.004536154216515
Ni 5.044453140627804 1.3932930012313185 13.548615461605412 0.18419254492294082 0.7372820863311754 0.6049270949048163
Ni 2.010385489203749 7.293276440362128 2.11150644051822 -0.0012660111966171744 3.5009714159203447 -0.643568204315782
Ni 8.338353633581024 8.75669656066568 3.072812277428926 0.8741917870077525 0.535664918173884 -0.194188222683072
Ni 5.265148958203652 6.354697918913068 9.887445437400242 -1.4421266209589358 -1.2767900324002333 0.7480658072102406
Ni 2.7105729141637163 1.997492413754817 6.538934361393327 0.5504436191449553 -0.4040210938819364 -2.1422359548945558
Ni 4.436796889034665 4.520246852737462 1.0314142703663471 -0.11440612025742232 -0.4982638518176064 0.7204225915716754
Ni 8.359524437180502 0.350138557959806 9.24145190624395 0.139936660428359 1.6057266864425057 0.7168996660200814
Ni 8.211721209932602 2.7500275935991074 10.550573678971995 1.5651454225860335 -2.6746504844519423 -1.16785239145655
Ni 6.935568339120636 0.2602784934848986 6.807316806794461 -1.6831220338035338 2.5504620879967757 2.558468760351336
Ni 6.5356400871880425 4.907562313470014 7.363362451077858 1.076386424935069 0.30304076011211684 0.8218356420035393
Ni 6.939800631278874 7.4945392166816145 6.17101830780727 -0.38213277844927734 -0.9605073196765458 0.642510709585545
Ni 1.237828671180429 2.0377599175119885 13.520843029663748 0.27851783527008805 -1.5947128518305052 -0.4820785003069955
Ni 3.445095159612687 8.90124849062646 12.936191574938658 -0.3873060951201007 0.4784342186861889 -0.6369386148144062
Ni 8.815584281357433 8.815659023823804 0.38210030514154236 1.1037645598377055 0.789395519196963 1.22211809477865
Ni 0.9850870211481778 7.56774011968334 9.141261498635792 -0.34322350297858956 0.16480719841779357 0.17615450510981276
Ni 6.900915863149558 5.866751070020772 11.775352315524113 -0.3530494879300758 0.26379672700982953 -0.3124057462667846
Ni 0.8281465273864685 5.1662273039621365 5.65224860006456 -0.8359227162242249 -0.1536496391390773 -0.3640856911395794
Ni 0.6894917780223315 6.357267191194557 0.4815488937709707 0.5909333517288855 -1.2400754505880192 -2.1271435793378073
Ni 4.769569034933258 1.8254539417862428 7.895738090542509 1.385590376435104 0.0745463079480071 2.0294977092578597
Ni 1.4845535526698455 3.1331107621734233 11.229808922046619 0.9525834368437789 -0.9504694758245696 1.0305801652342317
Ni 3.391495468416656 3.7488018289014047 12.560959168175744 -0.5158237150782407 -0.6229232743719207 0.6046049356787072
P 7.348539151434905 2.367037853107755 8.510240752055198 -2.9493481746449914 -0.43440870503485834 -0.3378928347942955
P 1.7251308663002782 3.9543996682703875 7.227181677350588 -0.7184762664785819 0.7381876288645802 0.9160130939189127
P 4.672674770092045 2.4895220698726077 2.096328114160006 -3.605532525062887 3.0875675952719277 -3.276679688983673
P 3.8542260777171644 6.676875320203625 2.8099822629983 2.513772702995542 -1.032742462992873 -0.4887721102770873
P 0.8341717044567701 1.5037903949519835 10.032774689011273 -1.2827555059550488 -0.2099969075805545 0.4238263015333217
P 2.8489212194157334 7.443630254274925 11.057241647128471 0.1772415675264044 -0.21607113879909237 0.20383834417832639
P 7.497930656093181 8.766740079584231 10.98586259174453 -1.6365585842216976 -1.560349800969603 0.41814390643656374
P 1.6218367777760814 8.400978477591307 0.18014896385061627 -0.6952481491885768 -0.6109522180529736 0.22299280561959015
Ni 5.696226132996203 9.233039641653937 9.415783103368442 0.17798615900191284 0.5874070837431818 -1.1709364296985125
Ni 2.255363265541752 2.436025149567837 8.687785875233628 -0.19732496853984083 1.1567776216996273 2.268443181551964
Ni 5.10076224622977 8.230995423447924 11.357197178886215 0.3559993145870191 -0.5433612583768771 0.7671963573921046
Ni 4.804688651319152 6.340366050986502 6.534955259339922 -1.3862429224174384 0.06616142631842153 0.3258405316154517
Ni 7.43837959601239 3.1149857140785477 6.040621666696256 -0.2617537284378718 -0.13485976012608386 -0.14442837765112546
Ni 8.058162812774162 1.8549865588109338 3.8363495483229713 0.22733308486615686 0.4876945609421924 0.19974180551144954
Ni 2.6826098889328085 9.57880763389272 10.38318792553499 0.6472649364410787 0.09726226148828411 0.31025630402394955
Ni 9.018127022413516 7.3713262608696475 12.28993831371173 -1.6405504789899101 -3.468578601411936 -0.6401483800009555
Ni 6.295380429039684 5.344375972556509 4.908142501865216 1.9911093392876482 0.7286280102006032 -1.6486322275567802
Ni 6.104235914105121 5.675681297552579 2.5275837365910165 0.22504685993514148 -1.140981792317951 -2.2086611763973254
Ni 7.975039847361737 1.0352018448496783 12.212897516500211 0.7471720917513777 0.29329807890305615 0.6543046168966796
Ni 7.1256197454845305 0.8770346403586614 1.456283149045988 0.7423121925559151 -0.10616444907392039 -1.1546623751288372
Ni 3.817966638719117 7.00040742869715 0.537587057932343 -0.012103982352385606 -1.137054946459719 0.2518344124416308
Ni 2.7032388096510993 0.7840503407894621 1.8971506526522597 0.3777017392611173 -0.5231629290521312 -1.1721034534234203
Ni 7.937350958694352 4.641367019491051 0.2944498148287164 -1.5898688934746426 0.6710962345327217 -1.596020514898335
Ni 0.5164573626893687 4.443495682583131 9.733269480613414 -0.1363941944927393 1.4599001428922729 -2.228772859545536
Ni 2.5501849241406624 6.034417107706665 7.871001137016323 0.0948240843604367 -0.3012679844824102 -1.2300568900097526
Ni 5.182250220190339 1.971304522100211 5.7524390076727165 0.367807877186173 -0.6343106902732559 -1.8492294390899895
Ni 0.3525069598629251 2.379865528898612 5.881236160003398 0.8319115381823029 -0.38288636878585025 -1.9474080417449557
Ni 8.689437683740419 5.766091653436139 7.432662731615867 0.5610198519989048 0.6991845081285056 0.6466956942011702
Ni 6.133404161606254 2.4987060504278977 11.559971621588046 0.07851043480207769 -0.0976201590483351 0.748917870797891
Ni 7.0200553545443265 3.3843015060284842 2.0253050197721545 -1.3508267477016735 -1.110425773907965 -0.3040190648649861
Ni 9.158502717065836 6.558352454156415 2.4493676140958223 -2.243097503698324 0.8680859312203308 2.270964148201605
Ni 5.829136923819759 1.4481539715473535 3.1860891566177485 0.7542012306840172 -1.5059565709307032 2.7945410248627036
P 8.75496814113086 8.461342361993879 7.633741454611916 -0.6695947102865307 -2.532891426102864 -1.6823591874955799
P 5.8693016566856695 5.522702154508512 13.558283399630453 0.14301889889810854 0.646245236927313 0.9729314043725115
P 7.972180948023061 4.27513827708331 3.676964041630113 0.5443927849651851 0.3305975866844629 1.2434032294096715
P 5.128762642693864 4.127297678602224 5.939679163020245 -1.9772462081523108 -1.7461659975388961 1.0892301136669564
P 1.1260045986816853 7.981934839884427 4.019446168191078 -1.5356666964006263 -1.891990998427232 0.3122095710955784
P 3.138305363586181 0.5193162620280449 8.265446094759803 0.09669379057932379 -1.0650931114094366 -0.6299423860022313
P 5.2246852554722585 4.246381113147215 10.587151707732946 -0.0725534458876944 1.4402062640077713 0.16414668201565924
P 4.565073646943241 7.590919627066528 8.30493721114755 0.07661913131663578 0.15591889478922824 -1.0237392310529982
