# total energy = -340886.928510025 ev
CRYSTAL
PRIMVEC
9.10261429142511 0.00000000000000 0.00000000000000

0.00000000000000 9.10261429142511 0.00000000000000

0.00000000000000 0.00000000000000 13.32259612185312

PRIMCOORD
 96 1
Ni 6.830765566958047 0.4541958731322753 6.863707927864663 1.049258458370025 0.3306760053308821 -1.3406037844220846
Ni 0.3643366859540673 1.6314888566939914 12.391106573359666 1.0434498221080482 -0.2724438611618663 0.08184824092605904
Ni 0.2922148528688775 1.7632491977062241 3.417658437037093 1.2382551095498286 -2.109240988025774 0.32471721664428593
Ni 7.321250832250147 2.6327491144019413 4.321450632330073 -0.22226646897652685 -0.8355925865783158 1.3984695463906174
Ni 3.002033071191252 1.9493248378424635 12.618283247538912 0.09847427951851427 -0.2354623988415106 -1.0545513313378483
Ni 2.9518503589287004 2.293030448639071 3.397728263175519 -0.27717263409610327 -1.1533991921456974 0.586085793828597
Ni 6.869925013385309 0.4913645778269385 2.268264966097311 0.16003883049487275 -0.11781643149055193 0.14279135626833472
Ni 0.672111547591602 1.2701059690582983 7.895556610438763 -0.6647777485138615 0.13265066828990704 0.4529563861300586
Ni 4.00612424192544 8.646109025915603 11.342365259293304 1.0903639701610834 1.2227428728468426 -1.2257736892533664
Ni 4.92852855253916 5.828567739984173 3.0888574467844183 0.899983808370192 1.1214267530041588 0.6745965343764962
Ni 2.390155342497484 6.846959117677271 10.994872050714646 0.9559374409176762 1.8269500588664986 0.6306975190007009
Ni 8.43101425160686 3.5047704552399996 2.4347308443929525 -0.10804675369829778 1.318708269900574 -1.8965313094997467
Ni 1.453414414467925 2.4364603410970855 5.531542155493535 0.6520870404200705 1.0203191496278556 0.3159145307509914
Ni 1.9206060899396245 0.05079167715469139 5.923625430150435 0.3454305379322374 1.1476746309570944 -0.30620270277986616
Ni 3.781981469069812 3.4979070841088613 6.705942328252234 -1.2966255790689216 1.6998033511139563 -0.6929786364281098
Ni 7.476832714708253 6.5487574754278235 3.7654848012966537 -0.5653894418215102 -0.3864334627071603 -0.9149481429895081
Ni 1.3741852601901718 3.052388733124217 1.1081495258533278 0.07124398304765149 -0.5982836214463696 0.49297612105610583
Ni 3.0276660328693485 1.8788706036846272 8.20274890476543 0.16825607619834246 -1.0121893214318696 0.7434931002378937
Ni 7.845151794388943 8.993319143191638 9.083772731079213 -0.22999829040314584 -1.42033703588767 -0.13758281548420176
Ni 0.896125063325132 7.402974102827545 4.586530592172529 -0.35651379232959246 0.9024806066501166 -0.2468539285079039
Ni 0.5215652313267924 5.944480429618008 2.3981073862908024 -0.8383020150896789 -1.6660805049402148 1.161618494731696
Ni 2.0179949596107734 5.331410258459812 0.5591599383675263 1.2094610681362719 -0.19769160785064016 -1.193833388901344
Ni 5.173243233559739 5.755910673182124 7.7274650052412355 -1.3663826931584016 0.6153470046865597 0.07652914270599079
Ni 6.01863032515415 2.6027013848211893 2.153237960828276 -1.267915612728739 0.9870840417238097 0.366000391663789
P 4.235573838878487 5.9828934616782234 9.96141129516001 0.21764311127190258 -1.3493272803380119 0.28079171890592936
P 1.261986437163106 3.41800433637792 7.612052049128752 1.5160766900838405 0.14338502398827566 1.0033573249625365
P 4.15456967482544 5.548343760843475 5.688574994660267 0.42636603723603994 -0.3012260755008812 -0.477870632873235
P 4.103303751469247 1.6898548191513618 10.395888175080898 -0.4409146244741761 0.4217023132117834 -0.538460221530834
P 4.336876832669516 5.936706797063643 0.882031485709295 -0.5834218738431888 0.2642875506033191 0.21022085066590246
P 3.7344476175488532 1.6148947909485476 5.690853379002607 0.034083314836954204 0.7549723045220869 -1.2560358305720176
P 8.481570171052933 6.4919753678468695 5.763434894106527 -0.8951475633238131 -0.4276785853998764 -0.5029813118979337
P 8.669766720305294 1.4865479302734192 1.2295611047448831 1.016691065956965 0.9228918233166171 1.4082649352144845
Ni 3.634063987795285 7.708949377631358 4.39728269097634 0.31969636639092686 -0.11883767366621469 0.13502662472125132
Ni -0.10979937391543745 8.412954664970018 2.477456695076422 0.5604099863290478 0.037762563460754316 -0.8056883428197157
Ni 9.114993787634505 8.357310384168098 11.3932707191259 -0.04938806351482462 -0.034088457043276774 -0.6402041729395554
Ni 2.620305840746416 6.623307885990186 2.410337658773292 1.6554361378524909 1.244178417012799 -0.0554250137375239
Ni 5.698118175421388 3.115733825566644 11.012591199579198 -0.23487001667315036 -0.6654488064389572 1.239928897707826
Ni 4.1173399826154204 0.23203838044070688 2.572579924065156 0.024426765583796643 -0.36916979053070614 -0.854597924036225
Ni 5.894543487939727 2.5023541655245505 6.52315637289954 0.1400022235589718 0.3755620672102951 0.025117621003234163
Ni 8.808517869047916 4.7745214223432395 13.398801469068413 0.01957072304307597 0.3695199747812733 -0.17607300113959998
Ni 3.6594511788891095 4.151074270960245 1.9790448733108532 -0.23274499991034756 -0.2487272342712168 0.5843924652865742
Ni 6.617154518769165 4.860504716381342 1.2772296749564798 -0.4407145926482281 1.2430887834930464 -0.33162859905213854
Ni 5.5124430503113695 1.0233796102923869 8.68240205912112 -1.354102333129152 -0.33742643668083827 1.3829940764628377
Ni 1.9383106746214063 0.1898104427557432 10.303016022591809 -0.13812069026554277 1.157823032245006 -1.3309055832977144
Ni 7.33380333727646 2.4137220107448534 9.175911212861182 -0.06552867783042907 0.313034380989719 -0.7009598548613734
Ni 5.605398946851398 1.0679551121878552 4.236012584884484 -1.1549320838504562 0.2007090545207253 1.6974379362055734
Ni 5.506972379157769 1.2125046261964394 13.402664618548592 -0.8582679166886444 0.347519302140466 0.35281706020429554
Ni 2.7917444771971516 5.17033039700541 8.408196728510806 0.28064645157731666 -0.6468551025971698 0.4937898752066528
Ni 5.930380480172209 7.40770746222833 5.700698766556238 0.271879504017964 -1.1149694274145894 0.3026178136420853
Ni 7.302626883530905 2.7212356273539218 13.300506889281152 0.05808199174439674 0.10371932996753751 -0.2329244629110053
Ni 2.07342988028535 5.543674119742317 4.7248056741908036 2.0122075547188443 -1.411703014361756 -0.5431679114191484
Ni 4.77564104389381 3.6285751114132205 4.374301320824106 -0.2762588640325823 -0.0635980364666195 -0.1597269556814088
Ni 0.668089102362358 7.2863969223547524 0.33738566573513684 1.1395206343913922 0.8446516114567906 -1.0772693417606545
Ni -0.3512070751854287 4.569694396888506 4.638542019634345 1.1462777506095678 0.4858207409582471 -0.40858942997890924
Ni 7.465936885472216 6.327618565268847 7.625334583816493 0.3278377645511386 0.6574652740128484 0.8352444592102777
Ni 1.9155905494976389 0.5934549477490593 1.269334067371401 -0.5288219271101214 0.3782995207461162 -0.24162790422227415
P 6.732803232590265 4.52357145057355 3.432006887851434 -0.3002305443568313 -1.1299335049235895 0.2481345949925404
P 8.913562037288411 1.31948765126841 10.153403634547232 1.2019387916172977 0.6922240176502724 1.1360743277140046
P 5.731297204298043 8.085915940832711 3.629954157469411 -0.060452291748786205 -0.2181151658123147 -0.7649646398481084
P 8.4726496091053 6.519665520341461 10.299419579708635 -0.09137983456557812 -0.06232714017399588 -0.49063384607617444
P 2.139332807327047 8.649768276836978 8.10921135117596 -1.125075662610656 0.11060551556440952 -0.6766984112108475
P 6.678151136739664 4.209731517073049 8.017178459719084 1.0891560658959114 -0.873670881507276 -2.016043897745799
P 1.5297853478767425 3.749312186590164 12.31976392405276 -0.21766265165592832 0.27863353491234594 -0.5304322090200349
P 8.007096404195412 6.68324860070974 1.2966856026165519 -0.34339910932450535 -0.010633054233813945 -0.10889341796930924
Ni 8.822244611310193 8.310386407800703 6.90881866347699 1.211370369343843 -0.29192382426334884 -0.3583001948060539
Ni 6.407703365284434 4.799043865084998 5.65043231024275 0.11942311385603949 0.8803367235632259 0.6109311350070511
Ni 6.416851492587874 5.091747528338148 9.999860737677155 0.46934382634914656 1.3350674279848878 0.239402100215549
Ni 3.4488986090822733 4.218970670518812 10.852732908954769 0.43768197646949136 -0.40062852326061976 1.1319227674394765
Ni 4.888877564943355 3.449745152205875 8.816334283889175 -1.0932214942145366 -0.2686319436149438 0.33600487374296323
Ni 4.424416673741339 8.981003306135364 6.723234564509293 -0.6107897243331804 0.8148592106857064 0.19210228668832077
Ni 6.0685490616039655 7.593819512821498 10.286442892859098 0.49063950250312927 0.023225289076527746 -0.16109272568068386
Ni 8.517489086813505 3.502795187951595 11.145923562069346 0.17253722007219963 -0.3463597346147261 -0.3193135291302113
Ni 6.0480408717386425 7.511622906304022 1.2801097420995726 -0.9028379899895356 -0.23086063840344112 0.03499322824573328
Ni 3.772041414328164 8.347561484325327 0.25205411887606427 0.6219981914544901 -1.2385865247473185 1.568687374301021
Ni 1.026620140959078 5.376941534849669 6.746376140672015 -0.7196206644956703 -0.17176203246907193 -0.07628257391282346
Ni 7.801741427115205 8.69524493754144 4.510444570589181 -0.20833983159310573 1.5774412092342511 1.0261167301462395
Ni 0.9121547669881747 6.67162456233512 8.687798088838015 -0.20860439810840203 2.0189186481904327 0.49862971979745735
Ni 8.379629994265645 3.3512275583699243 6.680802728265526 -0.5768185095940582 -1.122474734652699 -0.185098601676978
Ni 7.85740391314559 -0.020582831302028384 13.348042561324958 -0.0498313216998303 -0.8172079134235409 0.6522161097987671
Ni 3.9040475259246685 7.703870118889746 8.911124357197007 0.08966902252205848 1.3880851178324998 -0.37100530107754814
Ni 1.2464118642116773 5.1385349654920605 10.536894041368859 -2.1249578845403985 -0.854435944537064 0.17374692410958464
Ni 2.929339593932275 7.162501240039208 6.598455018351794 -0.7009644828470637 -1.6659959156462083 0.847079761282309
Ni 7.403438336153391 6.84543898110048 12.413195887317137 0.17055901329990625 -1.1184913245249188 -0.37737958003500816
Ni 4.821709374523372 3.8780049466061195 13.2728495061978 0.2678361871865258 -0.3032814153680132 -1.146198046411568
Ni 4.836319070366178 6.2364740889610415 12.02798599666703 0.540243795793818 0.16763181235078226 0.8771133315299217
Ni 1.639116847420641 2.8689437485011067 10.217685385994157 -0.23386522955771982 -1.9641868038651915 -0.8272383010763495
Ni 8.702936646567718 4.529806741322661 8.771357356706062 0.6999535250840461 0.06330107405149099 1.0166103333177008
Ni 6.8279619617745055 1.0590163450117576 11.259765406965338 0.7177576431450026 -0.5977933120735125 -0.5133132899515611
P 5.979288826442242 8.48870662061104 12.459664732972918 -1.3734583690582602 -0.7064548165376736 -0.8670826867667971
P 5.967482735782976 8.004019720584902 8.077170149078338 0.19421933303132358 -0.339417498968938 -0.4239276029978764
P 1.990040831303446 8.79674818884558 12.46196951489653 -0.6970525493871673 -0.3963028993020723 -0.11847900477521532
P 3.8668360389431133 2.0555068328619934 1.325719300971828 0.18672276754396228 0.1353770660821346 -0.04441117912552352
P 6.984590644869323 4.62488354697881 12.123002725069249 -1.3201946246381133 -0.17555363830102025 1.1338027580710086
P 1.8043657061934268 4.098980009708915 3.1514333683242177 -1.7057099464063783 0.04364113372871839 0.009489427547673979
P -0.33909604694938195 1.2024007243986101 5.647928181067449 -0.24433013364478565 0.12511630758607487 0.27112977033613306
P 1.9908782718128153 8.739137743369488 3.2190457663187364 0.5252774042919728 0.15233580542366024 0.315901675235185
