# total energy = -381169.3090981545 ev
CRYSTAL
PRIMVEC
9.24216351662540 0.00000000000000 0.00000000000000

0.00000000000000 9.24216351662540 0.00000000000000

0.00000000000000 0.00000000000000 13.52684051878214

PRIMCOORD
 96 1
Ni 6.031851832630836 5.415575124693662 0.05921084502437422 0.9113375428201144 0.2610279060154408 0.08199787913004589
Ni 5.479623318122145 5.514900656407356 4.530301549654996 -0.4646623617130772 0.5698829588164895 0.60294708836031
Ni 4.1307850004127085 8.749768806232733 10.49022716864401 1.0904398177043415 1.6440602919153813 0.24931036046819643
Ni 0.28936382292520757 5.702618240350486 12.012538123610963 1.2227603563483394 -1.3005673373254891 1.4441984158862997
Ni 5.1813787002380005 3.354313871595898 1.1336659627131085 0.49537393186432105 0.28514485366830244 -0.1832759466459424
Ni 5.5173775562398 7.8980757082507855 4.238215909563166 0.40764377823618825 -0.5638444659318934 1.890011763213674
Ni 7.518213544022207 7.026345599683993 12.139216762578759 -1.339180678822313 0.05932614856414299 0.2826411134098422
Ni 0.65607531263295 3.302437607567894 1.3706341120185828 -1.0556206531426273 0.6310533596782228 0.5536832091281756
Ni 5.32797789852986 3.237677767545762 4.0687515986389755 2.585471771302741 0.32577573981578734 1.1888755306754362
Ni 4.011782902492776 4.015562947386318 12.555951462521948 2.172114744731859 -1.4502695617810444 -0.9928872786691482
Ni 1.9379615491252704 5.60779364228754 7.175366244826973 -0.4512990530322938 -0.7399514056332225 -0.8269734774507371
Ni 1.9157988409230338 5.889522513900875 4.6601049641203645 -1.45082106340914 -0.23750642585473292 -0.6541200116896992
Ni 8.871257046148665 0.9671369629336334 5.728157110898961 -0.08814358701646755 -0.35502409515794336 -0.29028885976308716
Ni 5.038060470007773 3.831708587808714 8.306345510594964 0.5722630290128918 -0.5000592531551324 0.1503246885309024
Ni 8.411847580211726 1.9092091783091076 13.234525898110498 -1.8256781341326107 0.8501941385415746 -1.5910400309646082
Ni 2.3025464169992618 2.900477430281957 7.897794746478746 0.3551341383732464 0.540501677440895 -0.8906841282358209
Ni 7.583906842563282 4.2865986357678 2.9882012740864483 -0.2473846042003933 0.7264893665910456 -0.6216726897942714
Ni 3.7131131450851527 1.8738301762248033 5.03528504829254 0.34873183439132843 -1.0855575499113754 -0.5803020972672844
Ni 4.3761552006050275 1.825096247805123 2.7162034764790066 -1.0516410996695889 -0.6277901155459188 -1.2287700528775292
Ni 4.384001797462283 7.065125717956132 9.274380811826036 0.3400728731647498 -3.7919177067617724 -0.8467825417568643
Ni 1.8264733301746527 8.809223644374931 10.026256694993224 0.704384050051574 0.7196785143167993 -0.7519075495538341
Ni 3.3870218884131273 6.757139859686184 2.92792480760431 0.8995873442627217 1.9849487190028914 0.5518070751513852
Ni 2.066168841944881 6.529764151933295 10.442640192721369 0.6101299792619944 -0.812464999421917 -0.7620783194392488
Ni 0.584564072134699 0.659115984442181 8.193140097656034 0.2699095247757867 0.2493604969798415 -1.0050871631694498
P 8.805323451355187 9.163087602526407 3.475599708129998 2.162973444552223 0.3152884671312183 2.1204707953033224
Ni 2.859257380831592 7.701642764076332 7.817363893934632 -0.8646136564010142 1.4739162546657067 -0.5249295340342508
P 4.933309788287945 3.1673633872277405 10.569372436237776 2.368619017142618 -2.4352105890199223 0.9491844384645589
Ni 9.025120584993884 6.692842127841747 3.5863716594051893 0.29401541668505493 0.23905011619276895 -1.610614096441794
P 6.636492656653658 7.500015723984591 0.8325821521852085 -0.45422214021635965 -0.08394986065009413 -2.3962624898914986
P 3.651172164946958 9.053087371907965 3.9801913390328565 -0.36825627757750123 0.6358968038134533 0.6591593738858196
P 1.5166390391939264 4.0893708655277115 3.5770916029807247 -0.3014271357680938 -1.2221114099104309 -0.4466237590438115
Ni 9.180610744624587 0.9850760023917408 1.6233425900726934 0.10343008086189284 -1.0492286335733543 1.9443900808542385
Ni 4.2822640610610225 6.182027748218052 11.800897199308576 -1.2536123087321893 -1.43017407658275 -1.7387555640074377
Ni 7.3302002108453514 2.095771491808002 10.224925318531366 -0.5989932459188845 -0.12028494763570251 0.14860950561200859
Ni 8.748299302227664 2.368054872269259 3.6761491119513554 0.7331084145694601 -0.09307521999013002 1.0872727328302696
Ni 3.927300285446635 4.6075882181580745 2.8520799166156383 -0.8125166785954586 -0.8736662535215857 -0.5224970133333583
Ni 6.65864612269234 9.138586626945035 6.335565962906173 2.089420096645105 -0.15525272196013906 -0.4902340395345944
Ni 3.5309316171108036 7.1873902996105885 5.467089095910354 -0.06405080773332195 -0.01796532622916906 0.23831375224737666
Ni 2.259635051618534 4.344999867264852 0.056737642057352315 -2.2684375251250093 0.930721603773681 1.140464229251584
Ni 8.14189322496605 4.01796590991033 11.184519751788667 1.7223480691836917 -0.2923452280714836 -0.032631927102408316
Ni 6.639209852738502 4.764584850448064 6.39872321176806 0.27715437926365816 -1.4300306090263502 -0.2371382438820368
Ni 6.637537021135248 0.3496652432489412 11.561796882871219 -0.7609313503189992 -0.6672357231360508 0.03404860494427684
Ni 3.643029818855978 -0.06594930647151799 0.6032156824028114 -0.14440343795046098 1.5159885012454084 0.671007017253025
Ni 8.277096835595959 6.224726543837039 9.990870299178077 0.7618800873855137 -0.2040427468796486 0.5180320355834691
Ni 5.003337661535795 7.89569123005388 12.681954499333957 2.1926498885707333 2.434737763148562 1.222799694226707
Ni 0.43289462291717395 7.861384318941828 11.508974221295297 -0.5175805498683473 1.69612384537984 0.7556119949886148
Ni 7.622418938092357 3.9074481181328715 8.548692599088804 -0.6840507378108607 -1.1457738143899558 1.6967164846585168
Ni 2.577075643204115 1.6674064532485915 9.895154756548534 1.449054972647653 0.6458348888627716 0.5268378068005571
Ni 5.184373161229462 1.559642826210193 9.09134900480473 -0.0793180183050376 -0.5518780375986366 1.577502915710122
Ni 4.965851446161204 8.90609076058329 2.28659074583982 -0.661823550981544 -0.9314309711358797 -0.26053502553942226
Ni 0.816339973955596 7.659951364284718 6.121395458439088 -0.6014291090538868 -0.5314575649607557 0.34256530056930035
Ni 3.423352833343483 4.208178878013013 5.282826232703668 0.40187345141131436 0.5059095412883223 0.5888903531569277
Ni 9.245028624595227 3.091318865506304 7.286395128248962 0.7609650317704121 -0.044143013065801394 -2.085839321272382
Ni 5.985132695865904 0.6380808201935193 0.18922035973699436 0.27786323240522465 0.33963912806144086 1.35456667436008
Ni 8.693428577208199 5.713219001946802 7.596538107492389 1.2778102461346315 -1.4435841793410686 -0.563957337360674
Ni 6.271612039545942 3.236919910134343 12.375287497803148 0.43913259287308887 -1.1862098109178152 0.34424088849951034
P 1.2630895242564117 4.97047252793815 9.12949511065707 -0.7978763029744645 -0.9598092651682566 0.1078400370041304
Ni 3.5799150839464393 4.5119872783566 10.217214581478352 -2.912985576855558 1.732487471610539 -1.4765053555491217
P 6.2191812457047035 7.361928558325868 10.342689890751432 0.7278487088324175 0.14797624290338388 1.5038544369860358
Ni 0.35896748086593505 2.603147786589649 9.522003327276439 -0.616059457372552 0.3453701170079471 0.04338659451575108
P 3.287761051844311 2.2864558102519332 0.6125724487847732 0.056765329815502245 -0.24060537649503078 0.2401469488013735
P 4.031533406007446 5.480251785243809 7.603247918232515 0.3741947545491233 1.5234680974519053 -0.8266083808018343
P 8.124314629886545 7.657724002868229 7.246491162888671 -1.024034907916546 2.1914072744128843 0.0988126366945395
Ni 5.612488661372917 7.163397643024681 6.802432006398394 -0.9604170739555845 -1.7576907103490438 -0.506902758439527
Ni 8.557309992386456 6.3262886791307755 1.02784873531916 -0.379958653616094 -0.9302541772189592 -0.34600440815783634
Ni 5.313560123385786 1.8573421564446573 6.817365494268775 1.289483825817818 2.141814293976105 -0.8891340101398816
Ni 7.52645755391228 1.5465189539636643 7.913472228515216 -0.09831230001935327 -0.41206170479822585 -0.23935144948327164
Ni 7.087085098560182 1.972092859129799 2.11231126770405 -1.109347967462754 0.8420843649502466 -0.8996043135435862
Ni 7.125597194089257 8.805341935682296 2.40151427698342 1.2953014609408597 -0.4129934725838758 -0.7314120007036436
Ni 1.322960259758534 1.2473131510699154 13.385836751382131 1.6558775962652839 0.9523021581579342 -0.24097612957088824
Ni 6.499181832733462 5.787110099560182 8.541252657427922 -1.4029669200403387 1.7414081711389362 -0.16847899084242596
Ni 7.814240042653417 6.675873515556797 5.365096275795006 -1.9229051715075853 -0.08331994037557909 0.5240661575926909
Ni 1.5646243523657417 2.468646580389836 5.231816883617018 -1.3143286527756395 1.6205946046932738 0.1377658780292853
Ni 1.6731365946520054 8.180479257803555 3.8549738861229303 -0.703854402800349 1.0716213994462578 -0.2893997722899145
Ni 9.212394545086427 4.633623392889394 5.315615580560172 -0.3654319207548287 -0.48417549204534027 -0.5902430105300802
Ni 6.365586358561931 0.8654251045903244 4.165766589464195 0.11555128960545906 1.59645785954607 0.9338310959369401
Ni 8.077604735285165 8.936423541367168 9.909587319154294 1.464478763401891 0.3303489610087666 0.21455187394108854
Ni 6.249024191820226 5.117432170608611 10.77203182599849 -1.4415488940785948 -0.10319945290832551 0.4352008619188505
Ni 4.386072042098355 9.183087644457032 6.337175947797262 -0.3655602188025769 -1.6854923338079228 -0.8821722341100678
Ni 6.431399805229207 6.4153738936267555 2.670401162338621 0.06924520745006785 -0.28637641208255843 -0.7401599220996027
Ni 1.5542731291853809 8.30893608903912 1.0866113354111704 -0.3518480114228069 -1.2257330658234182 0.07663327238402286
Ni 1.4530437117795851 5.719161713111957 1.9711307499038386 0.49156252853803084 -0.29399176253597115 0.40553315965108866
Ni 3.8760340042131873 6.355272104035786 0.6976373221348092 -0.8865063427090475 -0.32975066530313535 -0.08880307497733737
Ni 1.887564031265889 1.7825545689665507 2.835334040472339 0.6654539486452797 0.03889719128582979 0.10288397855043573
Ni 2.0731097067738555 0.357322375753342 6.061052448379362 0.18719713607721955 0.06930794236720322 0.544786677969494
Ni 6.230660012838639 8.590591023344025 8.613702901743247 -0.30460399083417866 0.5066312499456952 -0.5715125240001125
Ni 0.4849224584274621 7.607113915247109 8.77118197497075 0.1298409667552538 -1.0194035797921217 -1.2712081674370816
Ni 1.4334688093724386 3.233176833895016 11.40930857796282 0.5007058856001957 0.6919064864098535 1.4439500473209197
P 3.435746574669254 0.9351128662193924 7.936467655653659 -1.3516968090114527 -0.019996497726584916 0.28573183652002404
Ni 2.70700197844475 9.091913700997873 12.210435950708707 -2.7176437001840164 -2.535063236943202 -0.9758876587873581
P 0.6188497262705778 1.1023498157270957 11.25150418057822 -0.11024170446708756 -0.0393299079478742 -0.1858658188603057
Ni 8.582494888070816 8.61424171987844 13.601373247622483 -0.7695951966415842 0.0767127194717066 -0.12132650152633943
P 2.3141730587500597 6.761945784734208 12.634690999135701 -0.5654028115579489 0.15560419176228685 1.192157800971134
P 7.763981157247343 3.804351783689189 0.678155765579557 -0.8250469498519856 0.457423934983109 0.651937916436716
P 7.1897840199710465 2.6280461752038375 5.784847617922188 0.46970172390919745 -0.293913600999868 -0.2161107337877762
Ni 4.247134597392674 1.326592430035214 11.940196012609215 1.9174094385003364 2.672789262873487 0.5340029570904287
