# total energy = -340890.625278838 ev
CRYSTAL
PRIMVEC
9.09854078294639 0.00000000000000 0.00000000000000

0.00000000000000 9.09854078294639 0.00000000000000

0.00000000000000 0.00000000000000 13.31663413043594

PRIMCOORD
 96 1
Ni 6.457179691119784 1.9789325861829927 11.246110113546678 -0.35102037331518904 0.8150651560489253 1.0353318209866038
Ni 4.613396827397307 0.39008719138839154 6.258990729931135 -0.5476262043008181 -0.0937179957804515 0.11895414463942094
Ni 2.5935390054779868 1.448605948707829 4.9534283975310505 0.8940597295762732 0.4004421182814265 -0.3387590394493327
Ni 3.049912704743976 4.347246317001789 4.921042142172346 1.3542393729276483 -0.2356701439769425 -0.1800129596239545
Ni 5.060844858309063 4.783585029809044 2.5067098125747154 0.2559702889868753 -0.5404831654981337 -0.030343131068231614
Ni 7.288504249588536 6.024653266834877 2.7919654385769768 0.5544825651010192 1.3917175723787645 -1.2559144745028048
Ni 5.308479838530409 4.2945839638577565 12.231461136712976 0.2685229288409053 0.4341978745756329 -0.47553581409247125
Ni 5.795561112409582 8.041244712669416 12.297991485479356 -0.9934413514004051 0.13577584418245006 0.5051124993083237
Ni 1.7648439252501844 6.747459531255793 0.1906007783064571 0.3196395450110624 -1.0743837926827433 -0.2747714808537784
Ni 2.8808163272073743 1.6133987165282722 0.2975668613234766 0.1868173841402976 -0.7100551322944223 -0.459771352169363
Ni 0.6329445279269563 -0.050020136946205156 4.736074270367524 0.3623183148265115 0.6330418508631613 0.17499005248806637
Ni 8.483188126502366 2.288228376227612 1.5237025734737075 1.5166598162808202 0.9022854599201751 -0.922085782475554
Ni 6.725058924234265 0.7642210016429289 4.870958315441758 1.3417862347659602 -0.348173133674381 0.3587398534466338
Ni 1.0720355492736144 7.407203810597012 2.369654855707088 -0.37324730303418946 -0.524925934489825 0.8581645583415607
Ni 7.593296262023222 3.943716941692356 3.7886759897149975 0.4054470276951856 -1.0993224649059519 0.35744813121840374
Ni 7.671443627461041 3.781417174003472 12.651375163981943 0.9824054053012178 0.08714059967324993 0.14368378617561706
Ni 8.011547076065732 8.798698219794632 6.882914964681347 -0.3990002436285774 0.9059048018403174 0.04132662666292883
Ni 6.929757891240908 0.675045295112179 0.4113058979825863 -0.5621915037095028 0.6715672606318692 -0.21230267289559568
Ni 1.786089017612195 6.553651517378626 9.373006292802438 -0.1907059205614264 0.4342135583049167 -1.0998690814380414
Ni -0.055945106601940166 4.812809542300169 1.5008515886911853 0.6052014316121256 0.09773354469774782 -0.6315806929366027
Ni 6.452093606909777 1.9590522749149017 7.053062223660267 -0.02450158468579006 -0.6057907284566921 0.8477821866659723
Ni 3.2982664696747857 4.416395225760367 0.4277378623533747 1.116148278214039 1.0250270966264863 -1.4455826978283361
Ni 5.923695860047353 5.779165542201299 4.759831469796409 0.7559544659296981 -0.293895603277739 0.601583375243564
Ni 5.2663990881345635 3.266194113967682 9.066337251436583 0.2201501939644725 -1.5109200855835656 -0.011579220197167155
P 0.12328613533810653 5.52359663455397 12.286551890350124 0.6063658842338718 0.10478068135251632 1.255328777202664
P 4.35765504747808 6.31003809211403 12.632425633419905 -0.7293296642533182 -0.7664170560239187 -0.7487281233845879
P 2.6132282473929296 8.533675928436754 1.261366171308664 -0.4734545060834104 0.1130714606063988 0.5239232042569234
P 6.568927967089896 7.80745771128104 5.677946097443742 -1.0783085816584463 -1.0925869459543311 -0.34462244020864513
P 4.923657062748295 1.2293948094025102 12.698182606233061 -0.13816799856371045 0.04870029341918064 0.02066627010009989
P 3.8831752523660947 6.231645066079305 8.20144817659804 0.42702243987311617 0.9531076847783649 -0.5888589856983601
P 4.828249765742709 0.9206813259579635 3.990342413130952 -0.9189683198924947 -0.8894697962127456 -0.942956455276976
P 0.3822460690767938 5.527718273457606 3.5241140845128025 -0.43134189318407656 0.22757939654900808 -0.8301945554911961
Ni 1.5733196450701752 0.8765370265481122 2.5930413153057374 -0.003818345304825682 1.5933259987853075 0.18312887954511686
Ni 1.8623165909779011 6.561476262317097 4.784533097742287 1.16157375753669 1.1082069118797753 -0.40568588317886906
Ni 5.975066220422476 5.5705723998066725 9.189808997003462 0.22609766979715898 0.6741645890454003 -0.3757566997196045
Ni 8.83581116700861 2.2041487623015565 10.327448663607715 0.3421294985834624 1.246091574875112 -0.07680425074424838
Ni 2.2489681734258666 5.4027407194171015 6.889133817199307 0.1170013917884243 -0.2086596768263697 1.8150823608946351
Ni 0.5162739414781079 -0.12554257341338645 9.222887651303814 0.16406774914860775 0.4345776265125548 0.16328716222884135
Ni 1.5255341097017474 1.110886317747184 11.56211425759494 -0.6032715615792643 1.0324676120649314 0.08201022042522005
Ni 3.9994909957305245 6.7773391386720006 1.4256257646484158 0.0720022013699147 0.52768704217473 0.457841739246818
Ni 5.74040575913399 7.776486278989697 7.730279340419903 -0.027786426084648923 -0.1903498227735883 0.8690385249415872
Ni 5.014233034681406 2.6988000219816697 5.187081650372224 -0.6802851001208413 0.763164353414576 -0.11511060252361467
Ni 0.8037268650415799 7.633848457593878 7.16303082508391 1.2797102913708218 -1.2705638489848634 -0.3992663528057704
Ni 4.975036521664044 4.764132349950381 6.973548257420403 0.14991768290047083 -0.4305366236739617 -0.053771794404817067
Ni 7.94793008000784 7.23939942582932 8.88432549548119 0.8758352361484465 -0.8227337283377766 -1.208043876073771
Ni 4.655259212818125 0.43043375994089667 10.575990768329486 -0.47573481747715496 -0.5044496689133441 -0.5464049302992073
Ni 8.542910947172274 7.109217506550671 4.890666664292015 -1.3732621938870542 -0.5222262761704748 -0.22336381580576367
Ni 7.364240501760432 5.667662926828092 6.822550696897296 0.1328941517592808 0.4254728359978091 0.253772252894292
Ni 2.544789024803189 4.93128163979299 2.5244346795684764 -0.959653970537315 1.231987274263246 1.3100372244891374
Ni 2.3198640019846613 5.463892010965313 11.469963328279448 -0.14276384546450896 -0.20896795209540786 0.894433310865608
Ni 1.1834744748624386 3.258132806972932 3.8843826287071823 -0.7395672828209263 -0.4653671010895856 -0.9819192096934186
Ni 3.8878155080854206 2.587570362827246 3.040361056794666 -1.5392641839438974 0.9119268396646811 0.28202661975429494
Ni 1.1025156603711457 3.4493477367716525 8.393288176137776 0.2162053503841115 -0.4700269684591002 -0.547180117902335
Ni 3.538777292585871 2.778384956838418 7.209905596535662 0.09717510109111652 -0.09986987431446026 0.2513631292321671
Ni 4.1178630092764585 6.951457910634225 6.03050453831154 -0.28525181155981194 0.3942483307658888 -0.48090607726544915
Ni 0.07518124119370147 7.3433684495640925 11.041606765163495 2.1360007726181216 0.3081860517584822 0.17963783567272287
P 0.22326362930019653 5.47720317590134 7.9175509627112595 -0.29800731145326737 0.9368927655813993 -0.5011936238698916
P 8.624761418644928 1.4814880745306582 8.073049571282112 0.9101404371882196 1.1456799691245687 -0.5492459992924283
P 1.7249559231452363 3.589565346360922 10.523137345832303 -0.3452094230603668 -1.451560769788642 -0.016557133027732776
P 4.055010290631162 6.147538156531371 3.829477485298809 -1.0668067516664337 0.9814289003205613 -0.2712339000141651
P 6.797874544865173 3.982494921840916 10.492149536167833 0.3678986371277664 0.4354204341288243 -0.367755940902315
P 6.549921115721914 7.845980932292069 10.24804206014724 -1.7575991790765018 0.9641940244995136 -0.384597437939686
P 2.5126256836898238 8.543920885181775 5.8435122412174065 -0.3164678321513001 -0.5104591083322176 0.6897580726082831
P 6.881344556569277 4.138280134441492 1.4532179989512137 0.08533722791592399 -0.6533828764133586 0.27169901257604173
Ni 5.072045161819828 2.7953719321873995 1.1032699293890516 0.4793785848773292 0.30612171303028574 -2.3050703458566946
Ni 1.7143106306126656 1.0245229701239702 7.23316965506261 -1.5657915408104648 0.5202886928281297 -0.7060159292280421
Ni 7.089146125929431 0.7894075818041786 9.282599553724973 -1.8198854387102334 -1.1815062347945586 -0.06436782475310851
Ni 2.5905000929088597 1.5929815913632392 9.34731838305269 0.7748675007841171 0.32823062911418316 0.884122158747587
Ni 6.543815994961781 1.6973873450480663 2.5585250915864557 -0.7425970707861856 0.10275799449553272 1.6409150614181802
Ni 4.080458908762443 6.742837472617721 10.302506834189307 0.6306574097913847 1.5666109513879665 1.2820366255111533
Ni 8.54073639596263 7.316518656176387 0.2057007163295803 -0.7031000411328279 -0.4858377102391116 -0.13881565945003832
Ni 7.775276173086422 3.6073165991224987 8.315026169088068 -0.4288546079858485 0.2032035388078049 0.0724832547713913
Ni 2.974112762787698 8.55209137466404 12.37990200732014 2.270688525942715 -0.8517740814341846 0.9082756160653389
Ni -0.180737050413671 5.106592320577239 10.036041514288128 0.14095378883896373 -1.491764081480405 0.14820995618074473
Ni 8.706730171145722 2.0537589842922754 5.831793320890952 0.2589471122270121 1.06419965306089 0.6606238742464882
Ni 3.529969905259779 2.9721019853093233 11.626247140906335 -0.20587105833763897 -0.872497172914149 -0.6853522302311036
Ni 1.200306775020777 3.452286565393892 12.851110877077033 -0.7726805204351274 0.07212304321849514 -0.3003400733515021
Ni 3.1287606578100076 8.449869270729483 8.255260585277217 0.962675273862142 -0.4667701520846993 0.0717980557789086
Ni 5.854055630094964 8.00499612681492 3.335857090271636 -0.44349009851083626 -0.015951381122933816 0.39043178523327593
Ni 3.2021039937972313 8.325100983123379 3.5797507505875172 0.629318122154671 -0.476834735409553 0.4863835554402527
Ni 3.3039439590254895 4.518317077854261 9.334001758992287 0.1473468368495011 -0.7560413692165496 -0.1525908588572598
Ni 7.209001201597424 6.159448146210973 11.330458134421205 -1.0272163909683212 -1.6098409657211952 0.9073962987841792
Ni 0.658600592784514 0.19096381007743968 0.4426248945258465 -0.04347066958912514 0.09730057092538727 -0.08555628590526555
Ni 4.414375349741367 0.5193237722959863 1.8041778262310013 1.065801707440687 -0.9722176661349385 -0.3669154472788907
Ni 6.387939796954944 6.016228018215082 0.2803524224588411 -0.155122624140178 -0.147574636589591 1.0959635757360482
Ni 7.846435859323376 -0.012522321463740934 11.609148253507652 0.656824812215372 0.16459688217920038 -0.5192949614562928
Ni 0.3410242209160551 4.917315379931884 5.5584431352979795 -1.0540731061498492 -1.2731285243882462 1.164826974366665
Ni 8.306612748571087 8.844263711250283 2.7516425262301 -0.5483828799611845 0.21792850372280534 -0.34785508821332994
P 8.561390083183943 1.799099930707559 3.7006794540493937 -0.27548650464293206 -1.3228942829574637 -0.8628434518744689
P 2.164670194524784 3.0575099861667936 1.5899399492319246 -1.5234683545622212 -0.3923781103263694 1.5509151379192645
P 4.794839924563565 1.1378452936224033 8.44129480604342 -0.396754127906878 -0.002870379569259573 -0.18744627597354815
P 8.677824107576512 1.71744962712868 12.563272175391013 -0.04465260571236826 0.8012418770125878 0.3489555203663603
P 6.787329336279489 7.894185000529298 1.3517183191423725 -0.556365641056345 -0.6220688967914254 0.7392620928756817
P 1.6380739587063333 3.1436185746524754 6.154681420776945 0.4541172392073792 -0.357992433757648 -0.033765269375903136
P 6.735704216766836 3.710439458579042 5.846441971299019 1.1342578433305561 1.5372867485025525 0.3494059776402176
P 2.254099750339003 8.515888281512673 10.461268179428691 0.02030554432657148 -0.5834573550668144 -2.193659817892487
