# total energy = -340864.91752434283 ev
CRYSTAL
PRIMVEC
9.27523292569220 0.00000000000000 0.00000000000000

0.00000000000000 9.27523292569220 0.00000000000000

0.00000000000000 0.00000000000000 13.57524094166310

PRIMCOORD
 96 1
Ni 6.217234986351905 3.2814939215080106 10.25780469283549 -0.006944549638633201 1.4611952075546124 -0.3236592076934168
Ni 1.7386980577521916 6.0539074102862775 12.476677847520339 -1.9327838640738775 -1.0201800529468301 -0.993918805257456
Ni 0.9746785736430484 5.247463010910839 3.514535075543248 -2.031438120813682 -0.8526927365937121 -1.3415756614170509
Ni 8.420436707535673 2.3294561913640925 1.2649683201589652 0.3964139709586399 1.0661521488015704 -0.6635099375450316
Ni 4.229033163697369 2.120234762929067 10.798398656852678 0.16099399531929048 0.18701921573845856 0.6981272705085847
Ni 5.628823486662691 7.357875302203045 9.718338597138459 -1.0051624964920753 -0.029063493024859624 1.025906671017962
Ni 2.4264658522233353 8.810302571853155 6.812449869370333 -0.5656434668138453 0.025276772288917757 -0.7530043821624386
Ni 2.885524953944962 0.7869126139430452 4.947741280062982 1.0517542282086856 0.26407003527587425 -1.5393498016791685
Ni 0.5531572669748153 1.2327248280426073 5.462391490146773 1.507259863123159 0.5928467667015144 -0.0456584212690633
Ni 8.329446672825934 4.8566788985366545 1.6398073796616406 1.002830505924789 0.7357965029245844 -1.2559671821176113
Ni 5.4525013093097705 8.72298552937023 11.949537608818797 -0.6393338545194602 -0.22067315634747803 1.1126556916797483
Ni 4.794052526022877 0.5430546833044944 3.057714087519426 0.14255687166002545 -0.5448080181257327 0.07178520026310217
Ni 9.280890788064507 0.4307937569943623 10.176461827860878 -1.1202710421331608 1.2398988158008388 0.9882793475834915
Ni 8.821034016313824 3.721232713107273 10.849060906453907 -0.10685324761082889 0.9053491864471633 -1.5178857182681214
Ni 5.919370157129826 3.666230582034005 6.769715161325312 -0.19636440439878441 -0.14394089649174563 -0.3558681883257936
Ni 1.1471979055086103 8.656454283807237 12.099028392450174 -1.1552943522858812 -0.8006206984888212 1.3061797984162602
Ni 6.625233930981063 1.582419658687522 7.930642266566579 -0.5952990848967489 0.7569937058274898 -0.38517516482002695
Ni 2.3071121553176335 3.978694627834384 11.336954852202613 0.6713453744290503 1.0361430040339898 -0.33249788903096933
Ni 8.924554890666059 6.903249761805705 -0.02333092082659324 -0.9614732831342411 1.2278830222868855 0.36894044812871946
Ni 1.5646668629245821 5.833537151910262 1.2237269246101996 -0.32189440248351014 -1.2229171936411778 0.0632203414122266
Ni 6.16931913321118 5.9417698445736615 5.301280694743289 0.2873248920387568 -0.2222775247201204 0.799346716872404
Ni 5.3949206634914155 6.130363155047989 11.885557979825494 -1.929311332144245 1.2156229739726099 0.27014040983967025
Ni 6.233856203701534 5.912218952567012 1.2485530129796278 -1.4361860871047847 -0.3560057423449223 -1.4766830187775664
Ni 1.9423821721483063 6.769000040869031 7.776834789545403 -1.4512036435595395 -0.4677566843676847 0.6456965635126944
P 4.316813967825094 4.800777069872474 5.973812064136176 -0.09354161810358728 0.41291299705492757 0.6293037239769678
P 6.92374802650586 5.4673973333407435 3.327169805904352 0.6042249266314691 -1.2669851304946695 -0.3109492163259161
P 0.5039771995903654 3.556847760491501 4.834387731317702 -0.9225028154083145 -0.8588926947568369 -0.02941701970953644
P 3.764455298402624 8.006826247004437 4.483291412982202 0.0993008891848677 -0.038599971760385134 -0.39724392305910294
P 3.924480891557276 5.210705262944 0.5389411175151192 0.023662890834578603 0.8870542447927173 0.017697160169446943
P 7.663021189248481 1.090210874595599 3.004675523250241 -1.6605845148226497 1.9789793887933338 -1.1448795847104607
P 6.5474425526823286 2.8959039395555837 13.416180100405313 -0.11070990235275772 0.5663363791158118 0.49844871413490277
P 7.872001461628211 2.0019662682721973 9.620895782902972 0.6542560230469312 0.2213483280376317 -0.48912023764512536
Ni 6.981393598954488 0.7937781413326629 0.27685642671264277 2.047972113912963 -2.6933827707541225 0.06240170216567318
Ni 2.3468750787427766 3.0129759291688694 5.776726350422274 0.9817973394035736 -0.46431140613156163 1.1021645623404372
Ni 2.3508263279564723 0.8538835055453088 1.834462982356791 1.376620568836326 2.4216449345203457 0.2531934975726865
Ni 3.056857055999836 0.07287364981727669 11.13678790612066 1.5121593573073053 0.0711748203726129 0.18052075249830846
Ni 8.043268637052813 2.591806153827395 6.093681463990896 0.15669485372330433 -1.0388069240193982 -0.8233014279157885
Ni 1.9318176818797645 0.25612164357363937 9.06599384462042 -0.2415021772776873 -3.5134798328000008 -0.7201639385936501
Ni 4.539605061986964 4.541654888456979 3.801542317137271 1.0773061085358608 -0.7715780313995679 0.3008578935281851
Ni 7.752517911461965 5.152289846165004 8.68038902229536 0.9323858788499813 -0.13652352098175197 1.8431953170807678
Ni 3.9280889571538196 1.2312222403134556 8.376969256091868 -0.30480325132917824 -0.12436914500740516 0.10735718383044092
Ni 7.32697022619358 1.8250412007810364 11.710152195482697 0.5517525677643659 -1.1807081643732957 0.2780591504661147
Ni 7.363681597995939 8.614001542842255 8.945758073066308 1.3860606312033033 -1.113948442349243 -0.21239137595465998
Ni 5.332405593772388 8.865564409447511 7.582993552298522 0.2998672474801416 -1.512566105827421 -0.32905261079484616
Ni 4.51409817152297 3.4000684988504477 8.59836721027276 -0.15557539540688045 0.980074443175196 0.7642053930845806
Ni 7.7777001687746 8.285880903913432 11.434873485885664 0.4962403936296744 -0.5092167512846844 0.5311973693208336
Ni 0.8841049968903388 7.430583852874772 10.220228869327224 -1.508911539793969 -1.244635559154876 -0.24970193947966027
Ni 3.962129061882132 7.0115752067980655 6.610395413394046 0.9905367761591004 -0.6136338786501948 -1.3184930685659746
Ni 6.047108664573511 3.293078687395112 1.9345399627347402 0.8620991175092766 0.40069794304597445 0.2839744875092851
Ni 0.630353175321627 2.7245069108704376 12.582918220157678 0.24356497334398697 0.18207112770456385 1.0870125371903472
Ni 4.767627387502177 1.5470624708879779 6.1425517385966195 0.1292627256542806 -0.11064305367056429 0.31552783683553404
Ni 3.6785666417856824 3.3085405006327404 1.7499711758139873 -1.7849132935104226 1.6465414064660222 -3.741255661630531
Ni 2.65895883999442 4.6874986505136516 7.462690071544269 0.9703695571826063 -1.2314979933316534 1.3675813414521931
Ni 4.969762538004661 1.4057913986490331 0.6146177427135665 -2.729332449375854 1.3761978794766108 0.1467534262398763
Ni 8.145286923675894 3.4841670355184613 3.4058785047365014 -0.29652738447363125 -0.7818315908067761 1.1137964901524107
Ni 9.272654381252861 0.21854767511195167 1.9340919689858633 0.4460198069112254 -0.846660414356703 -1.0244650534754292
P 1.3077521869383348 2.720314505601446 1.4471886181104512 -0.4330161955627059 -0.12839780655082403 -1.9993458682648277
P 3.5934200038004214 7.791548091488324 8.704499062685217 1.046007041312263 1.446181764864916 0.20122404648393086
P 9.298513730566903 7.273229526794167 2.1931482962477964 1.2604555569062679 -0.16804010353279447 -0.060993508964236894
P 0.11231194009105995 7.665321447006688 8.276321848890817 -2.262897569143387 1.458517146501817 -0.4880403743173853
P 3.9896023017200775 2.4441815470546913 3.4670347528362635 2.66649648788624 -1.8770544317220574 3.6891658829138274
P 7.599244687855599 6.189168131608615 10.564048767455814 -0.5667847795071399 0.9012253940867769 -0.1250078070326686
P 0.8859479856667736 7.463798461875341 5.528394974957983 0.9965693555064256 0.18074649535586937 0.6522737025095798
P 1.8159885734745422 1.5361826227009723 7.360305413221797 -0.3368998747534069 1.3719707287691403 -0.007098815828310355
Ni 7.225471352612674 5.117591199901076 12.39924449321139 1.6092192729767962 -1.792295959127739 1.0812841193470022
Ni 2.311091230230017 7.973101500194589 1.6552293093978163 0.20390879240494558 -1.366199630613318 -0.4031777720450347
Ni 8.587298147334677 6.840725416853783 4.271055533855977 -1.1541535538132188 -1.1561785546630474 -0.2528649105886742
Ni 1.4264380670755246 8.807612754313316 3.6785916849145015 -0.29382181261701007 -1.2245508725898588 0.9895720982529861
Ni 2.212356376052119 2.255412007155341 9.848728893667108 -1.1029222664420684 1.3358737259362672 -0.3418651891784822
Ni 2.933932394429175 6.721334619016497 10.570443113014313 1.9754220104593785 -0.29400667493430654 -0.3582842539664539
Ni 5.8316728300981655 0.6109401128703033 9.974245055308911 -0.6228952493474628 0.7339429946556134 0.39630958417029166
Ni 8.292030383323478 9.130965923533598 4.499730835767069 1.4773767024104814 -0.3817545691742522 1.1128508384096898
Ni 0.4519422155205272 5.088847253156379 6.272861340599074 -0.7219284866932406 1.6441554227323492 0.9115308897778429
Ni 1.9733800004867317 2.766097055176092 3.4382555602065614 -1.483677962038161 0.21990568205383418 0.1847299054836496
Ni 4.652929857510267 3.6045688337414106 12.64066674769145 0.5518279010869915 1.444536515952009 -0.14496985197689227
Ni 5.866269448800239 6.11142312947436 7.782169903507182 -0.5409174248220748 -0.4029260610455448 -0.6792090934478432
Ni 6.0956645087840595 8.402266526292413 4.564321702608219 -1.2897368223688883 0.03542928734188737 1.5636770655706231
Ni 8.867206125670103 0.4867030058448588 7.657630423889327 1.1111084017972863 0.8313145280282521 -0.8192413989138021
Ni 2.3409111039906505 5.3876674313667445 5.2621030385138825 2.3181485191968916 1.515973845957389 -0.43209214108653976
Ni 3.012539993222758 6.119947068505782 3.166574713449885 0.41512054622920763 1.7415094726034912 -0.8401051297366885
Ni 7.184242942389963 8.166146922458994 2.459182381217389 0.29982945226367075 0.2066112789377732 -1.0655044879152424
Ni 0.6337043169669511 3.485984981166077 8.083594567114744 -0.48747807405601207 -0.7842491991093332 0.4722255187723158
Ni 2.906384952728061 2.1369951087721355 13.03842119758698 -0.5960994693108572 -1.1649344464788065 0.0374098081070259
Ni 3.459337237055875 7.183324694333259 13.036697859314904 1.7023330595143455 0.5299449849709712 0.6114970348128501
Ni 7.5424431616005085 7.569100180943606 6.659592176197707 0.5958156195218514 0.3678289602320955 -0.03698686163699436
Ni 5.081111708921116 8.467916624730288 1.167095135117105 0.019752242926262757 -1.574921785246507 -1.1271515713030782
Ni 6.119854316176823 2.3256069697122537 4.387273274519542 0.3365494333925236 -0.35712725754387525 -0.5771147006782383
Ni 5.307538694378218 6.811962919643293 3.162148572311915 -1.525596713759134 0.868984274664884 -0.3355778135078737
P 7.832544620888636 4.522659211485975 6.767868462455719 -1.4850776705991648 1.2489694106435394 -0.6771031028484339
P 6.912793976455687 0.5529838201196601 5.957154673378254 -0.5312873579314785 0.48147429106409334 1.5765678054903622
P 1.487895760244407 5.075361064525597 9.429633987924468 -0.0643110033732441 -0.48789125033403064 0.6077100569665921
P 2.7415733393990736 9.146242232113305 13.4282212077509 1.1165933361712577 1.3662960469818664 0.4029196332876416
P -0.00042387814334710625 4.858237137663181 13.130122642659842 0.8928870494244107 -1.3096453883673573 -0.12960416815409936
P 6.729051612785968 7.438579103631123 13.315777559352716 -0.40500479795144445 0.8218199582742556 0.23075470895319616
P 8.992588723958203 0.7772979075230537 12.767799582427026 -0.7126604311277533 -0.3336253177671931 0.38927890257575537
P 4.396608796429364 5.107629599770775 10.339704071783864 0.22347283057980222 -1.8754865730143053 -0.6679813430528239
