# total energy = -381165.8800749368 ev
CRYSTAL
PRIMVEC
9.24498600311649 0.00000000000000 0.00000000000000

0.00000000000000 9.24498600311649 0.00000000000000

0.00000000000000 0.00000000000000 13.53097151307755

PRIMCOORD
 96 1
Ni 2.814663779019215 1.3352256197587415 8.576741942687061 -0.670347272181839 -0.7863888711601553 -1.2915669335990918
Ni 1.8454009373985625 4.699226477897958 5.414229086962268 0.5509642675351156 -0.1850204401408749 -0.25031411914236246
Ni 9.189960027349025 0.2203653397058259 5.641955284668689 -0.9917102276419114 -2.1772317542434503 0.46960607887159767
Ni 1.5305906678227583 5.78660326301974 7.738308598566556 -1.8904146550790477 -1.7868017687823872 -0.14432321953182886
Ni 6.22338263533587 1.839363961419677 1.1650771960132662 0.36518380929976463 -0.2943337192564221 0.601175598282184
Ni 4.5461849765894335 7.594543516396185 9.997331142386134 1.2774559481190064 -0.3275958237436616 1.2525185614473784
Ni 6.841604106521222 0.6766969333048726 8.062889894041417 0.6371509879355286 0.5201799351644074 0.16887442650863174
Ni 4.4443237188017495 8.960388530400053 7.766993941701757 0.8674051031032223 -0.6608280198374942 0.32426984469422215
Ni 5.482942446783195 1.3662240584374585 6.144982378990172 -0.23451957531226708 -0.6756979949707912 -1.3092381256266097
Ni 7.177446719668181 9.078539453845924 1.0703244081033234 0.12053640152487627 -1.325728667082465 0.46445564501890974
Ni 8.557418072562918 2.8437115256128713 1.605111727965178 -0.6194975365198234 -1.423750432444593 0.3268160081548436
Ni 8.098959207642674 3.032919412877596 8.630892600269181 0.42822494482164963 -0.12712665314788427 0.2370379708587466
Ni 8.209446037541078 2.1686333893890137 6.229456591259496 -0.6124192895168035 2.270867731833057 1.778203485590415
Ni 6.22146892319555 6.309416476774624 6.708818369944302 0.20374681290578456 0.09492615715593974 -0.22086238954014864
Ni 3.5520161421860603 7.933806774431639 12.950303612729263 -0.6033607788589608 -0.7802861006965272 -1.003644517185652
Ni 8.196567771785201 5.51603025233975 8.053932426926652 -1.062494240334009 -0.7615574139387723 -0.0948762777546108
Ni 3.8016215241981928 1.2576509406793754 12.55176242777342 -0.3600236052550638 -0.49184637832703676 -0.18545315680291932
Ni 5.7862889334894465 8.809094331480518 12.621582412440704 0.8657431420197672 -1.2313146736762535 -0.7373175675548012
Ni 8.042158012521279 0.9965910207838758 12.809500624132603 -0.7058801749811262 0.6894587962003094 -0.6139074440265556
Ni 3.0932984176526332 5.51464350441198 1.8176021884385165 -1.855328610009192 0.008194362885334273 -0.6381668307945525
Ni 0.18004980394974207 6.70637769359143 9.431330900166069 0.16254231364301686 0.09153924296157784 0.7982755952954124
Ni 6.836232769547666 7.5183370952722175 8.952361108895511 0.3063320292688789 0.11031729490002937 -0.6413938223722825
Ni 6.26279401144305 2.9782630545511495 3.2632915256301986 -0.7842139749960236 0.21775983935542495 -2.218982098707359
Ni 4.761602399688982 8.105892947281516 5.1125152648163095 1.1557044432401062 -0.8776391221264047 2.7971326968492796
P 4.474258984069178 4.902967483445695 7.428557185431251 0.48691654512558724 0.3325454544394531 0.520840965787174
Ni 2.560574578707298 7.631366296371529 6.904124250096735 0.349102844577502 1.364830003959301 -1.3215521671072725
P 7.286426616818409 6.786356069078928 2.445411634796459 0.6935874736567023 0.5146543773604879 -1.3539015299722554
Ni 5.743179562908218 6.050787988245812 3.734575035386445 0.13765352082113713 1.5903052096811128 0.457166053336032
P 1.0699222512042705 8.129328987260802 12.649699188925519 1.2723713345072476 -0.7350580820966631 0.03146850292192645
P 4.27051797852144 0.412044411777834 9.98081035207332 1.4005315711259687 1.4992544763201792 -0.5099464303618573
P 1.3863134134177306 0.2820395670453991 2.718656446483951 1.0321979033433126 0.48727238580310916 -0.4513396764622421
Ni 3.372931514794045 6.284205399447794 8.62794252517751 1.634017820077715 0.2918752304136006 0.16577059077232742
Ni 3.410882183083974 7.267252515470465 3.3278067372244604 -0.4909781167894705 -0.4610142234375286 1.804154915348854
Ni 0.5215808570964069 1.1788096984926477 9.423429210473643 -0.7306733227654062 1.8195452817619953 0.6711805667164118
Ni 2.5369351490319385 8.861051153840908 10.785415367243843 -1.3634531782164325 -0.49014816468900746 0.6757702429696233
Ni 1.0189731323380582 2.1341773258770607 5.044711611636 1.2412499305120945 1.0094007029431389 -0.8784539047182163
Ni 4.984184687082 7.458309399972214 1.6194543995327777 0.8038160654976673 -1.263446521213792 -0.5713168630495387
Ni 1.2903966817470809 6.061133127786964 0.006872722730020346 2.0779910288725567 -0.3927095255238591 -0.7391641338452366
Ni 8.535923479682507 5.204659117624811 12.491698677027294 1.5079651167202999 -1.6669019724002452 0.6201117730650545
Ni 2.5744975279020927 1.0533090110296046 0.9221420715336999 -1.771161491141969 1.7336303269657305 0.027684610399461997
Ni 1.1710901350280702 4.127451817306663 3.2808680933653545 -0.7581661288690361 0.07582028956442427 0.19570234533475328
Ni 3.431683402000501 3.4076834178639217 6.291901850446909 0.8769372109633736 -1.3690000761765908 -0.8242961877288901
Ni 6.60661504766777 6.262766276484494 13.088508760207903 -1.200911635904364 1.527056586134112 1.3115346349702703
Ni 4.937395811999094 2.3200292831565856 8.0204701994296 -0.752931105722342 -0.8653803593637096 0.5786146822625325
Ni 1.492131525292647 3.7864320118960357 1.0381906851210732 0.9212517166100328 -0.3333738638780194 -1.0340596391423997
Ni 8.629972724143762 2.564568412739271 10.916301259159718 1.1695513764255276 0.5597355859698425 1.474273123784493
Ni 2.768337153245564 1.9825040825239346 10.787986397901925 -1.5804972224517555 1.3503724337730743 -0.4422179166666319
Ni 7.906192000696677 5.264169093698447 10.488288907242941 -0.12268481532644679 -0.725316429328867 -2.193037868037772
Ni 8.341436705306077 5.0309828071510925 1.1789391282992394 -0.8721035370201562 0.6962925312926911 0.7138356823827771
Ni 3.92554131902358 5.977623167576749 5.603012629361096 -0.15820306283771465 0.4533016852846194 1.3559794955472066
Ni 8.094059364964558 7.3640845007734415 4.6345337625689424 -0.3947584376330879 -0.09227920645139592 -0.6274733556364483
Ni 2.3363281938009575 8.039763561099333 1.461195952519989 -0.17866235913333103 -0.9076932611993077 -0.18990270793384068
Ni 3.9780066156241523 4.748076984900147 3.7760887213521204 -0.9210295732968978 -3.0774618742964934 -0.5474796514206249
Ni 1.2261347827742917 8.539381104515742 8.754524876024211 1.300538798080399 -1.5684765438417956 -1.8228069832324028
Ni 0.3903510516944432 9.459377414755876 0.7984894568090628 -1.274516405874708 -0.21206433163254446 1.1166460437860641
Ni 1.0683228685942443 1.048288983531083 12.299058126392033 1.506726102106876 0.8691076876166258 -1.4063258092102426
P 0.8440228627680301 4.602856741904237 9.846000888020477 -0.299028296518614 0.273579003207574 -1.3775160840674017
Ni 0.14371515924497213 7.143684030120112 6.519438525936534 0.5734015134927092 1.8093464868521227 0.7959898845850292
P 6.675185110202826 2.969138253186433 10.41629080383044 -0.9393060030085824 0.6565641023548177 -0.8690228412123034
Ni 7.852497120933483 5.005762484838077 3.626273720222204 0.6482584107025997 -0.1955719904044761 -0.2444959697986886
P 7.17278724663088 7.275989027415406 11.137261975975868 -0.2031752566730307 0.4403317553875126 0.27416238651486974
P 0.17585997621064436 2.9335635463460803 13.04008167357299 -0.6250778588210782 0.08596766241107129 0.32450355797158303
P 4.361969381864675 2.5442941580352967 4.536434289659985 0.34524516139430866 -0.5400962144723602 -0.8725678782510844
Ni 1.9460326120236249 8.812829305899307 4.586688185565076 -0.056511819043799455 -1.860703244057544 -0.23269640606059924
Ni 4.516869125396409 3.180145817875678 9.985207267502966 1.7437098226889194 0.5188429615205387 2.0780277956477633
Ni 3.0713138405044114 0.8149427587227259 6.014111279052192 0.5088367422374462 1.103719565532383 0.8211638127474954
Ni 5.921746471073867 5.330215275004964 9.223265090080929 -1.425498011263319 -0.07876883066978692 -0.4064543859137774
Ni 5.190828618291866 4.653759635839523 1.526807619475806 3.2408691070429665 3.5655040483860914 1.8598100428193132
Ni 6.366291631785501 3.851341059901783 7.350105157162918 1.2903891112409067 0.33853123970924276 0.008314690513282456
Ni 8.624083667943838 0.6624605790784018 3.1246527882994775 0.4098022193400878 -0.010816630999529758 -0.8165342843952841
Ni 1.041817493201497 3.532527711307821 7.094099471214824 -1.9788549474003274 -1.6461423712553909 1.1477404511980234
Ni 8.687726152842224 5.1461106201144275 5.918284223747539 -0.5761613356260334 -1.9847036928716206 -1.411255385301376
Ni 8.685646030950572 7.2770059758957695 0.2840799354964557 -1.4958333664537722 0.9314975627077572 0.518275776163159
Ni 6.526840061876344 8.661646046813994 3.266985822109774 -0.3086372803632878 -0.7315966059106239 0.07342067898399614
Ni 4.448918476935757 0.3526111690895346 3.6773661363742853 -0.8989111441313035 2.6811877713498276 -1.6974019407613155
Ni 5.901980690610074 1.858685982546584 12.140934656177546 0.34322530275080243 0.7617983263049848 -0.7936285834417042
Ni 4.239741419511166 2.996974906589838 0.981681631563128 -2.5666662085604632 -3.9669195863243805 0.33664456420949124
Ni 1.6135366838756806 4.095963394360135 11.735101026118878 -0.27859471125461055 -0.2432718675836004 0.766305727257035
Ni 4.55187988807947 0.29650057443616834 0.8878172868255756 1.9297962422004638 -0.05020850253359095 1.9291393253427553
Ni 6.567647430897476 3.6554120676804747 13.494181527506948 1.5140689156251925 0.7172542211460229 -0.07089585567961339
Ni 3.8875444258027247 3.7771038208352468 12.494973251134065 -0.2997104101873032 0.4395452549304753 -0.39150007859679026
Ni 6.926611754493428 0.21305717812648625 10.473499702842599 -0.6146839171812639 0.6176273160803041 0.26515992590594334
Ni 5.896100879396336 4.750452946349724 11.637285374285804 -1.0282011234790935 -0.7044632400289417 -1.6248389817919242
Ni 3.5760623512535648 5.282243041690362 10.686707574243904 2.0562605791740007 -1.489320762146235 -0.291012368192673
Ni 0.6428279264156749 6.359311667215732 2.2476567578035884 0.43774394005567835 0.3450734117031347 2.048796666696788
Ni 2.0074008303204707 6.570531866587235 11.097940276234684 -2.074052613050099 1.36574325980219 0.7323805352645
Ni 7.0783127328051085 1.322846583256862 4.527909487898683 -0.8494271784685629 -0.6939574554016114 0.07411590527880783
Ni 2.8420844080442893 3.6547371836889604 8.489616268379844 -0.49283933836792543 1.7656757854370495 1.7189488136941558
P 0.8983057236525974 1.2437742164155061 7.286928619568262 0.27450768566943046 0.18940134281738996 -0.24472942596573338
Ni 2.659874975321703 2.073104947138139 2.992171211768048 0.3346337044270495 0.9306722385929843 0.7438155165743189
P 6.548917088886417 8.471227066359017 6.53525669729928 0.051445203154169464 -0.10376149605938258 -0.49649236173948047
Ni 6.186698530153303 4.074894070844239 5.173120771752883 -0.48674633809631007 0.5862068927874936 0.5293297199844754
P 1.2008127656132401 6.405703007892679 4.641434220257517 -1.1803721211901157 2.6038009086292315 -1.4411040932316923
P 4.193812328143475 5.89489903119227 13.577518606475502 0.5403142440204372 0.026101325072742147 -1.1703206504913846
P 8.500764797220484 2.9740011159198074 3.9285145065807154 0.37762871993133673 -0.7536278746790505 0.33047031707797925
Ni 9.114178875589573 8.51282950419207 10.878942269985638 -0.33430357478114037 0.19518555359933482 0.400173180890756
