# total energy = -381174.93399447034 ev
CRYSTAL
PRIMVEC
9.24045042660859 0.00000000000000 0.00000000000000
0.00000000000000 9.24045042660859 0.00000000000000
0.00000000000000 0.00000000000000 13.52433323838045
PRIMCOORD
 96 1
Ni 2.3351727538644362 4.696274212132872 0.262639479520316 -0.6763891075005447 0.4689018537157215 -0.3407462450826906
Ni 4.180176564815624 0.90707959341206 2.3977426170614438 0.8398824722029212 -0.01216337483541131 -0.3615325857004225
Ni 4.396569437136674 7.695798402857598 0.7389043164048053 -0.7139598666654673 -0.64120073252487 0.5122817633632532
Ni 2.7712296180215112 6.55803096003504 12.198921324036824 1.1085200722448199 0.16617553952022993 0.3366435357682267
Ni 8.338351616735338 8.655936663656602 12.115233335021962 -0.28340961614475063 -1.0300307204886647 -0.1931088735759642
Ni 6.303752240224182 4.035785283626421 1.0768451519688258 0.5150377288418356 0.49492707413488957 -0.5238391291835494
Ni 4.272525628184681 7.751850976241298 9.486778843378442 -0.6233912151472747 0.9532228701999905 1.0243079590722746
Ni 1.4466849470742036 1.1666808127727057 7.36295829602879 0.04252938872177837 0.4059774462773589 0.2716146803923516
Ni 7.429054315177533 3.3883808331798653 10.413222725083097 1.2967327940707474 0.33140542729773886 0.1192685905560462
Ni 3.1287888542698266 1.2456404632118285 9.06166821701074 0.47810048949585404 -1.0109544205835042 -0.07018674542773073
Ni 5.9685918562478895 5.289797595088436 9.865568938942022 1.932682305499007 0.8540417944224389 0.9273547441839771
Ni 2.348894823016232 6.846148209969722 3.7104687516820536 -0.20935207490770397 0.168005136529801 -0.20161511127476248
Ni 0.5610986417746537 6.670709014740091 12.404802259747045 -0.9751296975754109 0.7580182904372622 -0.02087401523553179
Ni 8.389423587241719 7.074433542222328 5.678529491460377 -0.390797653213127 1.4341289474654397 1.31746462730146
Ni 5.465726534200252 1.8819101706766244 8.577254226735697 0.688982113674207 -1.2385623563776025 -1.245221770675649
Ni 4.668571341212276 0.5341590320742186 10.851722764380733 2.315766135007644 1.0496382103069473 -0.3315116138583
Ni 1.3102219725060391 7.02223423674186 1.3250057694326103 0.1983572664590971 -1.1137450680891852 -0.5656594076534451
Ni 3.9056982199772734 0.4826841779213598 13.195786679819486 -0.6676363010085793 -0.27599841128234404 -0.2936372074100298
Ni 9.08471205273515 5.190231739795101 0.5753058345833315 -0.6717809193045721 -0.4313899728131925 1.2439249062410964
Ni 4.205800334349584 0.6177010219694866 4.928875758864135 -0.9298996220930179 0.3155635751694759 -0.7243725773583589
Ni 5.12859793424461 5.530612978364502 13.184899580914 -0.879373331208692 -0.9346983290332419 -0.858534797196786
Ni 2.7150569187799163 8.165693797138495 7.653623138195895 0.1750504734123566 0.6860109468610249 0.3055732967259834
Ni 4.769403138238808 5.51420193808599 4.091597605294333 -0.5462984866283301 0.8032547936775586 -1.4520881030470216
Ni 5.803021462266823 1.7558149816898165 0.5379374523275313 -1.6823013376744511 -0.7190215974590907 0.2690587467397173
P 8.419205559548951 6.250638130133594 9.797460349651017 2.4366290666340036 -1.0254664981567498 -0.1223569996733828
Ni 9.139332356274721 3.5022139442108253 12.343903070019833 0.7439821240591703 -0.6315009887386027 0.2705114200258438
P 0.7343709513368786 2.482788952315576 9.75277537860438 -1.6340782410020052 0.3795256798437335 -0.9238289904189058
Ni 4.017452229621598 3.638898689593564 1.54185512001366 -0.30928725524246087 0.20988275060019335 0.7550180701583578
P 2.329850254314649 0.1624988681992087 3.8859199594974725 0.02447098855817076 -0.029424475908704166 -1.089601638073762
P 5.931722458324882 8.997556122607378 12.999805962889894 1.1448867837993122 1.395833394319351 -0.48747447451158626
P 8.153708932700866 6.956155774449272 1.8365913047183289 0.04211724088502424 -0.32893742537322057 0.2802219624453884
Ni 2.373354295773676 3.470343630066351 8.629971921495235 -0.07625197778520416 0.45094166969287497 -0.614708342661296
Ni 3.2738362074521454 3.56833860875645 4.215466769729849 0.397122052769258 0.32941770744374876 0.5731636864502904
Ni 0.3921979893947283 7.03949539847624 7.939162302411148 0.3647240960545267 0.5611319520967368 -0.5970500061495847
Ni 4.875150854988406 7.579470370162674 11.811922936198807 -0.26910425526567205 -0.25506963154947687 -0.3289500237787109
Ni 8.71358783499536 2.596853074611717 6.533673132234276 0.4213328456875066 -0.5025041151511992 -1.1474530018645916
Ni 2.328843045198456 2.4041434771971 10.999718745351833 1.7019875032494687 1.103631376693951 1.4792304677897687
Ni 1.4739442763656503 8.477087742152891 5.611299669022124 -0.9679956576337911 0.04626391606354613 0.04936852313079884
Ni 2.420110975846463 5.950046271879097 8.37248214509835 0.4097412841951653 -1.0410026461191362 -1.0578174036836296
Ni 6.51744690096791 8.808598148139312 1.6563655560741333 -0.8941941982716084 0.13031353551629815 0.09188274234392564
Ni 4.260032538963651 2.853072289050102 12.701309838833126 0.4439518686386032 0.5312025115271561 -0.1806688480403985
Ni 2.3516761986490207 9.102167263932282 1.5930176469359931 -0.43064563844800025 0.2248586551837353 0.8816137905034365
Ni 5.808769022544546 3.9311741423015167 5.351618981786256 -0.22755085730391778 1.5872813352531243 0.5271759068662663
Ni 6.240122497342521 8.385773609251848 8.349964091013494 0.4878799374801211 0.9659488024070914 0.6175075026729882
Ni 1.5586884488849242 1.9717458314805039 5.0581949410678195 0.28274652863945493 -0.6504423057277959 0.12956405894478332
Ni 0.11809665494115452 3.6308779784664535 3.9048536427917684 -0.3191453789834633 -1.073007738270823 0.3459843535531783
Ni 2.623447091459441 9.242021483873314 11.147634334402646 -0.919692599653029 -1.2881802765150459 0.8096403854889281
Ni 0.12248124875430416 4.548953708101165 8.105484869071645 0.025151045344330877 -0.48681164411660677 -0.24174617496769335
Ni 1.8628193997220042 7.327261511287845 10.146090538477527 -0.7629288403650022 0.17908350583114965 -0.6034618232131994
Ni 8.717422621997377 8.961546086590847 1.023438119593987 1.110139353015798 0.36424741352842427 -0.9532478099006552
Ni 8.205141280780932 4.76127154170441 5.8062399112133365 -0.3730891801897704 0.3277889135910742 0.48582228362014396
Ni 6.8807074952409115 3.5384180296901095 7.66616058157984 -0.41359562494424895 1.9975250130060052 -0.1864936822522917
Ni 4.877673498004191 6.478895741034379 7.720109104360264 -0.08481169442975717 0.32011417065463577 0.4531235078355422
Ni 4.666067179097706 7.909123445577035 3.25346748217854 -0.6229978363635981 0.23310726834577272 -0.06648898486116936
Ni 6.1740255541487175 1.8996703167437972 6.028701911493242 0.6560282844560057 -1.9039977930801208 0.6041537070739015
Ni 8.114270689509038 2.0203136398723154 8.694766885198472 1.5026740435246895 -1.8720050422236083 0.27241917857151793
P 7.419167033027753 2.60117760549592 4.306229247729638 0.3865504479009988 0.11475296207387978 -0.17989340332695472
Ni 7.43681629368764 6.163001696574244 7.9831034171839 -1.4411573150671309 -0.44602700600007694 -1.3974416193467352
P 1.302764928865972 3.8087751335576177 6.201367123450568 0.45718147995499975 0.365704457689925 0.36170279272969963
Ni 6.987970645890103 7.134367104861083 13.223917383603197 -0.6448923224438442 1.7840792276449016 2.9257716728766323
P 6.493033630463503 3.587512543766535 12.343469692886352 -0.33585189310486674 -0.2803870272683429 0.8006186416062921
P 5.822694381609702 6.282767176895072 5.88950930781569 1.2021424229876716 -0.1934192057275314 -1.2356392691935365
P 1.5302925441687834 8.731107729346745 13.24041713220754 -0.7265515872875488 -0.1984040605366325 -1.8839742987703423
Ni 9.226109427927595 5.889835495722126 3.950024661540348 0.6194214318662494 0.8571808542720527 -1.5285246860392063
Ni 7.07510809511666 4.751384259554631 3.3403619075541258 0.35469473684298264 -0.5300601703925967 0.24674182841007183
Ni 0.9570889120986057 5.0640071844997925 10.402362423484371 0.06058573200285695 -0.6814855481868457 0.28339727484957644
Ni 3.598887538464085 4.971732044735592 6.383958427450225 0.25810224772821355 -0.9803096991144535 -0.5476344318309342
Ni 3.810373731512675 2.3099093619041597 6.5486038523255035 -0.8124161484618524 1.7068456026727186 0.4454739617100844
Ni 8.36579575503893 0.48027888862828744 5.419119549427303 -0.14870180821549872 -0.6693327148743957 -0.7645684328509542
Ni 5.860996049376836 8.693499095375156 5.980622922938554 1.1340760663370535 -1.1792480348880015 -0.03735041562400019
Ni 8.94206721671072 8.65232364746916 9.48970067386046 -0.4781709377224732 0.29793146391000946 0.6689123395075254
Ni 3.7886956343880196 7.373214272157799 5.513221526276559 -0.001980006544506267 -0.05668973938256044 0.661295446392216
Ni 7.0467029499499105 0.7237832430310686 10.320932800597927 -0.3017037864682482 -0.09167088344343567 0.8063984815128629
Ni 0.5646571393035134 0.8758163768724831 11.571352424863834 -0.04292996659430671 1.6720909728003526 -0.27313625924320056
Ni 5.193373493001573 2.869381684371934 10.462397631079805 -1.3121612128106757 1.193577821247112 1.4705231698237577
Ni 1.743506701480933 4.651725999755223 2.4765756733272473 -0.24122886901164264 0.22933751689069537 0.546650213540794
Ni 6.045555569355842 6.31862012525128 1.824540833081388 -0.13601701365897864 -0.2520257025168305 0.6803529772442992
Ni 5.386813086014166 2.6746853900767533 3.2295430315112568 0.29323045888991434 1.245337984538539 0.352058070551084
Ni 4.788262897928246 4.289906915776956 8.36193324668509 -1.2508509439369682 -2.0364715694725315 -1.3334013531363744
Ni 1.5851346185229311 5.991720704117886 6.006561791838223 -1.1306109906065884 0.1560767605233312 -0.3606249862844886
Ni 7.45729313223335 2.2268007491423725 1.8627879821899396 2.136610124067346 0.05053323286286136 0.5900177818931516
Ni 2.285967354380723 2.035431017065809 0.30236602477109153 -0.6850640095667233 0.4457285009230517 -0.31842855542209675
Ni 9.127125721022518 1.2988931800615258 3.103780498746311 0.360599789473508 -0.2745318540391466 0.6259777449275283
Ni 7.682168738211874 1.5344507469420547 12.711791281956954 -0.2396985484100452 0.8376828934484412 -0.012745986811758694
Ni 6.471605025505243 0.6711902943547301 3.7988499655603487 0.033621030488555 -0.35767850206165497 -0.18641629204713703
Ni 0.27156483076187815 8.190837063240878 3.1152081640123224 -0.10382037432177603 0.2336780532475782 1.8697923508430057
Ni 2.1095763927385445 2.2096227514634577 2.7065298309595276 -0.4979864297865037 -0.14515754250766613 -0.5228471975839253
Ni 7.646417434812346 5.530622218815109 12.120006951805678 0.8547555326600118 -4.146215208166336 -1.7263821300437492
P 3.0159352310032372 4.353388811448902 11.869766308910197 0.1623944752112429 0.6258576744098964 -1.342350334799546
Ni 3.7711942209378497 5.500433666681158 10.148308246623271 -0.8823195583212096 -0.4407711569177763 1.209043778093195
P 4.359598394256987 0.44643111805385716 7.360455982004341 0.4056282904680563 -1.5002091269239648 -0.059433877786600864
Ni 7.032768350434148 7.249235146360056 10.798490376522372 -1.709714182469765 2.6331073709028328 -0.8482928077538037
P 3.4700664165481325 6.102781679966665 1.9764732460111831 0.2936410640647717 -0.6388507442354546 0.007149723670903816
P 0.46963481357377307 2.9475743774106533 1.0761826116602846 -0.4529684703149166 0.6591514034660196 0.5588755519623922
P 8.89525509393429 0.011852725993945329 7.384475609312879 -0.15362958453441927 -0.8990235013394517 0.41629219793980565
Ni 6.953124906650086 7.570996876955808 3.856220227200646 0.4850733212692614 -0.8419408973938467 -0.13757844460882757
