# total energy = -340853.2738901957 ev
CRYSTAL
PRIMVEC
9.46140611655813 0.00000000000000 0.00000000000000

0.00000000000000 9.46140611655813 0.00000000000000

0.00000000000000 0.00000000000000 13.84772422517110

PRIMCOORD
 96 1
Ni 3.7542007103445387 5.809303225505484 1.9344440440796693 -0.33586680550320225 -1.2844963999055554 -0.4963046712087066
Ni 0.6981297036330548 6.694512361952215 3.270597031914197 -0.7108470320680983 2.128298261767541 -2.0374485886738203
Ni 4.991525528941779 5.146153285642814 4.90799361463067 -5.172095396821738 -2.5493408299081386 -0.03467209746088867
Ni 2.7659284793775605 0.14087087251555563 7.980720480296844 -1.1200913220221869 -0.7783480031335498 0.46461813873870306
Ni 5.859959592719419 0.3621807257519623 9.303495986322671 0.5112188693163777 -0.3715236354748634 2.7122718943491417
Ni 7.239990796577733 4.222332151698872 13.766659710061182 -0.3114541809867927 -0.2310349591977763 0.009253914498100193
Ni 6.4363579018416015 8.442696330969557 7.664189145754033 0.5264421140240354 -2.5566980416041583 -1.3133254083221058
Ni 1.4504997550367578 5.455598027162981 12.444202107273753 -0.6694556136055051 0.13474457470445828 1.6244715711501767
Ni 2.4202654760540794 8.613257095214163 13.307676502076136 -0.5691607359384844 1.8462621289315495 -3.039327529318617
Ni 4.836377394915981 4.891480622905142 9.328809977820782 0.7072935103888851 -1.0313111298629851 1.5872777357086987
Ni 4.999075730853754 6.4176621637738505 11.807303784234355 -1.7754387783610843 1.2637313994440622 0.3315226696018936
Ni 5.285340027907328 4.101141003465158 12.212113820430677 -0.09454460544680492 1.671720219724495 -1.8260154628673715
Ni 0.35246859259075486 3.6371820421148127 8.649551048264716 0.8238889249881424 -0.5107169899792946 0.4694243018780948
Ni 5.324425095699776 7.31460344354245 0.6540963205524319 1.4702573177568807 -0.5615266164319942 0.3865813011389342
Ni 1.8884493115549952 1.90717343384046 4.135664727470935 -0.9223308086068245 0.45859635802465537 0.1358059260894371
Ni 0.5820732603838401 1.5013642731805972 6.8183006661067775 0.2923465136230643 -0.7605328293289999 -0.3591692276745685
Ni 7.031887173703152 7.947675574033977 4.213668342311908 0.49377727680116257 -0.9436066872664652 -1.1675955382507375
Ni 5.326903984046815 7.171830828440044 9.632670597575975 0.35524341025760114 0.30398949717863133 -1.8152489683794866
Ni 4.0248726104671135 5.898363439286727 7.497877498901244 -1.060413189435264 4.641584512044967 -0.5077818186103707
Ni 8.525247097488347 8.303244669339712 2.014358862913398 -0.9473319586368524 -0.3673813311717157 0.3127453889943904
Ni 0.6875736130651453 5.853989445593534 8.133640453232076 0.859666596808384 0.8357527663052637 1.7436126349894228
Ni 9.018706722449647 0.11377813670735537 4.157432584035952 1.1275632049192 -1.944066121855916 0.028835436174453565
Ni 0.16051842801732222 3.745354295823614 13.291377338124054 -0.13614891125115264 -0.7874386525809084 1.0275964000155593
Ni 0.19160293097672895 7.784201402812017 11.427487944016564 -0.435827696869572 1.4604817264273555 1.1869441179806786
P 9.12186443102894 5.469534678060651 10.895818431309001 -0.5875433522107301 0.610671196477445 0.02838472179028015
P 4.637205339215467 -0.025893029539480226 6.993446427652815 1.0069383574455755 -0.07993842549785588 -0.7870930963160315
P 7.831924734195485 6.272571504224785 0.2941380790474912 -2.0152054610049035 3.4150531186899697 -2.236560988131387
P 4.569206214978158 8.50481992214003 12.799603735694978 -0.1853647108541711 -0.21794547300366982 -0.8972196153614935
P 8.719792525701447 1.6356878528100784 -0.21983103549349706 -1.1998405143273723 1.4793690502501617 -0.5950427459115688
P 2.362172443799025 2.3511404445141073 8.235753622599487 -0.6959811706998594 1.175582413110956 -0.8059048297058959
P 5.895553401733022 8.77980622335516 2.3876103797144874 0.20830152215600253 -2.6861700550557677 2.0288132815963253
P 5.020231434456735 1.9427861656658716 10.806999483378329 0.506192876856696 -0.21044196553777308 -0.45776280637976646
Ni 4.397935845290698 1.415189788200298 3.943443966688627 0.11618429520376763 0.13893470152640588 -0.4973184571852016
Ni 3.273078758683009 6.56139984227854 13.392798878719828 0.12816974970041797 -1.6284030449940987 -0.007161293635129602
Ni 8.24791436760884 6.506343921318904 7.282989101852379 -2.497564211556479 0.9598881980353081 -0.03535986755653265
Ni 2.656308630565335 3.4909181682335597 12.232802130581964 -0.00844144589913385 -1.5611627837892017 0.3030834404245941
Ni 2.329540054833604 7.007684897398847 5.939468517239836 -0.3237833919761069 -0.4762986604004249 0.4950761981182441
Ni 1.597246160619152 4.948239596927629 4.226823481081848 3.553186921581635 0.3991933334759899 -1.3107638182425168
Ni 8.051987574133648 8.462801818517114 13.181786819670133 0.993710803011708 -3.407542412135222 0.815094466624964
Ni 7.508013503046984 4.978856706435343 9.046053023936093 0.6206046535410732 -1.0183093182866785 0.6805391251131764
Ni 5.91364360982287 3.4099853021244817 3.4362435419318844 -0.31945134025965627 0.06450949253729535 1.2836947299398664
Ni 8.452186121092005 3.368392961767279 6.883150088318401 -1.8799402379102848 0.2527921483692098 -1.0169836574967195
Ni 4.645446223758489 7.695122266218964 5.677400819647024 0.3830087532963275 0.09080056502334038 -0.5811639310469475
Ni 5.855512731944196 6.1723184472582435 3.0549186074722874 -0.8011598588217428 0.49865491660843797 -1.036161515976751
Ni 0.3365213929383289 -0.03047140385678007 0.24969690937237426 1.692981957316749 0.5137192671407282 -0.14388304667061672
Ni 0.5535225219257206 8.123137346537233 7.746984962685753 0.7100559036253707 0.23918921287379452 -0.6354489176427572
Ni 3.4418040101820955 8.384111305607457 10.456984233338671 -0.39864337450979087 -0.03896532551960386 0.08092315800862837
Ni 7.613574408726079 2.6370262853314914 11.951610093233919 -1.2409766222460499 -0.166403596370636 -0.1074641417219504
Ni 1.561340125210694 6.318676935198544 10.486244577239646 1.7581421960641657 1.288310374335007 -3.322283602865717
Ni 6.705345671713134 0.5404913275731331 4.674064138198532 -1.2881134278328528 2.3209299385967705 0.730287143070581
Ni 8.473521591407176 9.401288131613391 8.645479805303909 -2.0900129930340974 0.94849898236176 -0.30700565829713583
Ni 0.38383788386789397 3.581757126324892 2.812929905490498 0.5657157148126774 -1.2371132826359017 0.3860966481930318
Ni 0.7247512614271995 7.199533824929099 0.5576590485872694 0.04754921053387295 -2.063763572419265 -0.05836018510644788
Ni 4.044126571483242 3.2504470757588897 2.1118472970745765 -0.44446531793991195 -0.2559134676070109 -0.41383293776603564
Ni 4.765823691084395 0.19639702534865666 0.9342504416727292 -1.479481150347994 1.3660541061743894 -0.9586419843330327
Ni 8.46649176681996 2.20944642968484 4.541444557772493 -0.2790343698951904 2.3939590385693026 0.49696055962515057
P 3.4435638316803754 5.04373356672409 11.146600563938646 1.6115792885685405 2.088443077443816 1.4026833273616488
P 1.1451707250851495 0.5048625113576837 11.570908665423442 1.0968603765187044 -2.7670826715414343 0.02965921762732957
P 5.190366435435627 3.9695423087362403 0.4574059916207286 -0.7212350601706417 0.16901352318965732 0.6123113031840294
P 7.665356683242677 2.9893974254414273 2.475585370238458 2.3201840615696816 0.8267189382377699 -0.7691951329896881
P 6.172100834922435 5.487738423021356 7.47937761193572 -0.22148073985043792 0.5781022614024883 -0.132764568159952
P 2.4306824839551897 7.496981503762066 8.46443485717627 1.338511163559114 -1.4996352566983657 0.6696718433813693
P 2.253886653219366 2.056540648858465 2.0678943359441435 -0.722759210124652 -0.029394651112033248 -1.202906811957522
P 8.392144039220575 2.8150237146172152 9.850813718256068 -0.9502445042979569 -1.2094327860014975 0.6310633869805519
Ni 2.347015271539644 4.251586818756303 9.695068569517684 -0.13152246822273478 -1.8639011821695513 -2.2353463989979954
Ni 2.917973272266605 1.5788437261344481 10.247592913120457 0.6253809918837939 0.18155819262388734 1.4368820847305448
Ni 6.988752624183477 5.565776098923586 11.56304339869484 2.571635379640281 -0.18860738616118483 -0.43846976247810937
Ni 3.328872669303214 1.629698782872383 6.1424487888170045 -0.545700190922699 0.3148642351096061 -0.29030582904395164
Ni 1.9772162217531914 9.181669977752751 4.923752532305592 -0.03374341499903221 -0.5780097016886819 -0.12002783731957392
Ni 6.40412289192418 0.20413456309754655 12.81670522686778 -2.1693071000797346 2.908718316938771 0.2333489520429336
Ni 4.14009361157494 3.873859110821685 7.137642984343885 0.43917861561967586 -2.8814281137642506 -1.4208995932593593
Ni 0.05612316754568963 6.300719186791362 5.448913543891288 -0.8486841296549513 0.2209040414113615 0.06316609113552347
Ni 8.182148135165047 7.205589124708127 9.558405184207963 0.05510799671773735 0.5657424542855547 0.5413802233911064
Ni -0.028940548381394423 1.318352298765365 2.144735143999425 0.4133464850479204 0.25234811885325575 -0.18824383217417903
Ni 6.7507698814617525 5.992248970079383 5.391555662875031 3.393166345919208 0.8865235691002281 1.3639987663072572
Ni 0.8022401757869551 1.2099624327207545 9.333989151413032 -0.8482789237967326 -0.0444695431672847 0.1175516078649395
Ni 8.132835287589584 0.33176419804942964 11.086003097540612 1.2186473626212302 0.717774612425867 -0.46362235048433703
Ni 6.610220696746958 1.2483095108526336 7.190804731841393 0.3607761671503722 1.1742981470818936 -1.2208178879099878
Ni 1.7224394835505665 4.420349915879009 6.866103473299845 2.1340436488917502 -1.1212565459748818 -0.47892118562493646
Ni 4.78084840366111 2.154144512171681 12.932043549408826 -0.6281606115114601 -2.653332696810772 1.666537389971975
Ni 6.29607363649214 2.863513419878967 9.241153836675801 0.746840933664204 -0.14799629750804189 0.7993716565730685
Ni 2.263840052231145 1.5385097527625755 13.607562385210752 -0.1185481674502539 0.294559462113983 0.6056467466796601
Ni 6.895974077881675 1.0428266974136629 2.0278196050940607 0.9704688017646319 0.8963025028638629 -0.36340871967721283
Ni 2.9964840184640713 7.9407687477235225 1.412938919735562 0.38896137133533654 0.1467590826668311 2.5927749898323733
Ni 8.878829297554088 5.084370305084914 1.434970749525321 1.1570558150616783 -0.4862801970931689 2.2992496254098596
Ni 6.641850176686477 8.02913827887372 11.240862658686313 0.3861845799211478 -0.27795784900156 -0.08932269492623326
Ni 4.501207090740849 1.8185862903544538 8.2606106281924 -0.9850739532723163 0.361025821267333 0.5816305862707208
Ni 0.4977276651649252 2.4079467255661187 11.44474176382443 0.21214069339643465 1.4250974333907909 -0.2773096738945998
P 7.890935522823299 6.029583677779456 3.405474103789105 2.0912064991215664 0.5409354225442039 0.22152342016291524
P 3.102442303191166 3.5883517262404903 4.908394778241031 2.1671820833169324 -0.720527749690972 0.9121232719462034
P 0.31911619063598384 4.101453229860015 5.37817912720692 -4.162315199051993 -2.4482651082110354 0.9316983658646535
P 3.1321227335143105 6.5070535267617595 3.907232327869446 0.8868752960126919 0.9991000923480793 0.7062902659353514
P 1.2593225873257419 8.769408138265861 2.3920279101314064 -1.0201224602360173 -0.05159638402005308 0.48831368258343
P 1.6095270654834941 4.97241348901422 0.8709772896848335 0.1735494633867979 0.5201848202604138 -0.02362458139747544
P 8.830065211521099 8.944008922831786 6.17836996247491 -0.8141210469681012 0.45223570591395024 0.14546813176954948
P 6.348697976134259 2.9839949626698252 5.624073497546183 0.6999830927704009 -0.7269130843920255 0.12123317048158476
