# total energy = -381169.8732442927 ev
CRYSTAL
PRIMVEC
9.19055164315044 0.00000000000000 0.00000000000000
0.00000000000000 9.19055164315044 0.00000000000000
0.00000000000000 0.00000000000000 13.45130132494540
PRIMCOORD
 96 1
Ni 4.28521427369686 3.687120731448449 7.296739377320237 0.8757172225133434 -0.21550086811791916 1.070817929708356
Ni 5.565494907551717 6.4961026154584625 12.409498510563076 0.13139545572656725 1.7188503404430786 2.562182204647181
Ni 2.5884454019995817 7.028483712033652 4.6653685838855035 -0.4193230143463294 -0.7708085002233951 -0.44131931611176256
Ni 3.850050834510665 8.185684475614977 12.148745092745449 -0.8687844999492522 -0.07484301325281949 0.7565635602686067
Ni 7.393725432802804 2.737120959154222 11.321597265039063 -0.8537823701134651 -0.37840365042414825 -1.4116778175507751
Ni 8.566651230586489 1.511689538694858 4.9500652273629715 -0.43807561236348425 1.5995508966490968 0.42450507276790117
Ni 7.357220560884758 4.631174216700638 12.853445360145058 1.1952680644653415 0.9370583446249863 -0.23867473513122123
Ni -0.15423767912966596 8.421688656376181 4.854197662039626 0.7183217431785888 -1.4247950716590236 1.1382577085185688
Ni 1.8514550497568534 8.012736671044536 10.988355207674807 -1.235884295324807 -0.7072827117556076 -0.5567158253069122
Ni 4.347994933332352 5.919551726728657 3.1023139699986086 -2.6342281147708375 0.011764853845411996 1.1351245622062256
Ni 6.320498741405566 5.333598903464069 6.664057193212923 -0.9712833272461272 -1.0995394660127644 0.23363357316288796
Ni 6.675502187422274 9.105695477247425 1.214658255589693 1.7894993702192084 -0.20055967342705458 -0.9534280442322614
Ni 7.896733525689657 1.8292598670574371 2.223715594968052 0.8751587789067121 1.0487684061074842 0.16814423321082655
Ni 1.1876582523870656 2.897440945493194 4.608456091601389 0.5894050880098172 0.7108537169363176 3.2524411281512826
Ni 1.3534190454167432 0.7687170562579061 3.4770807786972324 0.9340840924880107 0.033119151151471994 3.2532322565940097
Ni 6.006145106187829 7.1779956094059525 10.231073036019227 1.7395322942724623 -0.7267433915833806 0.22737165141357615
Ni 3.7845773431853478 5.8295118903285825 6.538220157386667 -0.3739268455997173 0.5991853073250326 0.28051146866134913
Ni 5.1643273196305906 3.5757680053258296 2.623595586576057 0.7989818773338175 0.7341965054273163 0.7901282835979296
Ni 1.7156646462852696 7.6637530364846045 6.759588384338836 -0.3251756443379432 -0.2952868271983108 0.05970384361853589
Ni 1.843551175172382 2.9897692293020284 -0.038301624803236935 0.5137354650906443 0.8299132768053514 4.153935973849362
Ni 8.370295090473434 7.079583180277443 2.8830044266591384 0.9073628744430825 -1.035399955220378 0.8727439988176325
Ni 2.1589157710927833 8.805973200562804 8.68997097426311 0.4006462638724326 -1.0211041074229963 1.2338158428315524
Ni 8.47754883047434 4.001685749358561 6.825069228105628 -0.28796329695370404 0.3217733035246136 0.0022638563335122303
Ni 0.7014550835440562 5.867919206478007 8.00152052157606 0.5694962649010321 -0.5611916016900786 -0.19346240026064102
P 5.25903595636661 1.4559764134261783 11.08050979005382 4.80854218114686 0.1983924905724067 -0.4807309851401656
Ni 7.460531554145271 0.23728718179840508 6.8774618069936455 0.24997164820127912 0.2329460601775601 -1.0769009026776422
P 3.5546205455364475 2.0122897069990002 0.7800600353418066 2.5397290178499876 0.8744794934515004 0.9597239045433018
Ni 1.6095045819536105 3.96065912593405 6.800547916734899 0.7353874404116238 -0.20649480796456693 -1.3790029530255734
P 0.8477576402129867 1.6629292598135301 9.685058674841008 -0.2475242151020511 -0.23584600743317444 0.9960093692378975
P 2.784810732664479 6.498933305425924 8.645258939549793 0.1732314179257468 0.39488570723957156 -0.5180780583300562
P 3.0002832206097434 4.716526871661085 11.676779007761514 -0.15225815810818938 -0.29581261779479373 0.5244142849607291
Ni 7.583776854351967 5.565954435143837 8.729948955722401 -0.267938517092345 0.39914345407466095 1.2941799457419065
Ni 1.5544531764175842 3.0670985325040525 2.5707324514337078 0.25957548983963036 0.30113248734581044 -3.091857738006849
Ni 5.786408202187688 7.9931975578275765 5.420605857756149 0.2623358261935869 -1.2358729824708976 -0.9668494598444897
Ni 3.7699000318930214 9.5222388584009 7.147080431118459 1.1516238454128294 -2.1193917033065306 0.8428302419773356
Ni 3.514797884403292 0.714119663982895 10.413621291044247 -3.956960161118824 0.07749536327400201 0.9589626008972452
Ni 1.650834493588921 0.7877598796753763 12.10599615990567 0.41037377557284166 -0.009806444567460531 0.3336114338101222
Ni 1.8854600915737645 7.888020882543055 2.1241754851284798 -0.4957174312466689 -1.092690561411731 1.219948340820841
Ni 8.194378737657896 7.295267050915084 7.474350467895516 0.18056677524489548 -0.007156151428807031 -1.3928334311507626
Ni 1.6085211929064727 5.705310772730275 2.9450149180502363 0.7175902643292028 -1.4931866728595444 0.9019856692915691
Ni 7.240482171382487 4.506035662814406 1.8123474135570374 -1.1947965241455618 0.3552477811329753 -0.4120385648697742
Ni 3.69509813044766 2.3006708427100904 12.028610794337407 -0.1493445840058202 2.197159860625945 1.6993575218257895
Ni 4.2535528225997625 8.152947729952318 1.3945504411322576 -0.5615158177987168 -0.13392002192063387 -0.8707863608706293
Ni 1.326674539555335 5.590070443178317 10.268507991783725 0.16302902347144826 0.8902611817657894 1.058061658483952
Ni 0.8504210621369167 0.8459737541003752 6.51221916716931 0.7898639741929494 0.098839633277733 -0.23132729362721452
Ni 6.792635770653769 9.347710278913565 9.59426153696912 -0.25938317132316624 0.22897164891084434 0.17576883963561987
Ni 4.320165942353539 8.405053757541422 9.30423804964379 1.2833993101866348 -2.2578800613241374 -1.6192170076194565
Ni 6.401485884240867 5.559750812650211 3.997592277567952 1.3485886023997742 -1.3048716211277978 1.0901860498223226
Ni 8.45164066483059 0.4059200222788353 11.328457092934237 -0.008104631385005397 -0.5542650497735745 -0.688929920280033
Ni 3.767023389166348 1.903161094422243 3.7098958379691216 -1.6099432956270143 0.31359205326540185 0.11424928296458389
Ni 0.5136728092447839 5.8497862476929345 5.394267574286175 -0.4696325612341589 -0.28495047826930925 -0.16084075757087785
Ni 4.373204617036078 2.412152236558504 9.282420598625096 1.0222683029344266 1.1885454010295273 -0.8511816992658244
Ni 6.052061103192502 7.403375512237333 2.67192594154973 -0.3405115033640652 0.9516508977271803 1.165127279215903
Ni 5.462156342635677 1.399904856635645 2.34189873921995 -0.5632657106102881 -0.8352238903849873 -0.43733436332208553
Ni 3.0744417834261366 6.108022373360926 13.51075638507966 -0.40617002190413914 0.7109113096471305 -0.5865156822771641
Ni 4.0141757093123935 8.492676478806946 3.7285930966373173 0.49605938796711985 1.4473827271515525 -0.17492243247492456
P 5.288500865573371 5.706606640540055 1.2548126956443595 0.319134837460502 0.6647528088131971 -0.8341234582319569
Ni 0.2985771339250581 5.737100891553166 1.0732147436798436 -0.45322223819693563 -0.26446907048650586 0.6276921565154737
P 8.98107159426437 -0.13109403148011317 2.47440719662861 -0.4690221813436697 -0.3683475517397269 -1.0243611809077133
Ni 7.311764091472206 6.791698334365843 0.8641241749339476 -0.26228080458593533 -0.4123450403665995 -1.7340843837840134
P 8.229817505562222 5.432884435017606 11.008222423592542 -0.08819732307253843 -1.0458044383831537 -1.2347578950298477
P 5.652593767362221 0.7640427415908573 7.878091410332517 0.3665218113848978 0.6656686357592471 0.14956029956105213
P 2.8410385288363336 4.650501947225224 4.768324821844899 -1.2174674833805161 0.44305275386310145 -0.10826555457732323
Ni 9.016023262921047 2.090427778763156 12.927763838563509 -0.4866128978422394 0.5230498005130347 -0.7219660247993953
Ni 5.51150960602941 4.618142014188104 11.39329275996169 -1.1574011142162388 -1.8900660134903773 -3.2169061684694666
Ni 8.219386229221088 1.9529830759599387 8.548705759059002 -0.6118019676477786 -0.8614118616342649 -0.2747005184065269
Ni 6.633988464750115 2.5310595962955835 6.952533910663174 -1.2630809103442568 0.6442652303828066 -0.9444448668970444
Ni 4.8630150774772325 5.462671013538852 8.943447313131916 0.06060578660751498 -0.038519496231436884 -1.216801310551427
Ni 1.5915094814461745 2.9973514345720154 11.355440553143547 -0.9926332536768132 0.7240231644387402 -5.127042470347157
Ni 5.8471485593141646 7.636705242412397 7.717065589612048 0.13474457470445828 -0.40646055656136454 0.3289209703129884
Ni 3.7739530652555238 6.52040243452979 10.713598146014904 -1.02726961280376 -1.581484011845057 -0.29036085065160316
Ni 9.212425355793314 3.812599335752851 9.250756390362447 0.46279136994260944 0.8259368086561065 0.8117746582231116
Ni 0.6416705438091896 4.906100384514442 12.473270830742361 0.7339393951111877 -0.9870436754041776 -0.36726280331598044
Ni 3.2574624328158572 2.1264639325372396 6.032625843211361 -1.003993930105271 1.1279786951900639 -2.2661574708415806
Ni 7.233442208671202 0.22209152338216706 3.7314449248740162 -1.7954818130548882 -1.445336643255801 -0.1510983334721333
Ni 6.511322169309491 3.7052261185779938 9.166228127902263 -0.3633966354923548 -1.481686642639745 0.03523465483257803
Ni 6.839994684297699 2.972362324112507 4.4247250125542505 0.33719040941063216 0.25205964107855944 -0.7578581107103142
Ni 9.091955602243026 9.100585530423047 0.08192090290249136 -0.45685212164003897 -1.129732701766693 2.2501502967800473
Ni 6.8101529624653985 2.4439791175887646 0.1540566252583705 -0.2834170723439184 -1.4546628057527335 0.6881377633960407
Ni 8.913475085463455 7.043795171403105 12.323867381881804 0.37475602636923205 0.5751632333788224 1.338163036191076
Ni 2.5067689677760985 4.205219710460537 8.825829387818327 0.9044590705327261 -0.11748784450653961 1.257601889507557
Ni 8.572294229417729 7.423466058564838 10.138865148439528 -0.4111453636315435 0.024374829299938665 -1.6138662848305043
Ni 3.4035003015917265 4.312455069357758 1.4289856007753934 -1.9486519414543857 -0.5646849595553178 1.0197033704207277
Ni 4.819212907396314 3.8897815901253963 5.085331769379539 -0.132378645575443 -0.09484002520003666 -0.6034715934052123
Ni 8.74837601216643 4.175570990216928 3.418191398711816 0.6591226071106132 0.27483344443996544 0.8996634489162959
Ni 5.072651565002568 0.48323553965309574 13.081687200820165 1.218392566297947 2.287753451844802 0.539531857328458
Ni 5.568601314074451 1.090514119412809 5.172791817877449 -0.8251194549611338 0.8439538140588174 0.6049931722560613
Ni 2.2779426080038143 1.8164206661335929 8.109211731844665 -0.21893406216918426 1.785557611962641 1.2004966598541325
P 2.029816089362473 8.233080151466277 13.50887324100715 0.5118207645664347 -0.6727821068755767 -1.581286294011954
Ni 5.160016950816501 3.925119261959457 0.05899782849715637 -0.5778081272008371 -0.3236154989396749 0.16623390356199114
P -0.24092755938318303 3.4025444842001162 1.093207870157819 1.0091672467760944 1.453762148315335 0.5114890922586287
Ni 9.218950647601424 8.971568563659318 8.506535830985296 -0.9823727522910695 0.9272791537510353 0.835027458103465
P 7.559522988039852 6.572126860298864 5.53857302403975 1.020769606901713 0.8948842823600976 -1.3080523328486247
P 6.965234334254198 8.238916151886206 12.57512420248067 0.16551193779430204 0.5182909456718107 -0.056718535737966834
P 2.6638446893147 9.136493016471336 5.414525388657212 -0.7405646137371891 0.19573705522743065 -1.7719647037695547
Ni 1.9369731346504635 0.8727090694099413 1.400374493834792 -0.04907027516408969 0.6611599492556162 -2.2739903366224383
