# total energy = -381160.2192669412 ev
CRYSTAL
PRIMVEC
9.27995271902160 0.00000000000000 0.00000000000000
0.00000000000000 9.27995271902160 0.00000000000000
0.00000000000000 0.00000000000000 13.58214883629353
PRIMCOORD
 96 1
Ni 4.079606374346877 4.11838729637728 0.1635675170173916 -0.04530669435659939 1.5769640124875164 0.29223647040776124
Ni 0.03212905198699716 3.0856399283659175 1.701992495635957 0.6134220197497048 0.523158301066441 -3.180917666189999
Ni 6.321698608871293 5.468091446381563 13.4042902295213 0.21557363033738355 -1.7078277640803299 -0.22202118573494023
Ni 4.8742765576992335 8.94595785250221 6.2025059693281746 -0.901165487383119 1.1424066976899356 1.5674411605987457
Ni 3.439837160253072 7.625262834411551 12.4410311467848 -0.43595419514510725 1.3285357975139571 1.188120911897599
Ni 8.121842379462734 1.1514286821647066 4.88050062192651 -1.4114811281589368 -0.5512506884272829 0.3472719620163503
Ni 4.7545187690410975 5.413581004647514 8.609682993124581 0.3094543769479445 0.10027456595204666 -1.0803544084438812
Ni 1.4022286818760417 7.568747922909959 0.23144665850664398 1.6330181751686068 -2.7743390959935317 -2.2422498109860483
Ni 5.998060260986559 9.042682798738841 0.8771253464336531 0.6169158918355762 1.2308307920612997 -0.5977061516763449
Ni 7.046685627943608 1.6093850643801542 2.2856040764043293 1.5255123815754439 0.17472908551719585 -1.2492082661272228
Ni 7.214931169080533 1.8857142137697949 9.857406959719267 -1.386082485580174 0.6859096453964703 -1.2944033746066224
Ni 4.655464554694957 1.9778363035031785 0.8798146767051083 -0.507898546693893 -0.32971801229298703 -0.5299480702947647
Ni 0.8168492701321274 0.2119439100646495 12.647343981595071 0.5354556303765552 0.6959372048358013 0.15088750301290788
Ni 6.29365459203093 6.423759527868751 3.9508980713794988 -0.25938317132316624 -1.4372960323395119 -0.04712395007099626
Ni 8.016700516192941 2.764664926885281 7.52039472974427 0.8835495740735686 0.1610500453682065 0.8551864495498432
Ni 9.178912503310825 2.175954012148087 10.794466880197755 0.40361948756814353 -0.717314642070313 0.8659190054759991
Ni 5.833331821895466 3.3131750868400616 3.125102926914443 0.36392216897852164 -0.18079560342624992 2.085958877569382
Ni 2.7545219386634026 9.062718216461656 2.543501383885191 0.4542110844727662 0.12673713101894948 -0.6695587148422727
Ni 2.6727562760623305 1.1374901933181727 4.721684440654408 -0.4685205591169028 -0.5574691585331689 -1.5199258886266016
Ni 2.188695387105671 1.9993286737885132 10.555326212967634 0.5209720920483996 -1.0102417107871957 0.11617298234985798
Ni 0.3897960581615815 8.637195268679388 5.427752420304999 -0.2631428954759146 -0.20128343896695658 -0.04243760033892046
Ni 8.205269153584132 1.1794819789576971 0.24433187272995446 -0.3286929134625823 -0.8833600837705817 0.11729064089406896
Ni 4.471211095275562 0.5854620033222995 12.38910609985278 1.300962772991695 1.2920148197697878 -1.5715513261123772
Ni 6.0252598021378185 9.219382376719436 10.475816506850311 -1.277626926479232 -1.9508924007491304 0.25108853541454174
P 8.03384058869597 6.461779493783697 6.988300805987571 2.3672954132351873 1.425369456105255 2.450977879156508
Ni 5.107834405428638 3.0895467884221026 12.061844858462262 0.7174622233917708 -0.6521685443902833 -0.5690126403963942
P 0.31896125176046425 8.6479228939168 1.3925237074181822 -1.7791679063862134 3.0099195084701456 1.1974211062526023
Ni 0.4388999994948369 2.681952709116202 12.970381916544804 -0.08968393492039393 1.6444927514671097 -1.0323935642938864
P 6.732494271833689 1.2021714631319818 12.068567256145636 0.06430097607091506 -0.06295808888977544 0.38249761798786386
P 5.0444894487931915 8.044429014643969 4.391448046451508 -0.9658511004869623 -0.06590148778881554 -1.788759149619074
P 1.243086774266714 2.927797214124442 3.5908618932991088 2.2961547885346194 1.901686885558757 0.09873858892349446
Ni 8.409056913284454 6.982236356945486 9.746862308029733 -0.1791470120792334 -0.28108611021789653 -1.0815689975772729
Ni 1.8119293104283896 6.772769266237122 2.424589926906685 3.028724042771158 1.5413637467854033 -1.704143373250207
Ni 6.606556034725625 1.2428547754510262 6.961353679547781 -0.2201604783771176 -1.1581734736058893 -0.4095715913865205
Ni 2.33634871336213 2.290190228992849 8.105405727368872 1.1915870160693285 0.30215912883811186 0.3907184632357593
Ni 8.214112948438158 5.742165567282716 5.025707752670356 0.2507198392212134 1.4790463768034203 -3.0490936075664457
Ni 1.3113779456526282 4.203660781071554 11.046374906252815 -0.9657935077761496 0.44091668135670514 0.8478089261388496
Ni 2.812883560737871 2.642735629312306 12.732435579217846 -0.1613107552287609 -0.5838417349894267 -1.4783408660959634
Ni 3.67397964499801 5.876789840050138 3.8128754799598794 0.4942627010780133 1.4348848517948578 -0.48318484599729694
Ni 4.1303491553141525 6.229882757574618 6.25982174074152 2.8932212497444367 1.9874208346924678 -1.644850906137477
Ni 2.4486825399182504 3.5759926252040346 1.7656112108739153 -0.1955668481981535 1.898215639180705 0.5463949029968783
Ni 0.6926129763359505 1.041368444002328 3.214039208910799 -1.1398607913396306 -2.7165301554048633 -0.9422447739219321
Ni 9.099132750572041 4.383190744603541 6.353403567023213 1.294726562273996 -0.13384006061231787 2.1191564473672733
Ni 7.062842025468119 8.793117032726967 3.1509902827641705 -3.2535251052440803 0.5422914223514661 0.6263032465877472
Ni 6.965421082784422 3.6072660655587745 5.4282145619458495 0.06720966507727781 -0.3175448672655628 0.2230851082230803
Ni 8.248977730459748 9.11481587051255 10.298759650693558 1.0028017095693826 0.4688072371193861 -0.7122192298252766
Ni 0.38155360423781887 7.831240662931968 7.882005715785549 -0.29844542743195057 0.10219646556510785 -0.45118541027256487
Ni 5.172469275479309 7.298924020312208 2.110543338057755 -1.0557520365141688 1.0841938367946296 -0.17666795441112154
Ni 9.437619022660806 5.469891757191302 2.5420481433037216 -1.132629563698514 -1.982670978712308 0.007626663307322349
Ni 5.4938154750650465 1.721078574204976 4.936499568062012 0.1302914240291111 0.4694232734368302 1.613961415647472
Ni 3.330129560290539 0.059838062537506904 8.195142869276983 -1.5930115528686821 -0.5049816301574142 -1.09225630208779
Ni 1.779393796516307 4.850891077077884 13.131248967347588 0.14296670550393442 0.9900883757677723 1.4989392590726054
Ni 7.650689904610954 7.126567460161294 1.074908976783971 0.328934340049427 0.18448230824921777 0.1362728384235266
Ni 1.7170510747646326 1.7453827701364488 0.8796411415909735 0.5887494567036893 -3.7777285597455843 1.2172239999111423
Ni 8.029599650345192 8.187479484397176 12.362512539608097 1.2134789310464134 0.16341083229089923 0.8191640087086473
Ni 1.2711400710597047 5.64859580493944 8.947987378141848 -3.5017185784990144 -1.2166246757642465 -0.1453588598851948
P 2.744146951625836 6.253323917911732 10.042355487590465 1.8329052480086692 1.540771107506727 2.2189766993907205
Ni 3.8057178524982738 5.57497794074533 11.871300519156671 0.49377650547021407 -2.2730567690645755 -0.3180657727660393
P 3.282337804258815 6.096678317559207 0.8191506983837521 0.10339819918269288 0.13300059543015805 -0.18122652031608147
Ni 5.193302769128089 3.0450958153362855 7.6547498838854935 0.7534828644607539 0.782839206135684 0.9661107819062523
P 3.14604314001844 4.493455141723725 7.399514066818203 0.3930761648346585 -1.5944565128453247 0.39514436021759686
P 6.213383001802889 3.5151903755885283 0.9557163372408509 0.7517160023683183 -0.32986045140812226 -0.9919765939294205
P 3.810571267722466 9.109071579836113 0.5322275550745352 -0.800950571024414 -0.7613175300138243 2.7440782402264614
Ni 0.7781101078885483 3.30510152805412 9.058613693414504 -2.0610130062573213 1.2941112972875004 -0.9004872303691718
Ni 4.563166145861651 4.189982130898591 5.485205535017234 1.8206660256299998 0.06166919487502283 1.5059555424894386
Ni 8.347243148832549 3.0629968439547706 3.492092573498633 -1.460936040355955 0.9920904937994656 4.159238102788566
Ni 2.183656372828928 5.129614454245425 5.421043014555304 -0.4451350903134269 -2.343089248302629 0.4462972289423282
Ni 8.749436295709234 4.872513366700005 0.10918513862960329 -0.18656695869238837 0.12768741074736073 0.45936897452462183
Ni 5.950379864386366 3.8654621875142423 9.963226259530868 0.20209333646276162 0.9972506978441664 0.3701524661589496
Ni 0.40409368117480043 0.9593336627750579 8.779052336524698 0.07442032389310409 -0.21681161650954273 -0.8775866716219144
Ni 4.988874692696468 1.1516606809803944 2.9637746624660712 -2.1359331526049794 -2.464339902285711 -0.3866280952164696
Ni 6.356025153640488 7.401421097083159 8.501121467311549 0.22734285505816976 0.7425217374635599 -0.6794116963769525
Ni 7.544453006931113 3.2702924257482953 12.1020474692352 -0.3714619289989925 0.3114870911072571 0.6845065944013566
Ni 8.876803645521935 7.829718750701056 3.1449332576841886 2.063541686216446 -1.673834952074653 1.4748616492981117
Ni 3.329702682469674 9.050542918614351 10.446098386555944 -1.1388094672569806 -1.1321793635349728 0.6117821701534367
Ni 8.283963151865496 4.803080761140905 8.749321224296652 -1.0985894433946692 0.4379136328643232 -0.17208753412929073
Ni 0.8907418209240121 6.914826781059187 11.36797352055002 1.505933945222884 0.5704182624946692 -0.010815859668581373
Ni 8.19831846906612 5.60045141070787 11.51047740109347 0.9747949399438115 -1.0212203212858866 0.949838269998474
Ni 6.244443003247197 5.580750071279647 6.768391912582721 -0.32256366063639286 -1.5979704395358543 -0.20957704643431652
Ni 2.7110546405561022 8.144420504205488 5.488288335280095 0.130249257937266 -0.6166392411354219 -0.3855235492983812
Ni 4.7680767798299035 7.031670664592283 10.224179455411972 -1.2254975527738443 2.3164634181849846 -0.04177939792963127
Ni 0.6964279648611237 2.447791664466009 5.623009119554844 0.5258692722397008 -0.8429387425307417 0.48320490060195487
Ni 3.673227968835181 3.490153063399481 3.7318447896069067 -2.21727257221542 -1.8630486043612688 -1.0663418962148732
Ni 5.032657509193104 5.035339415502457 1.9755914829625816 -1.9574865090268807 1.4716727100471687 0.8027156333446369
Ni 5.98481776858709 7.513736363734025 12.569952888662613 -2.0115632362666265 0.3602768589164505 -0.7305326834224838
Ni 4.5516868444614085 1.7378567285555306 10.178176874246834 -0.01432335860120759 1.38249579667018 -1.2757711042174156
Ni 6.892851853237222 7.899299835502195 5.787163129578294 1.1206795904254894 0.5486968116571777 -0.0742747994541753
Ni 3.2965268518262922 4.138580473294762 9.822569089560297 0.051434404520892055 -1.6949701913913713 -0.31025553269300116
P 5.315491905374636 0.395704603999523 8.432585305176266 1.8371815067865198 0.06711556270157473 0.43556235902332724
Ni 2.3837321514782435 6.528734351991249 7.312574830627289 -1.6200114784962938 1.9398518266642528 0.9712126219091919
P 1.6086612280752077 0.5535918620136101 6.935466323698052 -0.6231824415705783 -0.4710680081291048 -1.7786189758612787
Ni 7.285430969191796 4.929093237869989 2.328998990881135 0.7986967419932309 0.4736329406428036 -0.8327808281611334
P 1.1038782049012978 6.455886723865222 4.299347300609168 -1.310520591883459 1.451324742518436 1.8697417001107284
P 1.072836763362246 9.175645959985937 10.60659887922994 0.9689009430568797 -0.19836575109952934 -0.5286612331625412
P 6.313986968237826 5.964689551338001 10.92364660475861 -0.0407949225291749 -1.1591456077111715 0.06007742490787073
Ni 3.548319806468772 2.2493955572422744 6.331413791277044 0.7798556980273279 -0.10205736888408229 -0.862029954834238
