# total energy = -340894.22858280595 ev
CRYSTAL
PRIMVEC
9.05746447798149 0.00000000000000 0.00000000000000

0.00000000000000 9.05746447798149 0.00000000000000

0.00000000000000 0.00000000000000 13.25651480606903

PRIMCOORD
 96 1
Ni 6.714180541285501 1.8431305835497054 11.267825248695122 -0.7809299049281131 0.49532790911773406 1.1571301199430395
Ni 4.756645126115955 0.4957159270870925 6.076388323384379 -0.3560674488207932 -0.6316038328650542 -0.3683683776753333
Ni 2.7443482817663303 1.600562632032726 4.773194019145216 0.30210744966457004 -1.4761574852914 0.3562173441350962
Ni 3.45895504293414 4.084517872532426 4.631190188045617 -0.46525962897744383 0.8032568505600876 0.6261137562847604
Ni 4.952358814789973 4.417660467086251 2.67768353299835 -0.12104522284049476 0.03136051658915245 -0.30517323307408734
Ni 7.081297684442448 6.251353172831518 2.589315288265881 0.9156330848716747 -0.29578587832191644 0.7560591098283624
Ni 5.250657344167524 4.438393002877386 11.560091506846419 -0.3681063822631983 0.16539675237267645 0.31563428050641124
Ni 5.900584752742721 7.929492986625303 12.591422397024765 -0.6635294779290573 -0.7163659050037985 -0.8814127302362239
Ni 1.9123386682941597 6.427729175217169 0.37418377680668197 0.38712817478133976 0.3587470525354854 -0.2970719441231916
Ni 2.7196666915387895 1.5206486244813162 0.4176269985928751 -0.14547738774093008 0.4473590945479392 -0.5000039744371647
Ni 0.4451798050046839 8.913414391398872 4.665643876510403 0.5525580943847967 0.2355161348975815 -0.38503503969773684
Ni 8.676724734214984 2.4636302906022314 1.2422810453040234 -0.05457552125303504 -0.6008308133482555 0.5403566672225983
Ni 7.120407815305758 0.6108362983869248 4.92346912664694 -0.706061694864313 0.9707415958100442 -1.333991678422206
Ni 0.7725183764327087 7.2981605522655695 2.3999327671401387 -0.5324230141978186 0.5625332033196376 0.379976651338223
Ni 7.55710439924361 4.174331688567762 3.9054490860092885 0.32335581752038506 -0.9291768849943803 -0.20604589335260645
Ni 7.6379513256183005 4.0046763246954455 12.748445315432733 -0.12820163137961793 -0.47466395301047926 -0.4729194595155468
Ni 7.7872726821288465 8.769518456006233 6.975193113110503 0.837470263217003 0.6228733949705919 1.1634087538628997
Ni 6.751361432252127 0.8192404002968356 0.3616192623246106 1.9756834916508812 0.9827283358582752 0.6582492033667244
Ni 1.8855376314195569 6.2300137869320364 9.323041837518733 0.4878040899368631 1.7874013500395989 -0.17758506690875225
Ni -0.052078608253326136 4.916762980076492 1.6094733654146909 0.3120429636107271 -0.04880390887658047 -0.15839718112639173
Ni 6.420148077594985 2.1505952668025854 7.145420002980383 0.6983008199719715 0.06666510542771746 -0.2417253490320869
Ni 3.2403803143576217 4.30160717696314 0.4239817155483403 0.23310495435292758 -0.27320773591108427 0.07307615116038382
Ni 5.671186354323299 5.670362125071664 4.632568734112639 1.8977785516432866 -0.5260451356959328 1.7167991143410046
Ni 5.355533723339889 2.877003903958096 9.430366449292382 -0.6303810162015466 0.434646017856645 -0.19901006955174758
P 0.2685012833112892 5.459368494117329 12.656829969747395 0.011579477307483285 0.5320604886520772 0.3285579305466148
P 4.182700785584367 6.077486088057987 12.645853228757758 0.029297206302220512 0.8430791247633481 0.19845419704827755
P 2.46566822007056 8.294354821170632 1.442626721222946 -0.3629793454492781 1.581741893492134 -1.4202982122299346
P 6.229415994287993 7.859179891235798 5.892295361411988 -1.3162420677482685 -0.858196954241393 0.2884638907392064
P 4.92634577730979 1.0820771454326006 12.606561042861943 -0.511863444878912 1.0110292396854974 -0.7270172140700576
P 3.991207875275866 6.119920308320749 8.14725526065378 -0.5697528609965284 0.23757096054408117 0.2549475041493158
P 4.660491085068037 0.8565345095672574 3.7118774876430916 0.5442362047826628 1.7000159813453948 0.3389009643438357
P 0.13986717527035947 5.675398075224513 3.70779438273499 0.7812253246813449 -0.01596192264589509 0.2456668501783382
Ni 1.3765262524810855 1.0337374584438355 2.5054150906744197 -0.17368264653055251 -0.1466402977007797 0.15561756149872555
Ni 1.9731867134863135 6.674798686493079 4.747038779475466 -0.9868179325466166 -0.7848382388435838 0.1487920539364599
Ni 5.901028568493602 5.58053019410772 9.162545381550302 -0.386882891539753 0.7356990581147718 1.0289770824131699
Ni 8.791473749478365 2.3477762646938007 10.207397254441188 0.7052417700661788 0.8143313632066943 -0.19972072246552702
Ni 2.396134066611173 5.230921129449794 6.809009475305788 -0.32287862077365037 -0.16633006282022322 0.27759583767645096
Ni 0.8558705974337973 0.1255681563741325 9.09410174679308 -1.4768036035158307 -0.8862566885920865 -0.0831780154810761
Ni 1.5394338054471581 0.9762497325083489 11.411459423369383 0.3239710825068808 0.3023131379174729 -0.2980772454592544
Ni 4.055678906189494 6.735420295077641 1.6829411756211685 0.7822329400102528 0.5860755094159519 -0.6679119232674691
Ni 5.20812349179742 7.942870861401845 8.154439641339463 1.3531659373578115 0.09745946510075473 0.023724083089817206
Ni 5.289423291387294 2.6706839245844627 4.849458774328671 0.3978023666657342 0.007525104732451557 0.2120923566570025
Ni 0.5133191089613037 7.251813507423615 6.571187635083939 0.8190907322685507 1.7636417857261562 0.16349567869522166
Ni 4.929289453208488 4.445648031784637 7.094210911300211 0.17237601190398702 -0.1826614529903951 -0.28665640521682245
Ni 8.347413447061617 7.207268897978094 8.861038698316385 -0.27729090484152247 0.7743774485215761 1.9211444800627366
Ni 4.805972076713821 0.44816061650702654 10.388361768243088 -0.6777818740830134 0.07805483532189783 0.39002837914727023
Ni 7.855855801836346 7.097275051474147 4.756530096319297 0.47730730417059736 0.436045726417649 -0.18499215800610075
Ni 7.173647590482817 6.157318578430663 7.09550975168136 -1.1737939537519655 0.006759173100704488 -0.9803549505300923
Ni 2.3176964257412638 5.3069675997435315 2.6434952282376623 -0.9930484868373607 -1.1460028996816265 -0.07683587531313218
Ni 2.6130965665416355 5.211628730482946 11.437323012688555 -0.17645635262094772 -0.27612773777135674 0.6748832123789796
Ni 1.2251760239665146 3.18929621568484 3.91209001883675 -1.656599562032973 0.6396215609632081 -1.1921464881172243
Ni 3.5384976944490987 2.3326412418423432 2.5032141268486243 0.4517261132673834 1.1760215575309039 0.605250539682506
Ni 1.2657081767255036 3.329206866783857 8.169260370179583 -1.2477098272048253 0.1053064719489993 0.11064871009751912
Ni 3.4824319904092906 2.439111734732157 7.1454073225303585 0.0360419812252218 0.6706946282189289 -0.6524233407135667
Ni 4.097569678594035 6.936242393618938 6.018020211918575 0.25367352253289854 0.8243427246961093 0.19510610651165108
Ni 0.8437046113810881 7.185666845613806 11.39264888150349 0.14630296896601902 0.7492924805284902 0.1831085678301427
P 0.40889379151126237 5.68419287306339 7.90615914708615 -0.7074930279942009 -1.931964967717008 0.8890581625966237
P 8.442879120822454 1.6350625135654608 8.176856865491082 0.42737288123399947 0.5356307225018389 -1.621890954907194
P 1.8920499482539062 3.1346072462191916 10.35321880674479 -0.9832638966467712 -0.10877668988578687 0.9498652665816673
P 3.8922641352224145 6.206328517777901 3.829224183668769 -0.8399989431761276 -0.4567217667097618 -0.3710965752397738
P 7.006582661401352 3.961988495432179 10.423438610251965 0.6331117848691484 0.16882943220330926 0.6732035106837115
P 6.410356958682702 7.627272575204256 10.185443772461916 1.2037377924992494 0.5387415002166787 -0.1084434749160842
P 2.459672178701521 8.627542703045977 5.815327746998568 -0.6212880527613429 -0.1552151838539843 -0.588368933435819
P 6.934186349222001 4.088267662754151 1.654518852636206 -0.07672146122245496 -0.5620971442234836 0.22367800461207282
Ni 5.1980697064203305 3.023064573319315 0.6521193149366892 0.21339462040819376 -0.7121366974137994 -1.1757099398277557
Ni 1.1707044336441552 1.0320618275476539 6.84347674996703 0.20965315108789054 0.2844653111027746 0.20735998417833962
Ni 6.888926200096489 0.5682970115382392 9.186433537904838 -0.29293992423268905 -0.2907532009940154 -0.5221995366975974
Ni 2.7420748582261054 1.46463726522733 9.222212333397254 1.0205544055671134 -0.06218855771360257 0.10787269001427874
Ni 6.403726894812404 2.2065703961993566 2.61406571522213 0.5366753617162693 -1.064417939719283 0.6165795915420801
Ni 4.3646380710524815 7.162724288532573 10.586798130686793 -0.9981572688188358 -1.568175467661609 -0.3157121849321982
Ni 8.129599545486608 7.302336043309569 13.653679999068045 0.41948242274232916 -0.11499053200598262 0.1492769639926784
Ni 7.625506369665037 4.144451113829907 8.383247493086284 1.4064777614070745 -0.7953730769366366 -0.8266045241470925
Ni 3.450504428738802 8.541052976410091 12.478702253765409 -1.0512505490993895 -0.9345936851345774 0.20281350245823782
Ni 0.2784481906095957 4.921300769692638 10.5880181711285 -0.6875592651847513 -1.3775698201234727 -1.543530158309103
Ni 8.559403399089357 2.6708379014776256 5.907407740602687 0.2660726675281998 -0.9485061814506115 -0.13713518642382191
Ni 3.6151691297797894 2.5362439819248714 11.531616650568495 0.5820229366131331 0.4642180750868069 -0.015354370968883235
Ni 1.0728838191643606 3.316580761544521 12.51869639314476 0.15614386631584076 -0.13521534369328972 0.03529996085287469
Ni 2.8073610609270645 8.197285976228043 7.915332546932921 -0.01294344753454545 -0.005747701117054618 0.28557551344781784
Ni 5.547080978434212 7.947807179447353 3.5727367210098873 0.0117954499730313 0.0242843264686614 0.7001602417782135
Ni 3.0900354643807595 8.325023395302908 3.4904406003466084 0.03924634709513241 0.8304742915151438 0.5709371111126167
Ni 3.2350545253470546 4.385361549379312 9.314305913197828 2.173842268945927 -0.9909736065862029 -0.9581053951032724
Ni 7.530339592226223 6.255492434018301 11.568933403499676 -1.1031384962179323 -0.3408236352878453 -0.7599630728684589
Ni 0.6846129681261579 9.131916660260961 0.22105919103501923 -0.16678257697660953 -1.017378836052609 0.6935545635362378
Ni 4.613881373761276 0.32733404269587296 1.4423622432652783 -0.3540930987032418 -0.6855211517088001 0.7750541628736265
Ni 6.005488304307997 5.693938704654156 0.6256905398449677 -0.5838193663919236 0.17986486408186442 -1.9550079655794004
Ni 8.250996739548894 -0.17736779472690511 11.04120477457764 -0.2235911013252214 -0.47589191188030944 0.6894050601442386
Ni -0.11721536279327446 5.025108368077168 5.893422109971367 0.5731207490274969 -0.5184398125448492 -0.7536237609139924
Ni 7.96741658966483 8.861823074725084 2.456034701037161 0.8798302162404525 0.5623827937847024 0.6187136071659473
P 8.53807307065418 1.6799603641188259 3.53014399512181 -0.3548891122419759 0.10356352111596356 0.7347981435670571
P 1.6943345599687736 3.2985111202586697 1.603627677953093 0.2305518489137707 -0.5137022978598637 -0.08579539849926514
P 4.850063812944158 1.1350089668233339 8.228000743428268 -0.4990166708232309 -0.7299608700794138 0.5943477767270732
P 8.631301550732006 1.5812611756015738 12.385058036076044 -0.6285588753911434 0.15446827838563074 0.33551122193599636
P 6.319139235680293 7.970369323027832 1.5414545257333103 -0.33787920794754067 -0.8258553046858939 -1.3719547879295404
P 1.7678630551860857 3.2523905120243075 5.9884847265706895 0.0920228674662157 -0.15695607780449097 0.048168332175110594
P 6.781060857703908 4.076764683088472 6.020697598366745 0.08684209459622463 0.19753862721254367 -0.10132871824817387
P 2.4347007496162623 8.303231136188243 10.347915661394984 0.41583634134930963 0.23353098614675263 -0.08153122390627249
