# total energy = -340891.0467277989 ev
CRYSTAL
PRIMVEC
9.11016775806306 0.00000000000000 0.00000000000000
0.00000000000000 9.11016775806306 0.00000000000000
0.00000000000000 0.00000000000000 13.33365138379467
PRIMCOORD
 96 1
Ni 6.3640534149325365 1.8530172219241887 11.247281865573953 0.14043699710354524 0.4255911067432283 0.5504605884258198
Ni 4.531133222971646 0.29536348030329596 6.087931519844781 -0.21715820121568408 -0.7765402605008498 0.6679833999353528
Ni 2.9647947584749543 1.946323559586971 4.940758248699092 -1.0599647890439357 -0.7651448741797144 -0.09943175833577714
Ni 3.3953868351817884 4.44076035931076 4.930503843927248 0.5921147736314964 -0.31167375319676643 0.034262263616979705
Ni 5.105984805330712 4.553516905029589 2.5749014449857253 -0.1220672363471059 -0.16502959884124482 0.7678036519588002
Ni 7.324474625186732 5.837112204548531 2.592048602645254 0.09343388888112941 0.7268192391266386 -0.13966283794168205
Ni 5.263034986444624 4.503055686096358 11.325017104590648 -1.040042339088396 -0.48852682703550065 0.6639179716167276
Ni 5.753872602202814 7.7960715667461535 12.369095162871577 -0.07773036210294355 -0.1204225016548313 0.5906777840746538
Ni 2.111563781470152 6.505534319433904 0.21835887673676285 0.19384138086661457 0.5910979023312078 1.2468446509910527
Ni 2.944551965828332 1.6915486094720165 0.6911711146683966 0.333576981027761 -0.9785721475980567 -1.3165328595158101
Ni 0.3219232632384722 0.2143504029453526 5.0556401965441395 -0.0511487549596732 0.34800215531415546 -0.75437503725772
Ni 8.724680071364885 2.4933253592634426 1.2815136261977216 -0.49961393808759763 0.25376196848164684 0.42932769096752516
Ni 6.812373877998654 0.8238515971640771 4.989745442497209 0.8715605200324926 -0.5219195435633334 -0.6226165417647793
Ni 0.5436656562618937 7.33193585253938 1.988553741996249 2.11949866119804 0.14370718321438478 1.6131911131403507
Ni 7.223807272016088 3.7464926986384985 3.8705722718012914 0.42962182516917624 -0.45896222600450626 -0.027575852735739603
Ni 7.782087459314755 3.6604562748065015 12.476110480900983 0.042569755041410556 -0.44219811917229 0.7128483787688432
Ni 8.224905381085392 8.828800178096765 7.061448596178868 -0.7240277924244305 -0.04697199787416427 0.11014451676759096
Ni 7.011686127108822 0.6966773000309612 0.3049801733355975 -0.3878511689902933 -0.41464334948247294 0.2395707645829293
Ni 1.6090013798720877 6.755316897645011 9.199726122418458 0.9175549844847358 -1.3943264707565213 -0.13512766907548984
Ni 0.32076809397312944 5.002967028891467 1.4483007545576787 -1.0270055605090957 -0.47868412991346593 -0.6411935334360183
Ni 6.624768194392945 1.586481045298528 7.239652586710179 -0.7324183304809708 0.3522586165976643 0.020341282660513355
Ni 3.3770025167475475 4.376825202337765 0.6774885537881259 1.2386788273508087 0.07854205937096151 -1.0575245550335595
Ni 5.930045025335296 5.674623253313092 4.908664038881457 0.5724923714148786 -0.24909464491296454 0.3914044335591904
Ni 5.327908490691517 2.97862399305532 9.178005660569639 0.4717030706099425 0.3242107093215126 0.20104226949042794
P 0.2592243560234199 5.761060524524229 12.575260080131518 -0.6942621311262237 -0.4786219092169628 -0.11097883974342822
P 4.21917375015514 6.071671692519987 12.50824477545653 -0.8737073911721663 -0.009545220486273884 0.5937787915974806
P 2.5925533059362627 8.631765470913535 1.5118496404198642 -0.965052515845067 -0.42702526808659363 -0.7244875056696684
P 6.435677553450872 7.835810118287362 6.001236430887513 -0.47208590787065796 0.15823725850975973 0.4172229372841912
P 5.013434611587673 0.7077561749803567 12.794692134624253 -1.2338014446538494 1.5701025094809926 -1.049927716522908
P 4.069803440418861 6.323622490645539 8.36511906125861 -1.080937534640861 -0.032912691567620736 -0.4119490904797615
P 4.905005395530025 0.9944294663072294 3.9566405812202654 -0.47050467942646707 1.274097830280051 -0.8340470964680667
P 0.171158186826136 6.007335688167853 3.7304086975504647 -0.27125935393546186 -1.3149007232290257 -1.6282176684561702
Ni 1.2290982762911782 1.25124509398872 2.6138756534562533 1.2280858823263108 -0.11149100349315638 0.2950466861630467
Ni 1.9881392293655464 6.5068461835838205 4.635297058508525 0.5848478076564378 1.4344799030469553 1.3763670580646232
Ni 6.084772113683733 5.734877902532154 9.242460097101976 -0.01899916681032212 -0.3987480184084552 0.6816724673866712
Ni 8.832207380819465 2.341112677202345 10.334139692672672 -0.05645756876709632 0.43955888177723007 0.3104118557652073
Ni 2.35854953819498 5.226093256389696 7.141570699134994 -0.4841883475611468 1.002910210122789 0.7820339366255693
Ni 0.6400958704316634 9.192614725505788 9.324995483483882 -0.10691212587322232 -0.43305990431644775 -0.33833403609677215
Ni 1.632778917589317 1.1425790135706704 11.476593896945745 -0.24383905294098007 0.43409168801507175 0.5390533750301426
Ni 4.293740472843079 6.6868084364827265 1.7439211415903333 -1.0967709021286918 1.6207414146837829 0.2092664571724331
Ni 5.590691278221584 8.014551608713429 8.206609431277915 0.06505893728286215 0.3309104899391914 -0.3448047314227804
Ni 5.221893469076423 2.6795280770421583 5.411195465909315 -0.23500577092006625 0.6947940923702937 -0.2890264481108958
Ni 1.0514864466608715 7.496957430397576 6.962219738489278 -0.7712671850273685 -0.75317896006709 -0.7495902142745672
Ni 4.81977066645631 4.739674071969766 7.242678984422693 1.175164351736931 -1.4376829833652853 -0.7998064301176419
Ni 8.111939301509283 7.174293510524463 8.996094742798045 0.7103214985819315 0.3040838566646505 -0.14368661438909447
Ni 4.5792713491393995 0.11708934148063593 10.501744003076015 0.8761226854818783 0.6867385690556689 -0.16263615890840377
Ni 7.851862233788418 7.4847680260046054 4.379704015333415 1.338152751778431 0.2031875979682049 0.5174545658134443
Ni 7.093076365409866 5.978092049825973 7.0648084260294866 0.5052775641312781 0.1114328965617113 -0.3182058978883294
Ni 2.347052506547799 5.226676307122991 2.7133313543217668 0.48986560045158206 -0.05610198519989047 -0.26900115402890445
Ni 2.226215242072194 5.356951705343826 11.48576692481068 0.21432176020815347 0.15801434386567625 -0.31801949290913617
Ni 0.7186063847202877 3.5720876480413195 3.869999242252474 0.700175154176549 -0.002208834725860712 -0.5724381211381755
Ni 3.498687026819973 2.897033331064705 2.7550386131046203 0.07698859884091257 -0.6776597466828523 0.5736624804635798
Ni 1.2277408613027234 3.300832404543044 8.392933314287143 -0.6195957526605844 0.696052390257427 0.20243529318321266
Ni 3.5662298102052366 2.646403507256777 7.4245370632215835 0.8523116991052097 0.4326122752560679 -0.47925645747716816
Ni 3.9229293166345047 6.8058509979199036 6.1970011806922844 0.441795998637865 1.2627217272326254 -0.6082690147938556
Ni 0.3060278426219889 7.377851097786444 11.053876649205492 0.9733882894042719 -0.8320629761585024 1.2856868206692311
P 0.13888997280528323 5.659545925756763 7.8333868136771 -0.2541813154072526 -0.6577887187905381 1.166594864900365
P 8.828162466357224 1.6258369697960111 8.093792758452215 -0.8313484665899811 0.47697486053184307 -0.4062253006221068
P 1.9005449668555239 3.303109946469982 10.528650883400855 -0.4479396496417576 -0.3392876582592931 0.9259627489324569
P 4.183124816535571 6.271621653369699 3.8896790265347567 -1.4823998666566858 -0.38901150784698163 -0.5577224121945557
P 7.082754545396986 3.8488272124996614 10.310472387984705 0.3814280390727689 0.48766499325583756 0.1328121335684358
P 6.510216945635688 7.7253220043277615 10.32569912229144 -0.49979571508110054 -0.7274283334655471 -0.24180196790629324
P 2.2532268893256746 8.654212924145432 5.6319740031892565 1.5105706726639467 0.6216338661365359 0.20086692025482825
P 6.880745686645322 3.881651146750687 1.4856888828302874 0.620810341793976 0.24739951659872877 -0.24077995439968208
Ni 5.447178806321388 2.7692905594666257 0.2066304468298047 -0.5513705018345988 0.4432391588422947 -0.09447287166860503
Ni 1.7076827164824429 1.2833675453262487 7.192291557847895 -1.122056416168358 -0.8501491442362519 -1.5098425362486707
Ni 7.305097298472347 0.5673830668722517 9.326622559436489 -1.452882316813543 0.10018329178982101 -0.8043400563219373
Ni 2.8342460552228874 1.5500859253060644 9.466985646360113 0.1567331631604075 -0.16033553579968515 -0.6616428024293056
Ni 6.388131588184121 1.8179886270878878 2.415364188087596 0.4083585449150257 0.7248333190448614 0.9550583807468327
Ni 4.027796457118423 6.948416012378494 10.401834615858654 0.29123245462327907 -1.1689618224706448 0.3070928186943033
Ni 8.14107361783867 7.394440713182258 0.35544685836945306 -0.8787251561017319 -0.1523805426186666 -1.5345590651587442
Ni 7.61398664477134 3.635011576398754 8.070432466416001 0.9985213370264737 0.6879179340757506 1.1101889753068106
Ni 3.2035358134242675 8.306896890455148 12.328493878448446 0.6111381088115346 0.32236671413423834 1.6039353988700376
Ni 0.15176172875956412 4.970015552292533 10.10860109276543 -0.750471845548572 -0.5983612687618405 -0.09992695280464081
Ni 8.582351921266696 2.5816939860286245 5.86775334261678 0.863077679372462 -0.5679600307621638 0.3816530105993814
Ni 3.899279321265184 2.481737225939184 11.462246293822808 -0.33853715324651373 -0.06692118730258152 0.708908934505121
Ni 1.192019893720633 3.5527740925008886 12.732836828938938 -0.38138690142218834 -0.5482586956784945 -0.16922975296552148
Ni 2.8032259341779966 8.44778563405551 8.083752442621503 2.4420296688242846 0.37962980952176556 0.15271427180900152
Ni 5.687204394917495 7.924925778804577 3.8302114958056435 -1.082454999726652 0.44253236258325723 -0.8048931006119299
Ni 3.268618851528438 8.651844280541416 3.572165084466836 -0.5683662650616469 -0.36211699744898285 1.017146408326829
Ni 3.442468181895444 4.445087688971941 9.625882458468388 0.5679003811688219 0.37147658428701186 -1.240163125205819
Ni 7.164381648058431 5.848882541226945 11.668784727958766 1.4354286401134697 1.0896378906283364 -0.832116197993941
Ni 1.0118207764613254 -0.17987843935599493 0.004958664283328675 -0.5658429844191609 -0.15018790584272199 0.8032879609083391
Ni 4.77610563263306 0.16333164174840742 1.6844936955991343 -0.5788622794969643 0.21568495910426724 -0.4342330986889425
Ni 5.950014512950685 5.719627481789379 0.518598118797247 0.9191513824375782 -0.6330233389204002 -1.1537835720683096
Ni 7.941533614535807 9.005683194310453 11.378964784705635 0.2751100951401198 0.41478141772223404 1.6225990367178118
Ni 0.11173256286847856 5.084721673900821 5.709616318495332 -0.2658345833754648 -0.12463499707428213 0.45122243415808744
Ni 8.263796687029778 9.129754568322308 2.398030271990059 -0.9981402995379712 0.09448444163283082 0.158165781841876
P 8.43811063594988 1.8133971025631814 3.698928513036332 0.04261372090546854 -0.5413748240744676 -0.02781959331542951
P 1.7353502958108813 3.2937811347372454 1.544490460299964 -0.480603715533682 -0.21137270488215856 1.0357912771215259
P 4.865831674386697 1.0202385714232869 8.490255413875502 -0.4062515258743519 -0.15656012791765295 -0.8931906967077585
P 8.740905280052386 1.4999800029134358 12.644327905591057 0.9624667573957619 0.7289236870641511 -0.8836138516526008
P 6.460867167162802 7.925107982158733 1.5988116572909687 0.47933461901327123 -1.3695852592560993 0.3504832698647964
P 1.7791155414789155 3.488064571272736 6.174960951956923 -0.18720819182081305 -1.7319624523450043 -1.424361840776347
P 6.866798019884755 3.908580802494798 6.070984785874823 -0.8635150240201968 1.0747136652183362 0.09495521062166228
P 2.3650997487768524 8.40744581144559 10.395288049343865 -0.5930187735030045 1.1027353472422428 -0.2419109826803318
