# total energy = -381160.7462498122 ev
CRYSTAL
PRIMVEC
9.30695196499728 0.00000000000000 0.00000000000000
0.00000000000000 9.30695196499728 0.00000000000000
0.00000000000000 0.00000000000000 13.62166496190361
PRIMCOORD
 96 1
Ni 1.6590199961153993 3.7463738339035557 9.196938954376387 -0.8866140719315054 0.8448475295176804 1.0411697678246197
Ni 8.15744085683057 2.583954170751566 1.5381040786173557 -0.24616410152973087 0.5792872828495249 0.3861593831101672
Ni 6.274914413769704 3.925123149749263 2.5913857717461926 -1.8759763681665305 -1.5454245471183385 0.14052801415545477
Ni 5.864971108810011 8.857844819825704 3.265766566875233 -1.860147371554074 -0.10436030598564609 1.5426271868788595
Ni 4.413719504183707 7.626386188385498 8.534899177304798 -0.07393335695435656 -0.550958868218477 -0.34826235095407765
Ni 2.2820738828846827 9.248262139955433 0.45524396204328094 1.3194824290624372 1.3732791631679186 3.2099623901617815
Ni 1.430729775956108 5.648537945215722 11.631443954869324 -2.3325862918887763 0.06558318521744834 0.07454065152105227
Ni 3.87021213425985 8.454658361856742 1.8360093673799118 0.43618148066456486 -0.5543000167765679 0.6782819536478835
Ni 8.554959381166812 3.4963425743911682 5.936784479423208 -0.3418399923675016 0.9307128620229325 -0.40370844773752407
Ni 7.82470802382006 0.45655345015842674 2.182163755549284 0.7605374573146902 0.23512892676149183 0.05581839252120064
Ni 5.057862943681636 8.644455029462778 12.687517733531523 -0.7850156449617125 -0.3063325434895111 -1.311989977340134
Ni 5.927243923155717 9.318492398071214 7.719261190872008 -0.17349855554420446 0.7572189344644185 0.14217043485488418
Ni 5.142062936415996 4.620436210121904 9.692590908953632 -0.13337546227107352 0.4749568016605498 -0.7131481693974492
Ni 4.161463883196409 4.184545123605518 1.436785809477966 -0.7849092012908353 0.3128132661178484 -0.7087472121162762
Ni 6.500375320588524 6.669175504983691 9.14810537839792 -0.3171617728945312 -1.6493907029893593 -0.5628322226172953
Ni 2.9245048432554848 5.47748547849031 5.45405988086542 0.21054892342928255 1.0448523588825296 -0.3532631466027787
Ni 7.6506773325257305 1.8207375902076104 4.429193242209588 0.7396184477738359 0.08068301697336427 -2.63616724077508
Ni 2.5513705325772547 6.071250388014647 2.7163911638554303 0.10398286804156931 0.08889769157367271 0.07133834253367069
Ni 1.2090102637519904 4.239083861023817 6.872851629776058 1.5567093760035384 0.3917008817536867 -0.07101824019009059
Ni 5.73636764914345 2.7136930785350266 0.24778735343874414 1.2782704736005017 0.03260955850490513 1.2992542749410203
Ni 1.3117683183314162 1.6411413417501173 7.629712492950909 -0.22227341095506237 0.2387881207806339 0.5104123142546823
Ni 4.2808534606028825 0.8289990464050948 6.025597928153856 -0.8530092393928665 -1.4950779763449864 0.8646499089555882
Ni 1.5773142664575077 3.486858790529522 1.3604967257547929 1.278962357461204 0.3709780473840385 -1.1308495889799557
Ni 1.6813939081893907 8.765603620755266 8.887768531181901 -0.7794484352865801 0.8189423796161444 -0.8595678664469907
P 2.937869626008501 4.67441653043353 13.315517334475564 -0.9824750821968886 -0.48704458606301926 -0.6771982336654014
Ni 5.378887631355591 2.469441436076694 8.276755047927644 -1.6404136963017297 -0.3720656240212624 1.1837641775908
P 3.968121266963007 2.1533680467485645 4.579562869999046 -0.34342790567991177 1.660694815148269 -2.763159168117312
Ni 2.0018694857084514 9.13811436566438 6.178923443827965 0.43939021740984974 -0.16691987388542223 0.6198256092832035
P 8.001968227381308 4.331678724261812 3.656422144970475 2.2065788399469994 -0.19651841347814542 0.7735883769613775
P 4.80647286920968 0.8013573996248308 0.6130619433405659 -0.17870478233549222 -0.08537965111808521 0.6591118084773359
P 8.711446468359862 0.7168754062516018 9.390911651245151 0.5609275493954146 0.042134210165888725 -0.48896597145544823
Ni 1.4225303514398075 6.4979555131262785 9.23839025620465 -1.5350234063896724 -1.1012659617855678 1.8877715610292456
Ni 2.4247029188804894 7.5334841957388345 12.727497606283704 -2.121886444703926 0.38863946921954357 -1.9159223124318487
Ni 2.930070400418649 0.07283806600394005 3.987415508693702 1.6807424778277633 -0.013977288115698509 -0.5996275370687737
Ni 5.999456562000184 6.714342141961678 4.8411533636195445 -0.5160530574802273 1.1872976446653551 -0.12091821034432723
Ni 8.6597091234267 7.751862512254697 9.27429647616366 0.4677505137200976 0.24248845245035658 -1.3665040492276144
Ni 0.7781570302329648 1.581483780853992 13.468298393470668 -1.3605375472315342 1.5423135122931824 0.883648304434962
Ni 1.019753399349072 7.171639217567156 4.674846511605667 1.427385200983703 -0.4356412918903788 0.2661940235974125
Ni 2.0069696952827223 6.898796619247218 7.1911223904189425 -0.04394580945333077 0.3958131041498474 -1.8027035276143084
Ni 6.0859832926790105 2.032396287539854 6.038851958180715 1.8643711798274343 0.9272002208839838 0.20600835524645167
Ni 0.7822371978923816 3.3755011125073473 3.436909311032889 -5.491706145477393 -0.9832237874374551 0.4271975319983997
Ni 5.031505656246718 6.0517523240400175 2.5538713105199675 0.4723193640377027 0.9261882346797016 0.2990252111948205
Ni 8.603550976399053 0.8623225872457464 11.60729334570094 1.0435552373376609 0.7616412319018302 -0.35510482779720776
Ni 3.096953352747576 7.851893629963209 10.348433186836338 1.6966306098129296 -1.0465634280363654 0.8911407561572653
Ni 4.244686645994093 0.482169904231827 10.554583099411262 -0.048421842946813384 0.924083272521557 -0.45389843832835375
Ni 8.924687347494341 4.010830868671637 11.263318645637943 -2.3480702464569885 1.1449991410074603 -1.3057967040452285
Ni 8.367796580913913 6.102754419782726 5.344064740583525 0.0982433944546308 -3.000193282321317 -0.3906156191093079
Ni 1.7286080745585084 2.2238775134176825 5.2673205469184134 0.5636955990588549 -0.015278266315309172 0.6718315700368495
Ni 4.099656416439596 7.848152235348506 6.137172458152455 0.1452002228201435 -1.1503287807504898 -0.22078962732068427
Ni 5.382759323295183 3.175839076016774 11.616147048927223 -0.3805255818631576 2.1713326151501957 0.5535356278067176
Ni 8.64034135677696 5.538790369851118 7.623174359326957 -0.4103879166402287 0.18800291980796655 0.9208120579694529
Ni 9.00938060867293 4.22393214352945 0.16410017374734492 -0.5687280192764399 -2.3824458957233805 -1.164187283900137
Ni 8.582731325271967 1.249895702912159 6.345624910597223 -0.14629679831843193 0.1566488309767173 0.274446750524508
Ni 3.389284708090368 3.046425911545538 10.416636390854903 1.651169135046021 -0.7308625559580768 -0.7595187862421887
Ni 7.29050760567407 7.547044424479186 7.135464026701766 -0.43055796383020045 -0.6981339553768041 -0.852562638773751
Ni 8.85249332255343 3.359446620690527 8.643463839098434 -0.8397176644902828 -1.2562875415715073 -0.3882373486851185
P 8.461973625954146 7.79094240276996 0.8816857004195979 -2.1226606038657896 -0.39576708140326033 1.3494933736022308
Ni 5.347560431671292 5.548255539809209 7.233348961330301 0.680046501747474 0.07946585673681153 -0.04233295644025613
P 3.084333126136789 2.9237975149203668 7.852862483643284 0.13406477502861427 -0.2838690722796724 0.6181124832468387
Ni 6.294849904477894 1.1777575196819143 11.266110731171304 0.5776893422347857 -1.2834257925491963 -0.2463728751064273
P 3.8762895737707965 7.354148541931122 3.976354196505708 -0.11218751533954872 -0.6929832644138001 -0.10584228984781126
P 6.25512783428996 8.903997993692144 5.475296483432156 -0.0773395544224281 0.5899722733671968 0.8254925220298363
P 7.602746530869718 2.933914171502908 12.643642901460304 -0.029249383783420593 -1.2824827119096365 -0.06777042267675426
Ni 3.9337506940473452 6.682140088810259 0.008651742372704847 3.9865790124265215 -2.7141143468745192 2.8819004254149787
Ni 7.5563048414981635 7.608051493383102 2.7580192977674725 2.3324726491290475 -2.1555797231913134 2.467465078178254
Ni 7.133229427579901 0.30835792630427816 13.343346981681742 0.5969993554173073 0.21641643795365306 1.452936567090246
Ni 3.541025249876706 5.702983613116242 11.27244504255132 -0.0008242956735082579 -1.4010355073455807 -0.51493051384001
Ni 7.414662342390811 5.493028087959348 1.7339428193175814 -0.44523124957165905 1.207384131002585 -2.9153090827824117
Ni 3.1875844491604415 5.3569976807740485 8.605690644612785 1.5802714795941946 -0.4213927523911646 -0.9802413077703633
Ni 2.325481505976653 0.6123546150054481 12.029659569893727 -0.406675500785648 -0.4887399714875712 -2.4273216731901486
Ni 0.11682644288684904 5.730094763645167 2.575625379605553 1.279488662278319 -0.3546911372985569 1.5278050342643623
Ni 3.5217784736000777 1.9477588680719344 2.2835360050089855 -1.4507066493184628 -0.8771768377780054 -0.8391710479581934
Ni 6.899522561485891 3.2204566028398665 10.094035105549775 1.753110290067213 -0.42771638061634726 -1.3122172628595916
Ni 2.7040417695413796 3.8255853004849794 3.6672517140592 4.540474337565503 0.8755051065025374 0.38867752154633056
Ni 0.9117657685656629 8.076721664061134 2.5060726675791996 -0.2039350176571907 -1.184123874923064 -1.4996406560150046
Ni 5.660413615684279 1.7886472204775261 3.034471131986868 0.4963740909940613 0.03735401516842599 0.009208148861829303
Ni 0.39641658124574136 8.519183458532693 13.167136602281035 -0.8380744724599051 0.9632383454544637 -1.2259572660190823
Ni 1.5406448764527132 3.3033070875664357 11.707003373573114 2.1984387273383685 -0.8284755159175603 2.350865292703622
Ni 1.0911749472924208 8.114489274375716 11.077014877034141 -2.9782332331104575 0.41894634773320105 -1.540105191787954
Ni 0.3975994948167082 6.162179306884405 0.2407401295525435 1.5439140240110831 2.280328363025325 -0.0014855834065909898
Ni 5.648044676771495 6.075326832893354 11.563744256941947 2.224576047855369 1.1500804121851096 -0.9587103756771229
Ni 7.752755979625373 7.779839209298965 11.37340871682797 -0.7592148818485247 0.7055382182606753 1.6610663395550747
Ni 0.044960022648518255 8.752015471159583 7.234411815223333 0.04706687158081572 -1.5340898388318096 0.9033295849139733
Ni 0.7592434428299841 0.2580780500195313 4.267449588652399 -2.4352028757104387 1.411461073554279 -0.06786606771435408
Ni 4.261569456519142 3.6543187738686767 6.241378674428517 -0.37894383919833446 -0.1951935240191348 -0.5381745719696152
Ni 1.2717391187348117 1.557546300881319 10.186907315950751 -0.0905812499236827 -0.2727901887576915 -0.7995955996584165
Ni 3.725842698281582 2.1683708530144856 12.69838825320807 -0.767237237932369 0.369267492450835 1.572518575121653
Ni 6.401433116238023 4.492828594295573 5.012091354838088 -0.43469898258176753 -0.9972774373170437 1.1640206764152856
P 1.1485616119547466 0.8387099198901209 2.1238221976345493 -0.038375514454404874 1.9754078693919916 -0.24310551720906518
Ni 8.315565967536525 8.212091277670202 5.15152252220302 -0.6144350343952515 2.6718089012380886 -0.906022044144472
P 6.964708451738069 3.6019392492628435 7.5404765086095455 0.22041810291387845 1.3662662221851956 -0.6966038918855229
Ni 3.5429797097500577 0.6095783512901104 8.189426988700742 -0.16918990086652153 0.7961120119851902 0.5753853766919574
P 5.92326054779479 8.29835741369925 10.208484552952559 -1.6353244547042802 2.204191056441114 1.1913386475039485
P 8.04593426757995 5.903315750134822 10.35928974608522 1.2325999681465805 -1.701287906079283 0.5250169515417346
P 5.959669343149804 5.6456900179716945 -0.08123665928828692 -0.13238481622303008 -0.1743202801145514 2.0668897767530727
Ni 6.100520751356037 7.758005100428089 1.070713613808781 -0.25329788436103473 -0.6249924981961237 -1.4122948823094839
