# total energy = -340897.34233642684 ev
CRYSTAL
PRIMVEC
9.00421497520321 0.00000000000000 0.00000000000000

0.00000000000000 9.00421497520321 0.00000000000000

0.00000000000000 0.00000000000000 13.17857877621333

PRIMCOORD
 96 1
Ni 6.2294129299381416 2.066926508969983 11.37606542984442 0.30516809086776475 -0.08171685755451732 0.20692006842744362
Ni 4.546318088982553 0.10163327358494142 6.109615453859875 0.08048067115457107 0.9775071966686522 -1.3230498346987216
Ni 2.65285777791764 1.5563965346632316 4.75848170078519 0.4319029078938691 -0.5606287872080732 0.18673125218439451
Ni 3.2622630348195423 4.2696996064576815 4.869735077450421 -0.00012521272395462306 0.14961686383060038 -0.18782731346205073
Ni 5.14511638086332 4.66557891385941 2.62100806936691 -0.09907026123130035 -0.6875122139968998 -0.136345600642991
Ni 7.2320052340199386 6.066823823497868 2.55491803323904 0.3427231663034033 0.25615617974543625 -0.4088038599825605
Ni 4.927268408264552 4.557753441764252 11.365825836786664 0.8774354907560309 0.08994284500873542 0.36594254184266006
Ni 5.661246976768667 7.778768168636578 12.39155357034665 -0.868830008475207 0.15943873501702863 -0.00969537291089298
Ni 1.781006672568343 6.354310393272749 0.46054937885741504 1.034328062312438 1.4287383725774878 0.06636942856416957
Ni 2.8557227371079454 1.5660850697759154 0.3843530120506632 -1.0672464103070136 0.03835160319500492 0.8912842237136649
Ni 0.3322780362414661 0.003381082653171751 4.807861715108117 0.9611151284638737 0.24098564265258496 0.035016882394817116
Ni 8.491217659580816 2.2178281446144714 1.396402442925074 1.2537388070077249 1.4203180097242765 -0.3014500185862292
Ni 6.719053125935016 0.9908868248564359 4.79959854719649 -0.5813536784602503 -0.9836801582485833 0.15608884470818923
Ni 1.0230768927261802 7.328845564072833 2.721930009983541 -0.6054048058721833 -0.051569644547175705 -0.4971791033938599
Ni 7.522166055587074 3.9811865561968847 3.842451415574941 0.7010387877284249 -0.9333770391186571 -0.9775401067891164
Ni 7.61871825076673 3.7561262075523363 12.566934064315806 0.45591341187585355 0.22118686275910296 -0.47119193530147885
Ni 7.800225212478145 8.903043431373403 6.792884985938245 0.13440107532211046 0.35331148334221085 0.5651685840599557
Ni 6.785900416526619 0.6166356413772597 0.3698544253978346 0.06285113099826595 0.4692551232900821 -0.248473723499514
Ni 1.9237144727550783 6.400366951917152 9.093021558358064 -0.19513284598452846 0.11280355165699282 -0.14714860479576594
Ni 9.135946451098944 4.918804446363136 1.3098350215246517 -0.9552643261100516 -1.2718866815613452 0.2092068075790913
Ni 6.2620442043325335 2.067484770286885 6.986148750899317 1.0665506697915696 0.012751643238713525 -0.5629085843811853
Ni 3.323122522576633 4.301727598461229 0.3059046911252476 0.4375680765994464 -0.2869780502222993 0.3827272175001667
Ni 5.971235079300608 5.661994326596132 4.807585285714103 -0.6688817433799061 0.3089704953329904 -0.44476562278915016
Ni 5.431477423789607 2.9806832299460746 9.062974493608039 -0.7262811072349814 -0.2557352901579338 0.5018896214956517
P 0.11884032804622295 5.677391533884878 12.375620612277974 0.1336945361733891 -1.4593928642385512 0.14585893945006492
P 4.057839436693426 6.165843173529638 12.63484385225248 -0.5639182565926223 0.1304955696201172 -0.4979010691615489
P 2.4797967696780634 8.387507113644114 1.4447937944641978 -0.8700137443706629 0.4488955857971237 -0.9184600127975087
P 6.420185228667169 7.7928957816401105 5.5060098117034 -0.5516216986134564 -0.09258671038948571 1.2006730375309966
P 4.735262532109466 0.9320442812120221 12.727199182919106 0.5413041187375323 0.3983631242652107 -1.6193530189766885
P 4.024622888337765 6.128520703230313 8.242476226041884 -0.2644888679808477 0.2856750151401596 -0.4211166159116425
P 4.670252101334766 1.2233126211981733 3.8380897739312756 0.3242760153418093 -0.13213490499575306 0.07779926766766601
P 0.35365674341437076 5.396577087268453 3.4895159097651485 -0.9857964332606378 0.3313326650782746 0.21037434552463125
Ni 1.4035139717652207 1.0421388154339422 2.5992637910735827 0.40293351724471255 0.6787686634763149 -0.371642934661547
Ni 1.767617405177487 6.431458505582671 4.861340448002879 1.3984091254663271 0.20274279712130244 -0.35257460517618633
Ni 5.979527961121038 5.533657253212225 9.212208548673654 -0.5788324547002934 1.2486037997740047 -0.25374808452457587
Ni 8.68945445236971 2.3130297075758155 10.199481982135369 -0.5369018759047786 0.5362737554024765 0.5089573269757105
Ni 2.481102380822431 4.963510372789229 7.087505595090244 -0.6396148760949888 0.21375303218887703 0.0536398968126431
Ni 0.35075558540943885 -0.07499970666132832 9.287102005600474 0.5632909074212685 0.4400036826241326 -0.6138115418786396
Ni 1.4538745450786417 1.1653795032474223 11.409472867553601 0.6310163357927003 -0.35572240677654865 -0.83701286396461
Ni 4.117285262728685 6.787953377498452 1.6784369606453726 0.26981028019376113 0.3366957291624008 -1.0440900267952082
Ni 5.758267391117337 7.808644153305616 7.789528205309122 -0.9090441188002474 0.05776163229050051 0.6995336639378082
Ni 5.327235629180368 3.1719957815624267 4.864239805164853 0.080932413980009 -0.7511871264480419 -0.3627579734670913
Ni 0.6327414803698784 7.413206052428536 6.782526537245279 0.4711572254088015 -0.4980622773297616 0.9606921819938422
Ni 5.219284098078168 4.606376201623447 7.112268086180757 -0.6047283486304488 -0.4249712137710423 -0.648719152389102
Ni 7.896984504597942 7.073702133819106 8.85829788640224 0.7782289610571823 0.6793775007049073 0.7947994638213538
Ni 4.532658695148035 0.3976828516239134 10.475203644867282 -0.40066940380088417 -0.21912123847932585 -0.3329324054652266
Ni 8.220767064186232 6.923899012378844 4.673954634455896 0.13367216757588593 0.05007891893426214 -0.08745221737639777
Ni 7.15040003538959 6.073261837071817 6.90992447102672 0.9474142339380135 -0.4144497454144282 -0.6927935170004973
Ni 2.3562589427765555 5.0686705973069195 2.586230190166882 -0.06660082784868529 0.13421209923975597 -0.2982145423680671
Ni 2.23512524122364 5.402835016546626 11.448178385244477 0.32887340490450456 -0.3910807316711845 -0.436873621635583
Ni 1.0327294109797092 3.351251689576656 3.889828892528853 -0.09831924199788875 -0.9879101371695309 -0.5428840616301425
Ni 3.6010646246754496 2.8207503668684804 2.6804565966666063 -0.1278229078839605 -0.5399216365677089 -0.0016509053398616727
Ni 1.0749591783388983 3.1951186051399105 8.176978667247111 -0.6610082541691004 1.027114061062502 0.43538880955994047
Ni 3.7924041889361684 2.6467979413648184 6.882195991584796 -0.3854962956048716 -0.2225855428788425 0.038693302805139815
Ni 3.9866431103588607 6.667503996269481 6.053619142510182 0.26700366398290143 0.24430236573064373 -0.3640934044490633
Ni 0.659549729060393 7.224243600872044 11.05537761887902 0.20135825806894997 0.7046815266873347 -0.15403350484105732
P 0.15703350591562007 5.489842744050219 7.911021175032107 0.9531488224289457 0.42033988564661806 0.020291660369500537
P 8.43990263949979 1.5842105541456484 8.11994146866784 0.2820836982444755 -0.007494765715148383 -0.8668764842932618
P 1.8065966509979412 3.4227631634288267 10.428947192654569 -0.03355932401268413 -0.7814430971191058 -0.6154763311755723
P 3.907108881129923 6.092188696557748 3.741939166731198 0.1869207424873813 0.24172277792892566 1.3399916047593825
P 6.9031262888612215 3.961899528119404 10.292048011428049 0.42417571445294044 -0.3059857016730537 1.8780047114504688
P 6.25713690727267 7.753412299791488 10.18499870264768 0.02031994250427468 0.24961426486186045 -0.14410261888059053
P 2.429283124713234 8.377827582746217 5.694042127872215 -1.1111323130566864 0.755138654896622 1.0396407327746031
P 6.890340303861211 3.9328519312109296 1.5263170547399678 0.6624544996973236 -0.21381319600285112 0.4884453230652879
Ni 5.258452432409186 2.801292258710014 0.6366898285547408 -0.33590151539587954 0.23347390765657214 -0.5307420269509698
Ni 1.5219824257406687 1.079362239370592 7.111925025597306 -0.6005785881281335 -0.48606396731730483 -0.7580974804146299
Ni 6.7233391321744564 0.7533538378865253 9.209138111430693 0.12129179163366209 -0.5121020432522794 0.27358543096547727
Ni 2.8714531003438735 1.8828533460437775 9.12808937327429 0.3544219427975702 -1.1500912108183872 0.44738377713828753
Ni 6.502933962575686 1.7447196869697221 2.523539245121761 -0.8363366638331918 0.8523970597301641 0.6785038398507024
Ni 4.118491827510376 6.896787321649949 10.3780643748834 -0.02837520870858339 0.11704098677710813 0.11914054961861416
Ni 8.04680563446778 7.314195706611554 0.13314352323813594 -0.539991827684012 -0.6481136575946193 1.0769500107480228
Ni 7.639409936351254 3.7801674610382707 8.235623118166172 0.42547489288033824 -0.05730243326589486 -0.8344427892445888
Ni 3.0175915063651186 8.376927161267345 12.387652944500166 0.506166908714767 -0.8970743480328808 -0.18601031485796996
Ni 0.07574975775323033 4.858179068190553 10.061633756670117 -0.015150996708825517 -0.07756144062524706 0.4677155467171042
Ni 8.511405109137172 2.2933645024772087 5.8371875328976826 0.8285678185210503 0.41571267128725176 0.22425161772735572
Ni 3.597120778597982 2.6353445801535416 11.545528353854415 -0.014462969502865413 -0.19235991122508161 -0.44794993405440275
Ni 1.147398086314309 3.31400125299564 12.528176322179155 -0.5049451204925238 0.4536420993431735 0.5912197726210529
Ni 3.000519515125668 8.334256187383506 7.924187137896203 0.7566070119120324 -0.23193638796612315 0.7550553511541964
Ni 5.487924846300217 7.841176381337332 3.5382107033426524 0.11622774684719338 0.3342159001633406 0.5008195283599246
Ni 3.045720673365141 8.374036808320158 3.5433899276891356 0.8910610519592654 -0.04630968169981702 0.956100705968418
Ni 3.5118958856225606 4.3000708229401 9.43678447056257 -0.2510828789875869 0.4979782022563875 -0.5485204339803135
Ni 7.226638722005849 6.086371973804222 11.285396588607727 0.03939547107848699 -0.5616963092406391 -0.06994403328930535
Ni 0.6920126246382362 -0.10517913336874711 0.15098987694941798 0.633190974846516 0.43267166773909355 0.6479074551210842
Ni 4.555025164683265 0.35550710955345677 1.6933551437073564 0.11380731033115883 -0.4125584419289863 0.332993083499833
Ni 6.092900029526059 5.518215024849536 0.23913213551639073 -0.594085524204622 0.6129918741908217 0.762626478633235
Ni 7.960536252576866 8.763910304457797 11.409736691046913 -0.7961081553304483 1.1223703478643507 -0.6034947333336639
Ni 0.22323429388539195 4.841071060091947 5.722125373376814 -0.48448119621121727 -0.8350683386437295 1.0036247196913102
Ni 8.268120229760214 8.795740203735994 2.265384805442679 -1.0211915249304802 -0.36867665294437146 0.2546538841682969
P 8.464988381901218 1.595294742550587 3.575980683116979 0.002091078201073818 0.28897476893735397 0.534259553185925
P 1.7424236121985934 3.180522772967363 1.5345000851399744 0.055330397141188585 -0.5633323021821653 0.28535079903152144
P 4.791403811317259 1.0707632142473456 8.153415537566458 -1.1745673415828803 -1.0028901555181309 0.440242538107816
P 8.524785372313238 1.672163724202058 12.47651644067172 -0.34433601931647795 -0.8029789143083526 -0.9841049044908277
P 6.331970936381886 7.772069032833755 1.521730307726584 0.2591216901316634 -0.2163015096423436 -0.5776008962860376
P 1.75638014512114 3.065241811027129 6.083179079240135 0.002936971141136877 0.20191464479305224 -0.44186978929859383
P 7.082553276956437 4.030043425640586 5.968551823293563 -1.0062798979259702 0.0009736767671789683 0.2632945905624304
P 2.320395155273005 8.447142028189935 10.145080317224762 0.45164820884159634 0.3537264593924424 0.10191904353400513
