# total energy = -340860.3884478705 ev
CRYSTAL
PRIMVEC
9.32782970124250 0.00000000000000 0.00000000000000
0.00000000000000 9.32782970124250 0.00000000000000
0.00000000000000 0.00000000000000 13.65222163924662
PRIMCOORD
 96 1
Ni 6.444000355708445 1.9824715672023214 10.483172490962286 -0.31513651493438627 -1.1635259961670543 -0.39181452451341553
Ni 9.21499065394021 8.290061745673505 2.772820418361276 -0.15228309780885388 1.313029988568874 -2.3315773910082878
Ni 9.321458498783352 4.618954565395706 3.4930165301215714 -1.5622691294795028 0.6535271153007067 0.5280125438349488
Ni 0.18253722643419584 6.788467767852509 7.8441569870851 0.11597140786201318 -0.5228050314920802 0.9237680552739833
Ni 3.6837463891232924 2.6170811130283473 12.15443595455153 0.5631320132459011 -0.441190246733066 -1.297643993031107
Ni 4.6384777123430245 4.307703553767361 4.38200811003475 -1.2764357343846082 1.94961199137481 -0.6173784332942917
Ni 9.253645178999784 3.401738122683597 6.369839448013913 -0.5264881367706222 0.059516410198078136 -0.16781641755776258
Ni 4.882782892322585 4.091978843088604 1.885057313580904 0.6658231590592404 0.6417566050283399 0.023068451783689305
Ni 5.017299520190373 9.288382015708725 3.385901333917636 -0.9346569342723452 0.9165450551629828 -0.4259250930438794
Ni 3.7174664924269507 3.633376110329446 9.045238150490245 -1.5401833533240572 0.15135467245731354 1.2232411526395
Ni 7.755259974494545 9.312531766041554 1.071417805177439 2.1587033564219595 2.4209175694360177 0.17458870328458964
Ni 8.595967911052059 1.6421736948028585 2.444157147580251 -0.04890109657607707 0.9672412959662696 0.05672779170934747
Ni 7.819090311121637 3.880209132078106 1.906806080624558 -0.3866327232021599 -2.6508559531355056 -0.029199761492407775
Ni 7.361215149056166 2.345212197153265 7.322164191246826 -0.30473948797077843 -1.3497684816404882 1.3141103661172466
Ni 8.519927445732163 8.637019688269044 6.980011946361397 -1.0927242428631438 -1.0877381025024622 -0.6859872927119411
Ni 4.916447028649806 6.756240117253855 1.2992080631932026 -1.2930229493193282 0.9415598320397656 -1.225466699535909
Ni 4.257333274973514 9.154536991558189 11.780856386830505 -0.42709108832752246 0.4384587067345158 1.1129415983512831
Ni 9.337716905438478 0.6990508552792271 4.41900601259177 -0.4670581156387633 0.7421283586798831 2.047823504150241
Ni 8.26343079271861 6.96931572438123 4.407004827277666 -1.7514485860940738 -0.6524135705215538 0.1620790008533531
Ni 6.142590204103712 1.790971229491643 1.6303478726815919 -0.29562364171243927 -0.22485171320519987 0.05231706423616151
Ni 2.210098588203475 5.55660663297256 1.2325168812872096 0.6017368701022926 -0.11843632446273795 -0.4884309248875846
Ni 1.2083456769467475 6.709778198981234 10.577113060912808 -0.026823547950747352 1.6043313487568756 0.21695225585246508
Ni 4.816471353073427 5.742314388621947 8.758664844339123 0.1611598314731934 0.6901560793776501 -0.2969860692776046
Ni 6.873836062578673 8.773681716900274 11.392082717789608 -1.8251328031521017 -0.36160586214051915 0.45547992388286074
P 4.759067890907255 2.682338607554597 0.2078193752569442 0.7264338307627618 0.30947031778754447 1.0475234779567897
P 6.532073720962425 2.7354605960232923 3.632787524293911 0.13501505475702552 -0.08387812687189425 -0.8017645822852771
P 2.499009448403809 7.7627595493371855 1.6193988665245147 0.5162667161529302 0.8611966602996651 -0.6877508123702671
P 5.764234787726676 3.851199582624613 8.186718723681464 0.9759830467146418 -0.2717663754788674 -0.5428074427559362
P 8.919858131525897 1.4946167614251076 0.019542735389071735 2.4215392621804166 1.1732241972914244 1.3103755816651625
P 9.234691029646248 1.8165854490412543 10.409313804940517 0.6840363396331575 2.4288368242830947 1.63885432223441
P 1.016677438306756 2.5267504130580494 3.5584102109571534 -0.21208824289194442 -0.08363258651999146 -0.7351673539810178
P 3.62689326889209 5.144195311433241 11.118505876350238 -0.5443511330939722 -0.30461684634998504 -0.3617043353915964
Ni 5.9242163898735765 9.136394363363 7.3075838611018895 2.733249525042073 1.0755634148131412 -0.43059498771572285
Ni 6.510199961004727 5.42122251696999 2.9307498980387967 -0.10786034871910456 0.5004217787008737 2.830389916240513
Ni 4.756521393479344 6.908516932311177 3.5261098032891285 -1.5896632052217394 -0.7479534500020925 2.1211187132999663
Ni 0.8459884207844017 3.32340301132976 1.2335037656383925 -1.268795187120215 -0.5858361397116363 0.10170101398592807
Ni 1.9504118175329788 0.6825191432224986 12.67550063136388 0.839336112781148 3.0708901346162465 0.8108529177397907
Ni 1.198980536222855 0.06150024484140507 8.35529592062624 -0.2639083128870294 -0.2826773659644164 -1.5422309798817053
Ni 2.191144438849939 0.09798698234696233 3.682468476494634 0.8664771919723141 -0.20686247571663083 -2.03855570569507
Ni 1.203970924955208 0.5176311028079021 1.2993433167195934 -0.7760826041381408 -0.38205770223696783 0.3829323915324373
Ni 1.5531302352906253 6.6271895974181385 3.1616631133397792 0.0005293901409087657 0.4764518981488375 1.5502854747550654
Ni 2.3962354240055497 6.010815958081366 7.469908613995643 1.6009202661927975 0.542599183399872 1.2063155805287549
Ni 8.11594848197611 0.5628095117542197 9.366324425444558 -1.7169428390077204 -1.047454572392067 -2.325831489663446
Ni 1.9669127477526667 2.5327482073662795 10.572839982261797 1.4881622230617597 -0.9001375603392368 -3.056356973997078
Ni 6.176226356942713 5.817207530924871 5.243149589689634 0.35617260694008984 1.2036161793197206 0.7204966393427205
Ni 2.0876428437579913 2.772286866519238 5.540276402031007 0.034799624177688455 1.043097323864636 -1.5682389739096927
Ni 0.4801947922687868 7.359200337904412 0.1908305995593086 1.007738741859684 -1.598605244906376 2.8049408800397884
Ni 9.020943818801621 4.946025575697082 0.15917008098855429 0.6962328816993494 0.676025553513539 -0.3203813082730934
Ni 2.41860355892178 4.433022941840568 12.90248216657012 -0.024494899817570717 0.4844793964390043 -0.5376269269962611
Ni 9.054906445669841 8.773980207441275 12.398223439999045 -2.811003798404417 2.421592226905539 2.2052022713144472
Ni 1.2083550047761538 4.849174722971802 9.40714487249227 1.551738148041192 -0.9246347741496527 -0.9518612139657736
Ni 6.7604749518043 7.882668796354758 2.5760647815631064 0.11912769410280773 -0.589928821723771 0.43360317841442747
Ni 2.969803654196959 2.94983277143814 1.4298928187408961 0.44496848282857554 -0.3893215828882327 -0.02231820388122608
Ni 5.320230107988327 8.917153060998078 9.663492280235321 -0.4000500250493304 0.4399283493015068 -1.2759094295674929
Ni 2.190137033274062 4.373352817128674 3.3530263319581852 2.4501309577751806 -1.0634391207457816 0.25677453005572554
Ni 2.1035374650662715 0.45509080498769816 5.951399550329322 -3.4992590612149286 0.369685296714544 0.9727568264678602
P 5.95054885228747 8.207417177133973 4.983511323732049 0.3760359215229201 -0.8226956760109897 -0.07017029036749851
P 0.6911576460356432 7.993847195048064 4.701674689353429 2.339806206675983 0.646495662375222 1.6729006131858413
P 1.7298739468805886 3.9598501395488204 7.475014667812635 -0.2407259612332951 0.11671548511688931 0.1139767460294876
P 7.002354896138231 7.353622295919465 7.944909670851021 -0.3555843385367876 -1.2830974626754998 0.8441443328030687
P 8.965918953134047 4.824754465586193 10.866799063736803 1.1341704258230725 -2.513530762188065 -1.1913291344222516
P 8.20779961813963 5.215655812514659 5.540017088373514 0.160949001013968 -1.5934116165205783 0.09901472540301656
P 9.191643096936323 1.1655682512896033 6.704564875126071 0.7953489085669206 2.4984101044965423 -0.11244282588346441
P 8.453224137647942 6.394171091020162 1.9807459187621619 0.3272332981979203 -0.7375178564910654 -0.022871505281534803
Ni 4.9150291985800525 7.022344434555863 10.925490699143982 0.32167740137669765 -1.4780783564631963 0.9547879006942654
Ni 5.07756662598427 1.6846712855778145 8.267198303015801 -0.35683620866601773 1.2690859788877562 0.20643490126090897
Ni 0.9648520181255321 9.303828901205506 10.598027920007544 1.7389231999335533 0.6630594802711742 -1.8819264151023782
Ni 7.094178048813531 7.655004464035979 13.628807595033274 0.6543696658066601 -1.0612169162834821 -1.2582554639311556
Ni 8.331953027537054 6.309203892958468 11.964847821869137 -0.7456404855981997 2.5311093945017764 1.8815911432501466
Ni 2.4684048401218437 2.0260045470413734 7.886506265372497 0.3444090386462585 -0.5663579763823665 0.2098048461744064
Ni 7.139996346857119 5.949504135393968 9.99543241748677 -0.5251509060164375 0.7277432936028048 -1.1329221552382682
Ni 5.5414675658461885 4.018764710078808 10.433382403157509 0.026899909714637543 1.4103462432235452 0.6760394374706099
Ni 6.57150245586272 0.9674917938475058 5.217196769932574 0.339081455785758 0.42617706115368537 -0.4777500481349708
Ni 7.204321058442742 1.4228857532909078 12.610611586099179 -0.8636471787226868 -0.44409662174658354 0.1909853994750582
Ni 3.3331412652299037 6.9408285333744875 12.972654494410532 -0.23162631292487207 -0.1869899051624199 -0.039444064928235295
Ni 7.769522225656729 5.107872743725235 7.669886083070738 -1.2051408434943631 0.22302160197499657 -0.1621805594282239
Ni 0.7292497029820192 2.9795419080971026 12.244909370311746 -2.885764022135443 -0.012700735396120062 2.043004999715675
Ni 1.1052638341780818 5.512541966857351 5.622531067301359 -0.46628087115310657 0.0718852161760762 -0.7718251144133675
Ni 4.998392009983868 7.211662060185475 6.8134001230725225 -0.5302638017629706 -1.7704840054589703 -0.04310351605769351
Ni 6.765120210848621 5.508391082771562 0.811937179536821 0.9599943845958693 -1.560423591630332 -0.6364537047581877
Ni 6.416334013689454 3.588061515073797 12.644632978292659 -0.43713793104056325 0.9167121768684664 0.6058303234453759
Ni 3.4069337236628887 8.165152782094172 5.3796036077251035 0.9043968498362231 -1.8244923413546257 -1.464041675864472
Ni 3.687822650573832 9.179069182896674 7.537145473921903 -0.6778497512064713 -0.4343698813771229 1.3790091236731605
Ni 4.001275029942056 3.976584265503665 6.6550480927228985 0.2032243647434113 0.09171047843211946 0.3657275976183766
Ni 8.760762673172593 3.418546871273692 9.055040766413294 -0.5596594813162684 -0.5544200872942 0.32629998775037355
Ni 6.42664126518338 3.476883116380491 5.614366418222053 0.5655827887792388 0.5127957268851943 0.3319736410963831
Ni 4.315818765350813 2.2901313645092536 3.5605537461547137 -0.6600543748962632 -1.575861523451957 0.16463596294725194
Ni 3.5365998802394176 0.6624353937278633 1.3158582386833906 1.8454720289300863 -0.9866721509973717 -0.2481312525584307
P 5.675424523949601 8.973222643559154 0.7958438754621872 -2.058172451484733 0.5550433227004957 0.9397999119258653
P 6.089449559976204 6.12752575961259 12.708524878593831 -2.3475912499380405 -0.7175604395325319 -3.908223615145069
P 8.562667560071683 8.103439862742304 10.473874510610118 -0.2481523356043533 -2.6112995309991223 -1.7873566128445926
P 2.554808523912103 7.694806312112524 8.841574323233793 -0.26853861257018913 0.054488360855867446 0.3086586205195265
P 4.009306291060852 1.3640084940785453 10.286635125372223 0.3490002575613667 0.6912210303070547 -0.7326029356879512
P 1.679811486457149 8.11182558137854 12.167528495906168 2.958872312085343 -2.961050036462952 0.5490261699721384
P 3.893837090840663 1.5652564135187739 5.78885559344452 1.556153246389752 0.18968544971671203 0.27048262367043735
P 3.319681207396659 5.946687130913276 5.538419231196219 1.2879812731303624 -0.4305975588188843 -1.721004924892236
