# total energy = -381163.4730876231 ev
CRYSTAL
PRIMVEC
9.24012239154629 0.00000000000000 0.00000000000000

0.00000000000000 9.24012239154629 0.00000000000000

0.00000000000000 0.00000000000000 13.52385312590944

PRIMCOORD
 96 1
Ni 2.341668808849805 5.09719346513148 3.559383898878993 2.6232191652548433 -0.8911847220213233 2.0506419474356425
Ni 3.576010575336804 6.808584276946852 7.42625874686755 0.5272823505371435 1.1122823675007294 1.8548110469428252
Ni 5.462575629837064 1.3771755803609822 8.281953228762985 -0.9839799488771893 -1.011398192989142 -0.33511141539441647
Ni 3.0500720417688627 8.281136401932446 0.7068351841278544 -0.6837722873384933 1.9848237633892527 -2.219057174919669
Ni 7.784673859195013 -0.04131351178755116 10.011032407113419 0.4074697145521692 0.06844430881532729 0.6550726054109557
Ni 0.7243636965433639 7.105635735636255 7.009318546539372 -0.5140635378540243 -3.007091552103047 -0.7540672762093142
Ni 2.9172083200911554 9.217234733925297 6.175112893570406 1.3555033272417365 -0.23444578465153817 1.030755000249199
Ni 2.3919812759570536 3.3356287880466198 5.345776785168109 -0.05713145490566936 0.9722305216507449 -3.3847421264112545
Ni 6.732436427280951 7.570783503162217 0.09781131690794721 -0.6784925269967927 -0.4489099839748269 0.14342564741822397
Ni 1.3713543031750195 1.3273898002372262 0.9992055967499431 -2.2261058542363337 -1.4347822647787225 -1.7927585005864544
Ni 4.041204543475353 4.917084997022301 1.6617168371740771 -1.192450135400572 -0.6770431961447758 -1.8107947892628753
Ni 0.3930997602210312 5.232210135355741 11.946458305473442 -2.380754624063887 -0.2541730878771365 -0.497685096496001
Ni 7.553218030256638 4.816395381950184 9.881447080904882 0.3499322824573328 0.4757469016620129 -0.22098451694030977
Ni 1.7221555545481446 7.490551519343626 5.105240687831884 0.5274057634888852 0.0005736131152828831 -1.7557482419106922
Ni 5.318170995135121 2.854440167830451 1.2087115146482323 -1.1173548969276306 -0.16928965966917942 -0.06561866644107409
Ni 5.495886271512293 4.123487834492808 10.740346961301604 -0.476154935733709 -1.6321823095308727 0.2436143385246837
Ni 6.909800579002462 2.797474812510674 13.049842587558073 -0.5428202982717425 2.5534085722196087 -1.0381644053393926
Ni 5.116727084133265 6.2070061004514665 3.052387616471723 0.2762730050999693 0.848491554028171 0.8414505880209896
Ni 3.196777466977637 4.462591090758903 8.140804813236176 0.23936353366812974 -0.07056881135749782 -0.20742606152958468
Ni 7.720990934805086 5.32045330539692 3.2738410127850117 -0.015877076241572655 -0.45860972776109404 -3.0743325846388925
Ni 3.3274327993736854 8.585700080228497 3.480688547435045 0.1013174053942642 -1.055944355030633 0.8686600585562461
Ni 1.8394681500290664 1.9579172805796285 6.779953757326686 0.5798917492027432 -0.6814850339662134 2.444900048393544
Ni 2.529455818770944 6.086302380006659 13.15781711522291 1.29253135439489 -1.0571556017299149 0.31923459626315986
Ni 8.850023024961267 8.15474076601692 4.141450632666635 -0.6433365479209501 1.6306633017831849 1.1823487853005121
P 3.632061158527358 1.1772008488393917 4.362646229561688 -0.05991724518092262 1.923024984914901 0.4583382192672622
Ni 2.333186376378831 0.037390155766662735 9.927549748193204 1.7380850203029745 -0.29474715264475687 2.593342175189753
P 0.7348022629512716 6.4297854543460025 3.136844184305271 -1.9006936684075524 2.4788707489120343 1.4887021547256296
Ni 7.866227180533594 5.397090881556243 0.9021482738394159 -0.05679386906059251 -0.8143678728715846 -0.6984910816059067
P 7.286335571586548 8.892998834789699 5.538599661861231 0.0348117083625465 0.304970630144978 1.302356310905112
P 2.439475505696494 6.789050657945066 9.2981634229817 0.027802624034565022 -0.20736409794339772 -0.21090784943059807
P 0.3775671142692803 3.8069859179042744 -0.029964793311679373 -0.5135441750154446 -0.31855453947699974 1.326248287031361
Ni 3.5569666828284414 8.206263689173946 11.89080781958789 -1.5634896321501655 -0.19208326052492725 0.25722987242558926
Ni 2.7076885420090897 4.956364757843772 10.609881975429413 1.4258003729950866 0.8438075182889404 -1.2315170194950469
Ni 6.5998683895238 0.8618179110877161 1.4310399505639189 1.0047171814245406 -0.20729879192310102 1.0068046600811886
Ni 6.430894269048091 1.9350110168589916 10.251824455843375 1.2419973502010804 1.3977154418334121 0.78051570020883
Ni 7.779194466542195 3.016188512497554 1.6741041454209047 1.0417302683137803 0.3221322295259291 0.579439492156673
Ni 0.6317841370047691 5.3941155621056405 9.407395531321155 -0.01510368841065786 1.6090827473989322 0.41456415950510533
Ni 4.219354105610842 6.982409461744197 5.2139054526487705 1.1274063676263615 0.9812165271994393 -1.4629538421169321
Ni 6.882228053410538 5.449038850349071 12.140674592642188 0.3237039448884232 0.2042664328546805 0.46940296172185614
Ni 8.930024005716923 6.072405235740488 5.090175592079514 1.262365372334471 -0.8352493443062841 1.1642567036854916
Ni 7.525359060866674 2.672890240608558 4.0451066472144515 -1.0040741485239029 -2.974711850220761 -0.8557294665375069
Ni 5.10529705257924 8.673490484266322 6.635018739592246 1.0659732000215447 1.155074008744959 -0.06651546722373061
Ni 6.734811138767923 6.926155595858261 4.544231269249147 -0.08711951662732739 0.5209438099136254 1.312855410664223
Ni 0.3373189886079855 6.768860990244545 0.17234491717005807 0.173933586199094 1.653471557926952 1.2731395801318397
Ni 0.09510765705935571 3.7006598280965424 4.091398737014378 2.8337781159864552 1.7202598191960954 0.30959501629086683
Ni 7.20723088271508 4.485173950191431 5.2051282602694915 -1.6856070050089162 -0.0008073263926437708 3.2537480198881643
Ni 5.477064141944348 1.9539809883872157 3.406469111338526 -1.2534205044363576 -0.06227134723539597 0.28706315373693786
Ni 6.4402637532807345 1.7194759190180984 6.08002648879284 0.9666036623822708 -0.43677694815671875 -0.43633677529550663
Ni 5.140049153367184 8.364482307039403 1.9968514608189492 0.26993806402087706 -1.2915041986819564 -0.5882879436862384
Ni 7.123820296750502 3.1878053080132407 8.127429735892237 0.42684400531372296 -1.4411123207618084 0.6894114879021417
Ni 8.94607409852965 2.5725055495795144 6.148592817933213 -1.280798639338994 -0.12534796398090672 -0.08635898431221901
Ni -0.35364905713298805 1.9252534474806162 12.597063648033904 2.5937224413473072 -0.5841132434832587 0.6717834904077334
Ni 7.838978059229778 7.552525021067834 2.221333769293442 -0.4895143877597504 -0.048298944215703916 -0.9199581946095899
Ni 6.218768776416118 6.671109734132961 7.004625488312785 -0.2288855169549413 -1.5361174107847995 -1.2381311823774548
Ni 5.653227077738596 8.941675800211367 4.136513635205588 -0.3102627317818527 0.6740110941866714 0.6910060860827713
Ni 7.769362976183681 7.019203629608488 8.68627604179365 1.113738897441598 0.13627078154099756 0.8070749387545972
P 0.8404806201705339 4.491558874850955 6.378430701418792 0.001475556104261975 0.19186831630064374 -0.5278369374890329
Ni 0.4485053828598705 3.486593909735916 8.330625574123394 -3.8347291455003436 1.3079672293339861 -2.3207641024428676
P 6.743450653321694 7.124097500426023 10.762945528942412 -1.5010262235086214 0.027007124716463167 -1.415116668028995
Ni 2.5567419005648286 6.9472045949529 2.164438638904797 1.3044993253900437 -4.329219389208131 0.6463424246268094
P 0.22710557925718278 1.376759774847699 9.155040393272923 -1.7254742735174993 -1.3042105905050312 0.6366431950611745
P 4.648594757034183 6.828053215091016 0.06521493670331206 -0.32138301006473036 -0.24642455427996915 0.4537326021744508
P 5.737589396322466 4.255325902571084 7.066538005228378 -1.146770116864954 1.1250309254156494 -0.7272740672758701
Ni 5.316627894674716 0.0339297298838961 11.005873893998393 0.30406843004568274 -0.5558665899327394 -0.4338677449297238
Ni 1.445811210420236 7.012347458700576 11.301397036423419 1.5453201603299902 0.39889894216402266 -1.6111635411873606
Ni 2.707143374780563 5.557028162209935 5.809901671131393 -0.9986236669322931 -1.7838699398475728 1.0377309173464
Ni 4.879644020581793 9.415130437880471 13.494154802819548 0.04985677562112703 1.2739029406604254 -1.097239614234994
Ni 8.436139457161847 7.778362855515629 11.84043067162302 -2.5147000999058173 -2.99396889867816 0.7233040268845284
Ni 5.73469723797452 8.141776874125007 8.882656365655972 -0.46814980604104534 0.21791976197205698 0.47552707234172303
Ni 2.5373099229107345 3.16683022989874 0.4557958395260998 0.5429941048454454 0.9217227427091804 0.5620066413922062
Ni 0.9607602189917932 4.8269845623551255 1.9823666447606714 -1.6368892280882392 -2.7091621450755663 -4.173988778735179
Ni 2.686140576298511 1.237936174146268 12.273086472328794 0.550119145926001 0.11209675539795534 0.20659430965690873
Ni 8.263718770987145 5.078870302179474 7.3601539863658125 -0.4762585511911088 1.2658664435091942 0.03557018379512583
Ni 3.419575301117207 1.0785902613336895 1.8891467447316208 1.5560938539067266 0.6868049035172301 0.268714218916105
Ni 4.284755692789005 2.6458813624901953 6.389641742069155 0.2659867926826129 -0.6171827723437178 0.7560930483900914
Ni 3.8309085951018256 2.3118509334861526 10.1362628635795 2.087462201587786 -0.2961332343590061 1.495353084383244
Ni 1.7666837049594997 3.4554362166072403 11.736297262888668 0.4020989371585591 -2.6082054654548306 0.723514857343754
Ni 0.5193549462742936 0.21863700696998484 6.512722946037689 -0.5161474169662466 -1.6522525979181866 0.4171738292138106
Ni 4.536170186364966 4.1226377432212065 12.825576497950486 -0.41056635119962187 -0.11915031981062704 0.048230552871613715
Ni 7.089862846499052 0.5739465141193498 12.700480947273158 0.5647654350842661 -1.6942862779504693 -1.0273372328169017
Ni 1.358298010057932 0.5137092314161616 4.564205642095012 0.3855765140235037 1.9920177100345304 -2.338661808658895
Ni 8.926577440017933 3.150198009367419 10.718235348117465 -0.3489272382315862 -0.3590650979965364 -1.4654755800975214
Ni 7.987208104653924 0.298036455749759 7.742487155829568 -2.1505915259481028 0.4598271451079629 -0.0766165602134745
Ni 0.8428645717800235 8.250856520442923 8.698947945814014 -1.7273344666546897 1.0356730063761066 2.274440022565347
Ni 5.395982066854154 5.560927493912279 9.079644689579938 -0.3955079142046027 0.7742046703891375 -1.7012236285002504
Ni 4.526726781152183 6.207994793560829 11.393359355777852 1.190420249454737 0.11170106262143345 0.22443750848591668
Ni 1.6817946993921375 2.393053130169072 2.9782097609265326 1.2914772020987628 1.3412337046965996 0.7062979792448353
Ni 1.9958479835135592 2.5227474898233107 9.064849405405077 2.808581047895537 -1.7858661443419952 2.184078859072271
P 3.230272911103215 0.8112809090032954 8.377756667047901 2.6460575033055975 1.348420452253026 -3.2565227544198234
Ni 0.7248802193920866 -0.181488942413278 11.400445605736445 1.0968012411459949 4.363912826825259 0.33241072863380167
P 9.199327376486574 1.1468378062472127 2.797679943230561 -1.3601158863130833 0.713949325142506 0.4441920096738673
Ni 1.1224808432913438 8.578520505032477 2.377249748627561 -1.2916486946796206 0.6920617810407952 -0.953027980580365
P 5.823273052426325 4.088606371989619 2.88815367884744 0.7418771619010256 0.48783057229942434 -0.022025612341471743
P 9.176227070193072 9.03218280026931 13.488637525664407 0.05184192437195588 0.17059757984732557 0.7084188822425799
P 5.194066909603911 1.946745972456091 12.12923254892889 -1.3061306903458796 0.5505485201539357 -0.36305802120601344
Ni 4.72511221160078 4.379180504794325 4.780898527287337 -0.24802326622565674 0.36700672144111635 0.33028031255436024
