# total energy = -340875.07299294084 ev
CRYSTAL
PRIMVEC
9.19797466673128 0.00000000000000 0.00000000000000

0.00000000000000 9.19797466673128 0.00000000000000

0.00000000000000 0.00000000000000 13.46216567028616

PRIMCOORD
 96 1
Ni 1.2837429205233943 1.1458928750266895 8.10313325456731 0.17808411803235782 0.9286873469524717 -0.8589664854175658
Ni 1.4746560815515926 4.026257020444994 8.018146728553038 -2.114461355884449 0.21885770040529404 1.5154015183936869
Ni 7.868094649937234 3.6783252348305377 3.596080625047837 0.775434943251813 -0.23867962022722763 -0.05961154101504573
Ni 5.752818032671056 8.864869960568608 9.569526795525743 -0.3018125441319705 1.5531010898269897 -1.4182225606478285
Ni 0.6291331852227711 8.576403080814979 2.541266094620359 0.5069832339684753 -0.2096438951165099 -0.9802397651084666
Ni 1.4247570692863212 4.801296757126341 4.47051551497176 -0.2114927753997906 -0.2674343237624169 -0.5104606509941144
Ni 4.656539032696693 4.667107505524858 0.7741171798278528 -1.3529633344287022 0.18368526626921913 0.6988242965756094
Ni 6.742786842090209 6.767179870758872 5.621988801195011 0.46452146525983873 0.2097570236556065 0.7404360585791248
Ni 1.4227795047449323 2.7025856921347713 5.845743330572176 -0.24505029964026181 -0.7071032487549499 -0.7089798969523725
Ni 2.6103851946330052 8.035111472925768 8.674373467790295 -0.4426845718904054 -0.5479321655770112 0.6632646543034447
Ni 6.171859360004002 3.8608130511149596 8.935660332568094 1.3276780774993522 -1.0317621013574745 -0.08320012696826316
Ni 7.165102648384711 7.564257954608439 8.126988201721224 -0.15213397382549929 0.16127707377734807 -0.22801211321105247
Ni 3.38100990350102 7.012269102246508 2.546260594834191 -0.3857384935226647 0.09573168377637062 -0.5945619496204083
Ni 8.594725446240309 3.0855525630429455 13.037030773079795 -0.7474415433626804 -0.05658740947674125 -0.15084482270043054
Ni 3.6134335239491575 0.8229814199493745 8.716981245581339 0.9442528054908964 1.3336790322777934 0.20789425941525488
Ni 8.213772931771969 1.5061591445946443 2.068892151099812 -0.9270696088433905 0.11824580571848665 1.048586114893349
Ni 1.032086335163426 1.1126421968075269 0.9380830346378821 1.2675705706844944 0.3588280422850659 -1.5313441577658722
Ni 8.12222549046759 6.08715521181029 3.5172604212128524 2.3046072901773473 -2.1535686062985557 0.18605942292835054
Ni 8.348790001088451 5.550986875779469 8.350890818489628 1.0758560063528957 -0.6536417865017 0.3510707669371502
Ni 2.4901216765927425 6.926130070013463 6.156961400526388 1.6554340809699617 -0.8380639309369438 -0.5625897675891859
Ni 2.959494320997684 8.65265429034108 4.380723047223183 0.350322575917216 0.47946086017849043 0.14214369538200683
Ni 3.9620367617102246 7.17917554953971 10.468476127383196 0.5890379344783856 -0.4576707608865925 -1.7588379365796096
Ni 5.520771529181973 3.473072431383619 4.476546626924265 -0.8296448536353132 0.6465529979757187 -1.033917971358213
Ni 3.746932927454807 5.626851770371904 4.6273768541921685 -0.1582902232348822 -1.0643822013853412 -0.2432063044529876
P 0.48219738040521165 2.573188585305677 3.711855531477878 0.2746470394607722 -0.9608618748024871 0.547339783408651
P 7.212913720413261 4.682348549455468 5.362195687494054 -1.1232807754937622 0.7171989424280552 0.38650133983061824
P 5.522482352459639 1.8065649953934952 8.40179149019005 0.3281930910080283 -0.6069132720969096 -0.4497378791927609
P 5.043451834713033 7.122414848214549 0.8025775528695491 -0.09401033020988972 0.6391999000447572 1.1662881322932237
P 7.943536437697558 8.343547155560119 10.568876619250766 -0.7374975447760912 -0.021979332484568598 -0.34709609856011836
P 8.691515733073018 2.72295920589838 8.393458125192385 0.2460807977873052 1.4805957235684115 -0.8382207682297823
P 2.745043542939655 4.409628602236057 6.396804107295846 1.3243055614826933 0.6177646129891167 -1.2699899787592646
P 4.174105264343976 4.276635087334018 2.8857090884648207 -0.9062279895076909 -0.6795438510794426 -0.19622222239396528
Ni 8.288754820801737 1.3096996048759466 6.888320875577035 0.23237707504796756 -1.5265855600349645 -0.7442428339197247
Ni 6.1251980348018416 3.1369876370682728 2.0954126712960255 -0.9013061267260413 -0.08361098925343664 -0.2758012076698734
Ni 0.7947914673612446 7.364441154156686 4.509704405599856 0.6066196521158908 0.5480033851345788 -0.7364302798538414
Ni 3.591073247669549 2.157679280223396 6.386599874262282 0.5428989740284779 -1.1264098080410472 -0.605596353057699
Ni 3.958265592119669 8.91078624982727 13.092695995628773 0.7775563604701898 -0.522530437674455 -0.3126440875298357
Ni 7.516060567646222 8.137310168829812 3.5690624944251628 1.274784057713798 2.4808972924237596 0.8454993041690665
Ni 7.10203213647633 6.224269419338107 10.629133470725609 -1.0624081083781058 0.2808369703215679 -1.5789373341638033
Ni 8.411823721098388 7.180316098391487 12.55050758521498 -0.22133264430834784 2.276488163343628 -0.6727250283853963
Ni 2.248021786853718 2.590296818082341 10.135328246361178 -1.1184805258916415 0.8217235419057074 -0.20009147554138443
Ni 8.686502836909964 3.697723763285369 6.4852766656877305 -0.7483709971554853 0.10580398041070811 0.1554535251170355
Ni 9.110419090786799 5.995203059623025 5.926785765073206 -1.4471721538026432 -1.152410602980183 1.6839499290214677
Ni 7.359943344571854 6.709168244886602 1.3488415858335252 -0.8134240209010765 0.5757211627648214 -0.48838181681720405
Ni 3.6331907734138214 3.2460296260829815 8.283741924638681 1.2428293591840724 1.5676134245105517 1.2447525443487142
Ni 4.550486385430595 1.6422983668136826 0.9066038863288195 -0.14219228923175511 -0.02603216239770355 0.8223740310055128
Ni 2.422213030038918 5.212483014141401 10.511110579300613 -0.11518465029465969 -0.1609266324164648 0.07265654712446197
Ni 0.7792459704710076 7.906827321024618 7.07885048106395 -2.8062166614284187 1.958287921882253 0.5098983507327413
Ni 0.712357379301555 7.492522950616392 10.248477131039747 -0.5570744941979114 -0.6380652722196817 0.4343269439543294
Ni 1.56653464994197 3.806830138122355 12.474231541157428 0.9610534219880029 0.8761571382642394 -0.03359274835378086
Ni 4.4854199130316035 2.604093779999006 10.438912917185627 0.55913471916105 -0.6660650998667175 0.6740625162498972
Ni 9.127113414705965 5.32502023350833 13.541323528095816 0.3965648947142074 -0.705229685881321 1.0100943865760539
Ni 4.830546316389671 5.090021180169083 10.520790527781346 0.811187418261074 -0.6666433409676906 0.2631084426935533
Ni 5.881258550140594 5.696802367289395 3.382732684145681 -0.6910652214554809 0.21623851761489213 -0.15160304102269376
Ni 5.94229630965992 0.3491698329971117 6.3670256644923775 0.5213125061069538 -0.6554135336901422 1.2076710661153847
Ni 5.057561527766476 5.057212004731254 6.754951163513401 0.4108268039498602 -0.5521454323274103 -1.352127211680652
P 0.9375311561612156 1.687506412027288 11.97417905243713 -1.2349877516524668 0.41835345134420854 0.5182120128047591
P 3.900382737891954 4.080791811914265 12.135590629697653 -0.9089551586308668 -0.6022780873177435 1.1917626224152444
P 8.164490183805642 8.431332625248553 5.8135550184205975 0.0948017157629335 0.9567290835810363 -0.24368144431719324
P 4.886083687091554 7.428882164282122 5.033719457777018 -1.7355861651405207 1.1346573927618202 -0.7915444472191658
P 7.205141431866873 4.261200885936576 11.569842527114965 0.7436576508402161 -0.3012646420483005 -0.5186030775955908
P 3.0081608046650667 0.19804711013657514 1.988523008340317 -0.8166332718669936 0.0893229520365494 -0.07446686086032336
P 1.1545113772372992 6.310528025241096 2.613948489997349 -0.39915939491426095 0.1867605627604332 0.6744247846853223
P 5.72393639239217 1.0831718861535307 12.449608563123485 -0.5189995417030611 0.7537775128830373 -0.07777355663605316
Ni 1.4941189958287013 0.3831839431089963 10.357251458993272 0.8997966320600504 0.4161384459707607 0.503171830642185
Ni 6.260123124372214 2.774394279923707 6.434013593787631 0.1453488325828658 0.0398469567936088 2.467639656082905
Ni 6.122319068748564 8.24528519278963 11.702041337010602 -0.22781593803984637 -0.3371011921309356 1.9554687072659032
Ni 9.226396352658286 5.304508750125556 10.915137132878385 -0.4323909032738811 -0.9063825128076842 -0.14978964196303882
Ni 5.900868632011481 5.915015116963368 12.753665090045487 2.618309386658052 -0.29291035654633424 -1.1209858088119984
Ni 5.407847994881376 8.191440249416193 2.866176269580668 -1.3579785282551065 -0.10792796873224639 -0.149724078832426
Ni 1.8357041789614916 7.966871699285944 0.2999275561190734 -0.6021775571841371 -0.32773132088026136 0.47102532781662754
Ni 2.24398387599944 5.575048777362134 0.9665581244389564 -0.2930705362732824 -0.8055147933563289 -0.6889808281226264
Ni 4.609932895342199 7.850894437414459 7.227109874428048 0.024129803168668123 -0.8498465253941687 0.28998855491384895
Ni 0.5401151869364488 3.5092480655291145 1.693795987066365 -0.9260853905532502 0.48914183491168023 0.8784071106406808
Ni 7.256153399060088 1.4309473061995979 4.731291892158644 0.503767555244655 -0.10437187594987186 -1.863286688514004
Ni 3.326346340387193 5.775573821858941 8.231238965761005 0.46937390825613357 -0.6803354937428026 0.2781085156468114
Ni 2.5502120447271244 2.155278608849896 3.39799856260774 0.4140239707309193 -0.9520311638847344 0.7922864675915129
Ni 4.64417695481936 1.2814802187690613 4.602041033125866 0.8729864538457417 -0.9503062107738278 -1.2137401551276001
Ni 3.7443207026652523 6.46469527769791 12.59061167431688 -2.3094702746966034 -0.22816200852535543 0.6973114594755088
Ni 6.8109162400347 2.170354089237505 10.754291231056444 -0.5514142105883407 0.2564482570645583 -0.0815124548531951
Ni 6.478225498350853 0.08454134404309493 0.8268905591590962 -1.3408488105533551 -0.834097490090028 0.4167678520246435
Ni 8.47689939147199 0.8643327544085414 9.376088790466795 -0.7505410082236106 -1.6414516506479409 0.621102419113098
Ni 2.9915584604920133 1.906243446254094 12.390536410778555 1.1605437736102788 -0.6139550094350393 0.18156384905084214
Ni 7.99302154110533 0.9185345791968902 12.475065797454656 0.78310711508509 -1.4456940265952198 -0.008797286576655816
Ni 2.7167229791120477 3.129224546496496 1.3510362225757357 1.4636619239275503 0.44838290782676327 -1.068684685415437
Ni 6.101209717016068 3.175858277774823 13.12089974517882 0.1150694648730341 -0.31830000026403243 -0.6989040007736091
Ni 0.7138713659225436 0.5435855827572207 4.714288516292547 -0.4462530059679541 0.7831004302168707 0.5281200159470903
Ni 9.031666032166477 3.027678906789842 10.3895473874478 0.3006324077809403 0.225613788182205 1.5264768023712418
P 7.62849660929243 4.491886089183214 1.50305114897355 0.5930709668971786 0.8113571110697188 -0.37524427885956024
P 6.044927310370685 1.0916156268465296 2.818223548743107 0.3063525980941692 0.0007998701934760418 0.2762017855424017
P 1.3573083214630517 6.399932338461086 12.168505581843512 1.175052508749415 0.4856052825133314 0.9249962712541296
P 2.5987129648515066 0.014266978419292652 6.79984739738769 0.874816565075945 0.18994461691536962 -1.5673349740381848
P 5.572224999156522 5.85842917715582 8.66365782736835 0.805305248448684 2.637973183635567 -0.3802309334408742
P 8.478858560064158 8.738544977259625 0.7847877501742014 2.0024689872748413 -0.6545750969492469 0.09755279614550941
P 3.718078881099755 -0.07717284658213476 10.7888618186323 -0.5703357300831919 2.3222519998423037 0.4490184845282331
P 1.2890317559247824 6.356352334753646 8.52620881356469 -1.5397007572606838 -2.1645248481997434 -0.26754385275708764
