# total energy = -340889.62395433453 ev
CRYSTAL
PRIMVEC
9.09414901972013 0.00000000000000 0.00000000000000
0.00000000000000 9.09414901972013 0.00000000000000
0.00000000000000 0.00000000000000 13.31020634103005
PRIMCOORD
 96 1
Ni 6.24996298373051 2.182950428084773 11.42360433387147 0.0059719013127187475 -1.0511088813152027 0.2216856567723924
Ni 4.8482272358592295 0.48754005530248457 6.187236091110084 -1.2952400115753049 -1.2384302016751123 -0.17311211873906315
Ni 2.8344552613326743 1.6934851414422745 5.005489626003088 0.4267470747245425 -0.8579449861315871 -0.884132186049916
Ni 3.088045605764804 4.574557010469376 4.793577766366814 -0.4101639735548807 -1.963477693613309 1.741829060726439
Ni 4.866051767868803 4.586024732338801 2.353204719467854 1.8572641364690077 0.43745829049445945 0.05611201250221949
Ni 7.250255712980042 6.015797741529224 2.4798380158319953 0.16682834261288043 -0.7702467141826541 0.9288590966436454
Ni 4.949054065650121 4.772200150349005 11.41645633276967 0.23069043137416398 -0.4712968363104593 -0.6583240224687178
Ni 5.925738384135952 7.532801827778745 12.528325175909746 -1.0213164805441184 1.0092014424481393 -1.0216154998417761
Ni 2.0341246799538135 6.773240316297293 0.2696396985599336 0.43646018824724836 -0.7292669293361826 0.6733454355782145
Ni 2.7854287041573613 2.0087156276911857 0.44304875022572976 0.19541129645689573 -1.1340647534831436 0.16780587603480135
Ni 0.6993073179699045 8.874761734375062 4.584434165681415 -0.3623897914943952 -0.012000881115618041 0.03624741236780854
Ni 8.54242515388635 2.040563337434823 1.402523301173337 0.8286238685699665 1.1163920187937288 -0.2890824981598118
Ni 6.853023285338106 0.3974716037602285 4.758119679476341 -0.6022981419224014 0.7745000901423693 -0.09131735675875886
Ni 0.7176820459930394 7.3461807964683015 2.3724115621230686 0.26711884940452707 -0.012519986843881663 0.4172964708346039
Ni 7.673788419485086 3.7441247959518975 3.711018455988809 0.8793530194937178 -0.16072762903178128 -0.5763166302569751
Ni 7.581446430696711 3.7854758913843125 12.70573656254361 0.9909792630131579 -0.43071480112303884 0.5735627216609219
Ni 7.920321704305261 8.776281195022166 7.192981672090708 -0.09597028214973795 0.12583210270617687 -0.5672293232437262
Ni 6.626488034134795 0.5841353775708994 0.1318988086261529 0.706233701665803 0.29649704545632805 0.7695136926713714
Ni 2.2137432165462103 6.513656927684393 9.204993019373868 -0.8740807153511849 0.20154929103383354 0.6420072875865652
Ni 0.12175610426376618 5.048744126817954 1.4204387746727558 0.18603988254432477 -0.8922776979751859 -0.9338416374599013
Ni 6.078392768989376 2.2583682056130367 6.996177012747447 1.235090595778918 -0.17616350397087724 -0.6064170491867814
Ni 3.2098799197098367 4.55146696619779 0.3150085890136903 0.5654385498918907 -0.6729032058344734 0.48001621846132814
Ni 6.228100649571829 5.5848805860487865 4.8611673004492415 -0.17269225759282517 -0.38039265582971904 -0.06952854301844155
Ni 5.510917872358037 2.8998876632759836 9.201918287602217 -0.3105584086454007 1.7148021385156338 0.6496362648867328
P 0.5610153226076646 5.6245583580680565 12.374871415360586 -1.225275409460709 -0.08539893439179486 2.198199614744369
P 4.044040735310951 6.269424462557291 12.586863303507922 -1.3707093455582136 0.9744825509097153 1.436492819711926
P 2.640568004983634 8.46191465292678 1.6213830906337503 -1.6355890212195767 0.19814617888955552 -0.5330351938605207
P 6.197726191963677 7.781681403036916 6.084467660511006 0.39756762494710884 -0.4363558014589001 -0.3274096758747845
P 4.696082123348936 1.2017372234046726 12.570784848103369 -0.9296024025675732 -1.3849514572995245 0.41129525894584645
P 4.14977840555346 6.230610634691545 8.144355155122943 -0.5020649707312514 -1.1838677930481998 0.4057581311777012
P 4.714934294193756 1.1494276784459634 3.5555685297375574 0.3178973655089751 0.9600530057479466 2.2909997266962416
P 9.265755575813648 5.464892384347602 3.5716078803014786 0.3761266814645135 0.8107225628095134 1.0269991327511927
Ni 1.7684118349253768 1.2555927736907428 2.75334909361462 -0.6304164974251724 -0.237978480395145 -0.8084885312726722
Ni 1.9109262436611094 6.683844831779888 4.592487034607171 -1.0399466940507962 -0.16658511625382277 0.30020200511174105
Ni 6.059313244419943 5.796528715364509 9.33583235964333 -0.15222447665677652 -0.9049617212007576 0.22019930203485302
Ni 8.402357071227442 2.401419169138854 10.350269218808418 0.6803786882759122 0.5862140918763452 0.2021558142695809
Ni 2.1732196886713826 5.354825899188482 7.134124339863175 0.4911619506655025 -0.6985679575904292 -0.40826161432584523
Ni 0.8227249232531346 8.706629107950059 8.93995950727457 -1.359277449572188 0.6504088813866992 -0.26682085854813403
Ni 1.5381116060424922 1.0076953665228958 11.368965777357834 -0.9147684228785342 1.4580072967449342 0.6503682579567509
Ni 4.25714392846419 6.923366527733032 1.902880650054543 1.0129048594416554 0.6913418721556353 -1.3190880218374958
Ni 5.471776655128851 7.955534249173155 8.286215694546692 0.24646697748213037 0.5372823991726489 -0.18531046057746797
Ni 5.275433978554001 3.1450932023444254 4.623513542697508 -0.28355282659083425 -0.5935293945908359 0.24713237898027116
Ni 0.500552873084372 7.144508948588549 6.6854635902991255 0.8188955855386091 0.5034582515343523 0.4003822115777685
Ni 5.244686660837485 4.654321791212221 6.873843430023167 -0.9273421457784868 -0.38533431610571056 0.7078768936961808
Ni 8.188553628602397 7.073174443954315 9.47851773837997 1.2806795972626266 0.14704293245583708 -1.329500989640704
Ni 4.633914520891055 0.21538855279303853 10.550015835348157 -0.06848056136990141 0.2501703944756466 -0.0291460254363369
Ni 8.008353066474994 7.176793177483441 4.897277437821902 0.8298592836389644 0.014863547375393756 -0.6614869935777318
Ni 7.212806007461968 6.076055572700366 7.216926566366834 0.956120760573076 0.3321261075138473 -0.43799642238611664
Ni 2.5250541245828124 5.492756856836038 2.5696554688622797 -1.5221010419010497 -0.8373383656248289 -0.33343299925072895
Ni 2.3783200307182826 5.122434016039167 11.350558310398355 0.5342199581972413 0.4810780840669392 0.14156571139134974
Ni 1.1961806983751575 3.307050901608969 4.046994514901108 -0.7844050079609071 0.13344385361516375 -0.4616189469010631
Ni 3.5029297765856096 2.9869914222493006 2.8282057621505423 -0.7595722651879435 -1.4640450182985818 0.28358547960098257
Ni 1.009014018125645 3.242518820415123 8.501667906382622 0.15491282212221708 0.9944939610346357 0.10607240358074636
Ni 3.60743064256623 2.7233247607423707 7.038650326164547 2.3467283877171132 -0.06636634324037602 1.4792109274057428
Ni 3.9593742082654733 6.692748003635692 5.925796586689453 0.8630823073581522 1.3318234671262934 0.7817793974126019
Ni 0.8619334371848069 7.567214087536005 11.575939514095538 0.22193993887504357 0.35710180362257854 -0.6338121533702825
P 0.23380966097599432 5.591419279168624 8.22995383243933 -0.40498680022931544 -0.4131441392291272 -0.3481767332188068
P 8.633366643731115 1.5083555505652848 8.239483591160162 0.8925993429806627 0.26971309249426456 -0.5031641173327012
P 1.4984974930661124 3.1836160174426684 10.72098492684142 1.8785837238823904 -1.045288932199316 -1.4940361653440333
P 4.2700849024691 5.943926682104905 3.9136270012139627 0.7913300172155145 1.6365760677231944 -1.1601159420442408
P 6.810771869156228 4.136610077823938 10.683637075791971 1.2685208504129055 0.40034518769224603 -1.639944727085111
P 6.557718079514182 7.969748404035892 10.396282884425174 -1.784871898749526 -0.43054356565249724 0.26305727774064375
P 2.3402064523243413 8.453684448095828 5.892388320980079 0.403242306734383 0.563637749237726 0.3453770589864826
P 6.868747068932266 4.027043770858964 1.4566025675244256 0.7674305848900976 -1.326916002522347 1.267941323760352
Ni 5.182619094018433 2.8680308593833623 0.42545520960036143 0.2578271396899559 1.1333672131954868 0.6994971542729179
Ni 1.5346376411304221 1.2841574956509838 7.131794418893353 -1.0070309171593816 -0.5469052669743936 -0.3439704084469431
Ni 6.851859234268093 0.7975077575340794 9.139838898389485 -0.9096403576233496 -0.2188044785698554 0.5868242146565184
Ni 2.882172261054223 1.7742229961264575 9.336590811668636 -0.48161235930385443 -0.15158607174182925 0.5684868497999113
Ni 6.503526045715687 1.925476882036272 2.5411316705724682 -0.8602165557745829 0.12854384521038506 0.12566086723563522
Ni 4.198122901554937 6.890700344580793 10.589999170773305 0.18923550666348699 1.0399780615093637 -0.8661365208034438
Ni 8.258915059295294 7.066735786473306 0.28732872774963897 0.8133273474222121 0.7552733807022733 0.3383810872846236
Ni 7.713193367034823 3.6816025216836215 8.154923465657804 0.03571827933721591 0.513595082858038 -0.09137906323462971
Ni 3.0175932335820637 8.738094863436348 12.645734276958931 1.640694717877258 0.040355006778278885 -0.17846412707959586
Ni 0.10755013413511533 4.911340629811496 10.428826296566124 0.03274916940656295 -1.4500510180123347 -1.96915057562837
Ni 8.473073173730732 1.767002241832783 5.612994238219397 0.5271635655710921 1.563485004164475 1.3928771399045043
Ni 3.720589138380072 2.892148542490194 11.572892064770839 -1.1786371407768799 -0.9038255507137853 -0.5964447684654179
Ni 1.0397613358421602 3.396855622830675 12.831238546774081 -1.0020193228774035 0.17062483354083519 -0.05733765737920448
Ni 2.9934664563262476 8.694870373313131 7.995493939810944 1.280520445976943 -0.7391769893610431 -0.15879698766797168
Ni 5.860224134851784 7.652589958202271 3.7587754699658893 -1.1317571883958895 0.09126850579869443 -0.7852035926028026
Ni 3.3479927603370823 8.502865605803878 3.6452932224482 0.10486372798462586 0.033395030520677965 1.2512533215817097
Ni 3.458550329541364 4.280061183905071 9.297352287045314 0.16039492828271085 0.423347047904058 -0.41917903256929745
Ni 7.63150062670727 6.102437698904332 11.5828747121111 -1.5282706610468713 -0.11140204332377587 -0.06823553523863087
Ni 0.8302375997292107 9.175632559377487 0.5324242276153687 -0.3735555783032276 -0.05827456737117707 -0.3239785387060485
Ni 4.547374599154775 0.4251514650242799 1.591740712018849 0.20862805225748585 -0.26223066807429035 -1.3394218482988416
Ni 5.800975754217918 5.463146307742583 0.2894222008458655 0.6157887202096685 0.2734522478217226 0.33057984607265006
Ni 8.293936627034514 9.11943071865342 10.96333763137343 -0.2628844996082053 0.14988143034589668 0.7068381680190213
Ni 9.155352607142103 4.736751157607515 5.823641101731929 -0.29376576256809406 -0.07319956411212555 0.1386984171458837
Ni 7.850651428935187 8.815540636188151 2.5426085603675475 0.12709734257184566 -0.618399161249322 -0.4202804931635923
P 8.718406030884957 1.360184581161208 3.5430840820116676 0.051300964266821326 1.5168559914520265 -0.16971543435268835
P 1.6737508381459603 3.472446189189644 1.6768064722047444 0.5102606191681663 -0.6046075067818685 0.4830107823132779
P 4.717416996866519 1.0989187749861804 8.46526493741266 0.06479488498819809 -0.6682754772544748 -1.5585749684573675
P 8.515169989379874 1.478608589237062 12.600745521932726 0.20166447645545915 0.2600028071850361 -0.5617767847695874
P 6.484637498274929 7.630081939465692 1.355111864857667 -1.7038746929698527 0.913862109014181 -0.31744845089701457
P 1.826250622466648 3.3094790393878237 6.346785659723538 -1.8143295418890109 0.3823801185733931 -1.7924265711683325
P 7.100338666970947 3.7764272131447583 5.7972207801022275 -0.23165176684616878 0.08036420018136482 1.2356292418912076
P 2.4567570657093936 8.501092246751904 10.284143842712492 0.888213040987509 -0.40734835848295653 0.3873791144498812
