# total energy = -340870.72991743387 ev
CRYSTAL
PRIMVEC
9.21749401430300 0.00000000000000 0.00000000000000

0.00000000000000 9.21749401430300 0.00000000000000

0.00000000000000 0.00000000000000 13.49073420850444

PRIMCOORD
 96 1
Ni 6.363269221078968 6.555085267923024 1.3089173084874843 -0.8117918846142922 0.7520846985616466 0.43559604047474015
Ni 7.914582652116999 4.985797723893839 2.7007100258543337 0.6315459830439252 0.9237886240992736 0.7579936078469138
Ni 4.68293852873982 2.677608221039088 0.5914976408091911 0.9761139158655512 1.931100562834184 1.22289379660241
Ni 4.811623960262639 1.7620529927389268 5.506283792147212 0.19194210696137265 -0.0395988453385447 -0.03302941965114312
Ni 2.6114266152562764 7.856770530742375 11.0007489136907 1.343409629301996 -1.1197524506255294 1.6330611125914005
Ni 2.4088076656298454 1.1796179918748138 10.090839400368528 0.7072958243817303 0.5145479336896106 1.9504296021800993
Ni 8.75849951828011 4.231650030254238 12.27829448188824 0.6188177368439794 0.1767312035488892 0.590516575906441
Ni 1.4909664988569624 0.005851265090658653 2.241121174164375 1.5929632161292502 0.5058264946562128 1.9101877239409166
Ni 4.650004423243722 7.433097643806279 7.820281237871566 -0.9231846719666875 0.20167013288241398 0.5928483093634113
Ni 5.71913231643907 4.433955585090054 2.1370399989529854 -1.7093591131231918 -0.7582795145184488 -0.09123790967107513
Ni 7.880256705050816 7.369423196348386 10.226448091515786 -0.21376383082215442 1.1638108743973248 1.2842223203085625
Ni 1.692387174283983 6.496766184387111 13.118119702535058 -1.5145633387631077 -1.859555760716662 -0.09603893060414427
Ni 7.322017625520949 0.6788776389289546 11.353289478901653 -0.980506645616608 -0.6860541413941347 1.333250686491123
Ni 2.510504275184409 8.43493783195782 8.772039094984063 -0.29752034451451986 -1.0367505557110017 -1.298229690331248
Ni 4.028450378515784 6.81980247356043 4.718424958280663 0.3610978121558491 -0.7897829844433688 0.6939098899931275
Ni 6.4868297260258485 5.059288802293054 11.522962340289991 0.5125231899500979 0.08092830021495094 -2.976172493926687
Ni 6.324555746944175 3.307550185162897 9.762677262869886 1.201909223930943 -0.37628968940493907 -2.1893730175916746
Ni 6.043818537010038 -0.15341504575049394 7.010122521153992 0.1577227807671864 0.4991231144941082 -1.5602063334132033
Ni 5.66202994209025 1.6543834471749952 2.6869897862710865 0.56824850853686 1.0119844045099151 0.7296988746672788
Ni 2.095910619682305 8.60369170921015 4.404373882104152 -0.1362224448015654 -0.17292597087018605 0.9829119126239911
Ni 0.9380551307675495 3.0127102096510847 10.638590815405404 0.10690621233595138 -0.27993065645721465 -0.6564656291037404
Ni 2.7129204399463243 8.311930376641437 0.3135938884819666 0.08500401294622134 1.9040926667867726 -0.3518788646607424
Ni 1.2591557462341294 6.3705418237200035 3.934451298068356 -0.28453138845401965 -0.9064233933479487 0.49059965040412934
Ni 0.8968197503176905 8.89470642477769 6.558264381548998 -0.6281277013909956 0.17000056969327498 0.6626758716795104
P 2.9318912236477845 6.032315104695699 9.572566452386528 -0.1543358665728245 1.0016269725349911 -3.1943992456162014
P 6.082356878761839 2.048846096127007 7.635256640490013 0.19983539366652037 -0.21670054485297519 -0.3375074264304187
P 1.5481057431811478 7.126164316374265 1.8498763523124722 -1.0429913944143907 -0.36848844819296533 -0.7060511533413517
P 0.7790902319750178 3.243599212889756 0.5430707716641022 -1.8673186924915326 2.3489598481507934 -0.15720316081829055
P 4.357957348365919 7.919209834025491 12.500594624365291 -0.0969367598280653 -0.0907015775516309 -0.4236874619626123
P 4.562143271945426 1.032451485199552 10.907690017615115 0.4920515523593074 2.1429268103139933 -0.6638925176954308
P 2.2535758518431686 1.7496923334973178 8.139296856231171 -1.0438192896323248 0.7848338679682096 -1.4780683291608672
P 8.135525979500565 6.09056966577472 4.644049922222037 -1.4155465564775622 0.30367016616599957 -1.1905434052961625
Ni 8.56225907439208 8.304786818914184 12.471563205761734 0.6191869472579401 -0.39331013522233554 0.8975101500187189
Ni 8.417627378523262 2.4192695211400808 6.967033502692583 -0.8837208095441104 -0.14570698725323292 0.17351063972906247
Ni 3.4890242039166584 7.81536554840583 2.533236458496605 0.7306746083169868 -0.039620956825731767 0.4468230195388111
Ni 0.03194783365504551 0.573384343661029 0.8488583646116031 -1.4482551024541768 -0.321698227312304 -0.48760997164818604
Ni 8.41664110668221 4.64480575671705 9.934347555173703 0.17949642499885216 1.0385181891343858 -0.6734421090570789
Ni 6.4332945217937345 2.7513573892658685 12.212460375623257 -0.3762459806511972 0.15763844858349627 -0.1955308527538955
Ni 5.049315473956423 5.117755365730432 8.200167342062443 0.15751092186669646 0.43977665421499096 1.22416160757124
Ni 0.9037513056865867 5.0257002547342005 1.9153067323471922 0.33330238721013566 -0.4059226817800235 -0.6556968692585159
Ni 2.0583032448085063 5.11569064710991 11.191980571425198 -1.9284212162298078 -1.2805739249226977 0.9018082631734405
Ni 4.18270513795525 6.019530440737377 13.65464605357161 0.9943054991729133 0.8021741590188701 1.1276696485900772
Ni 7.190235116067346 4.484614931243582 7.030533739516869 -0.8105448995810686 -0.8407124243033843 -0.355631132614323
Ni 4.197056775866648 3.7638898702736854 4.138943242443404 -0.9724781188851767 0.15761479443441243 0.6025156572498462
Ni 7.124873867236438 1.3585479823282884 5.128718652905652 0.5391729313271424 0.8112264990291255 -0.3804888150879512
Ni 8.537832715711794 7.4428589697845515 2.4609123148177394 0.896566555158527 -0.6516129289971293 0.9924435062635102
Ni 2.038900420271902 4.917910881750329 6.243741369687796 0.47711421432318474 -0.48074435487660433 -0.11250864612439333
Ni 1.4578664784717146 2.206059671089631 6.133925991557536 -0.23748508569849422 0.2650863923555306 0.8006497519545437
Ni 0.1697622710786022 6.571722844307143 6.248314168382622 0.12109201691803015 -0.5127589601099879 1.4003012002827173
Ni 4.230507061017877 0.8497275742808678 8.601030618738074 2.357672802543759 0.8032902749011843 0.9480667799203478
Ni 7.246093128747547 6.604177640123477 7.996578712083874 1.3998551138842343 0.9197753891748224 1.2269337709997385
Ni 2.820921815288554 3.528576469991038 2.1886957561907927 0.1782360702291898 -0.34594141613038487 1.6399753232127303
Ni 6.036407671961377 7.405675599627466 3.538471449630014 0.637303968573625 0.4264154024167366 -0.016622439048029437
Ni 3.236455655162503 0.41805021569271034 6.633866266037942 -0.28321035564975094 -0.9555872566671091 -1.4953656827887343
Ni 6.344825015901892 7.239262965810909 12.47376157804296 0.2743256515656114 0.6356036980530667 -0.11077109460799632
Ni 1.9740922210714908 4.138396645058596 8.628835188911312 -0.3602663173934892 0.40422575369357483 0.7907625747478189
P 7.472271992633152 8.42268778264231 0.9110119255856285 -0.4577201260672891 -0.9090065806940926 -0.1981202107476265
P 1.6898339284898551 0.5181411378200641 12.21830150147069 0.9569237160903455 -0.29771471991351306 0.8109107675609195
P 6.1036400720421335 6.473270792584829 9.822602955582393 -2.438159901456233 -1.587136582145144 -0.6066849581361874
P 3.8743891864469933 5.716763420521773 2.8406223648762423 1.2131295181267945 -1.6621672859287375 -1.2895226494755534
P 4.950430200023554 8.8384520598623 4.812752181508854 0.7743285975615116 0.5959804272344897 1.1071437607225836
P 7.524286310381398 2.96913911626176 3.310963423132448 -0.789551070938221 -1.3244971086682094 -0.008515493670178882
P 1.7979920012273924 3.782112855598563 4.297284116902858 0.45763836498676025 -0.3086969299566297 -0.6493076779027205
P 0.10414477591889706 0.5655116821709036 4.473797280471061 1.7031807522266214 0.6008007314412686 -0.11083485796639622
Ni 4.180548244396311 0.9164686819398661 13.001883418194728 0.33793191556234703 -2.1869260987130787 -0.84173546625126
Ni 6.997663234728277 1.1690270914507954 0.41622699541083846 -1.3675738852530253 -0.375603719081508 -0.5067101828127467
Ni 9.092449320161906 3.9975072516894756 5.279666175554745 -0.7865637061751227 0.8088842240491939 -0.47676865805830787
Ni 0.7278391227168574 8.903472261421069 10.518469357410833 -2.7365176542703837 -0.8438154887087402 -0.7074333784008591
Ni 2.5359906456564802 1.6161769352014914 4.218929888752806 0.8108367197898746 0.8907111248190143 -1.40691639160639
Ni 8.399920572853516 5.957035832491211 0.4096328003165455 0.5251362507284182 0.42250989671474326 -0.8595341849955777
Ni 4.345403121753637 3.6581283459349687 10.367764254849774 -1.6884359898172794 1.2361861428359422 -1.151238951269585
Ni 3.2867647365500496 2.644849247925981 11.895306691019659 -1.5889373827993087 -0.12035796696548305 0.5360917212986573
Ni 6.821904062156319 0.37766284467628003 9.244376662406362 0.2462615463395436 0.5040100102727644 -2.00084996361418
Ni 9.199888428379797 1.7138731524287931 12.477930650507524 -0.6766166501303186 1.5216156176241988 -0.8958754426287733
Ni 0.4271368211217767 2.3539267072968557 2.728325637403819 0.006623675964104722 0.7157804648139736 0.28643503323463576
Ni 0.73060160562119 6.683816786915051 8.822400716086507 0.8240815006149226 -1.7762005962277734 0.3482793202349421
Ni 7.855009989418626 0.5741051516794435 2.797303830818178 -0.2980103967770609 0.22249761115072647 0.44401434644542237
Ni 2.85184650712718 4.211537458691829 13.559671762275741 -1.3894999959021554 0.40606974888084907 -1.2016310305688918
Ni 2.1688947359202304 1.8327235180226065 0.5526707915001466 1.6188524251911864 -2.1380262876885823 0.1527278986557563
Ni 9.1430349263647 1.2399280540805155 8.843635056649441 0.9818027387202123 -0.39158286811858367 0.04750575889044722
Ni 5.176692021353733 8.879792519741953 1.1833805728609619 0.628890290588633 -0.6717454380809462 0.35084862362401514
Ni 6.247368453514472 6.612196859765684 6.066054819153555 -0.9220289610956894 -0.06331367245698127 -2.2198382760600675
Ni 3.863807503516817 3.231478208488029 7.468066050193222 0.32575517099049706 -1.1706525799095062 -0.587795320320536
Ni 7.969159433153215 8.345353009311141 5.1294873918920425 -0.8041217696635442 -1.3993851162263513 0.12470955906595943
Ni 4.237807316140438 5.96404112781084 11.170543445997748 1.7380706221252713 0.5543246993669163 0.8591662601331979
Ni 6.371454355610324 4.473664548559742 4.53911889407845 1.827582036023543 0.24663924139393656 0.17799052987728703
Ni 7.693869762079473 3.2342065866651484 0.8913445589757698 0.7347096976183088 1.0402737383729117 0.7508127738277586
Ni 5.042070523796913 8.349427141589135 10.21506264312262 -0.24499527803261031 -1.173970588539146 0.3877683794684999
P -0.06022157426482237 4.5479759839108596 7.8240318361157195 0.8151178636637317 0.04950453448803087 -0.6900594058987859
P 3.636070883171979 1.1975736698782844 2.3107335311550377 -0.9721747287121449 -0.44083543449680856 -1.0818057961784273
P 8.65966954931029 8.28122690465501 8.52146244664908 0.08514722339230496 2.509461734325014 -2.2625155032136197
P 8.060818191914256 2.399682346726644 10.446347076847097 1.5858957677595074 0.40779213088859445 0.4130942598277983
P 0.02593802767031104 6.523699701392317 11.48008808943509 2.083123979223748 -2.41122785295208 1.6334899725987029
P 2.322743925630665 7.086722660225984 5.884334693314223 -1.2121931223554543 0.6463583654664093 1.8105924434440817
P 4.954633377215331 4.617706324822694 6.098540032699567 -0.6762384408552934 0.28654276245709365 0.2144343745266178
P 6.257221954431161 4.7567153494481245 -0.03497117163509598 -0.4537362017188767 -0.6167084038104604 2.7414035216077757
