# total energy = -340864.33327892417 ev
CRYSTAL
PRIMVEC
9.32457077153266 0.00000000000000 0.00000000000000
0.00000000000000 9.32457077153266 0.00000000000000
0.00000000000000 0.00000000000000 13.64745186619908
PRIMCOORD
 96 1
Ni 6.422130250093499 8.559554976369732 3.325419795602345 -0.5959166638760898 -1.2468870741932139 -0.46685139894459604
Ni 6.577384352798261 1.2834525648341724 2.4185055189094244 -0.09999225882493748 0.29775662889504206 0.2904032738537644
Ni 5.244931168762076 7.665403239639094 13.28695475276487 -1.4153326406945432 0.33834149229593985 0.43642110747919677
Ni 0.9246468128559027 1.0358012907359264 10.047158760375543 -0.4116079050902588 -0.9818850140213734 0.11225102158763249
Ni 2.048011417517315 7.975883471336419 6.330671130515757 0.8168844686458513 2.8733880170685935 -1.060157621781032
Ni -0.03931239021040723 6.0151034130264955 12.338251479874852 -0.028227884497441708 -1.255285325559238 -1.0135651187334735
Ni 5.852389653735318 7.5041254642408 10.811429483823037 3.023150405338123 -1.6125840756839713 1.9050707144293255
Ni 7.078533406844357 4.752575184917217 3.850847234466001 -0.20019586232973263 -1.7697417279763072 0.8819112671391973
Ni 4.099174539942391 6.423845971108374 6.731905544243409 -0.44486512448149185 1.510026627235019 -0.02630752754627727
Ni 4.550493087991233 0.9376508592001705 3.7595046720224223 0.18085139636484981 -0.15442971183821144 -1.6788671151819214
Ni 7.2147747098244945 5.082329304319693 11.579467333846669 -0.47961075549279336 1.8526150677327706 -2.3852208873653566
Ni 8.016025748342065 7.472655038016862 7.145219006898614 0.3070737925309099 0.7186577863617688 -0.7368221159756214
Ni 8.830116720759005 7.879812419074128 10.99878155636207 -1.963289745972219 0.6257797699841093 0.38835124855516345
Ni 9.275896473792434 5.403747257486851 2.9968983844507737 -0.07849912194816804 0.2781370548919016 0.6883984732565951
Ni 3.693919371314661 5.883281956573808 9.83021889244357 0.6787313824804763 -0.10884071035450288 0.6116093920209983
Ni 4.548301813868974 8.255322207063527 5.134471371401662 0.27484578573513957 -0.5580394292143421 -0.839611992150354
Ni 0.8663747729740483 1.3370595219782975 3.289567753590961 -0.16441022008969103 -0.6620158694980083 -1.8257573241099785
Ni 1.5252759822242818 5.9734132572791685 7.1159314626832755 -0.8901997324002348 0.4071539830839633 1.0246393742697644
Ni 4.224664612867358 8.616397559558214 10.082205159475595 -3.473629533572282 0.912936511876118 0.08116021372009893
Ni 2.473631448625958 7.506148896089865 8.71453959898031 0.6053274156670285 1.2406364652978117 -1.6725650842232935
Ni 2.2194995978682637 5.376864520063558 3.8195670294850164 0.7328834430428475 0.8797620820066784 1.2498975788847635
Ni 7.779256248289252 6.95687573249066 4.500779139128144 0.3833782208206043 -1.4885414607780494 -2.487149701091375
Ni 1.7635280890236449 7.6730960104938335 10.89678100957065 1.3734524555209895 -0.28860041631707073 0.6924230210349558
Ni 8.825547681099826 3.2041556181335826 10.683142972135236 1.3061039508730021 -0.10159637008726374 -0.22213457138435294
P 1.04498599290795 4.08873102072141 12.229877588987415 0.09411137456412824 -0.4017119861327856 -0.18297564179670422
P 5.997461325199624 5.54904271864875 9.640423782372483 -0.7291226904488346 -1.3293300112804785 0.8368858514684425
P 3.53011463724772 3.96619683671881 -0.12506673741368785 0.10250731193730732 0.5892161119274627 0.8835968823717363
P 3.6969218830906936 7.031630816057272 11.728988690464773 1.1196066690762845 0.7574302791442762 -0.0672996536879228
P 4.025547729434475 6.370695917930167 2.9321140643689794 0.5992503562350131 -0.906887991689193 0.13890924760510917
P 7.795704791062297 1.47612616989054 12.993002322691819 -2.5992073757212784 0.9615475880156021 -0.7695316903935006
P 6.9346832541460754 8.41873530915968 5.470075726482034 -2.2299337126228562 3.823545875190015 1.245451627298268
P 4.2351547549420046 2.19619749560645 11.113447667580148 -0.13970474692321103 -1.3349149615674236 0.5813526500189858
Ni 2.813978280381144 4.537205574696682 8.153288091817469 0.1985477852033484 -1.520144689505627 0.533513676158836
Ni 0.7333103512426502 5.099122856209861 0.7563010128419814 -1.7269572858209292 -2.184633188913844 -0.4641034038858136
Ni 6.485509357365827 2.978333164121333 11.620041338477252 -0.5728173588544652 -2.162935906446069 -0.098167804021689
Ni 0.27349432188480766 1.0659569524865093 0.23683943433331078 0.8263931794672349 -0.626304789249644 0.8600280939128607
Ni 9.272558277470013 3.41323114310933 4.500793125984244 -0.30823798804234015 -0.945117981704669 -1.796530823144693
Ni 8.427024852541335 5.274434110561346 5.769596790196843 -0.23117739831291154 -1.617512880444156 1.8961109341328766
Ni 2.877944835609653 8.885597916620465 12.783431663010148 0.8989486822374583 -0.5971973303607263 0.7855532626327374
Ni 4.694800144655432 5.2337510084531855 4.58064408745645 0.5965578970045146 -0.6362863259423881 -0.045874908155243574
Ni 1.0868906137821364 3.8972602852896023 6.32388843776456 1.5343598046637443 -1.34368165201646 -0.6690360095695833
Ni 0.21324920283584656 7.812246579542673 -0.026245869242227993 1.145356267236563 1.3022218422097767 0.12662117426637548
Ni 7.911777047546916 6.612295545622684 9.284729639647823 -0.06711993357694891 -0.9257084668298058 0.32399705064880974
Ni 5.962158500404415 2.68652072303151 0.90911394292884 1.3060826107167636 1.4896357222834926 -2.0429301806136815
Ni 2.353083398189491 5.986616849437123 13.031419554111858 -0.10986478074364306 -0.3831391082266047 -0.9403174749922322
Ni 0.7579486644905058 1.3366865391489768 5.659448433498912 -0.23795688312859023 -0.1389285308788188 0.9601612491910368
Ni 4.833540432592019 3.42657460382828 9.450791852289228 -0.2550385212012253 0.6267922704090237 -0.6664906174399101
Ni 7.119375026654979 3.126108961098215 5.465272640097456 -0.20116619666280194 -0.6227720935060371 1.08285892003329
Ni 5.451656901913102 0.59892650275253 12.730165985154851 4.00344724893677 -1.3196927453010303 -2.0673242931873297
Ni 9.098990717845602 4.551276351932807 8.124560021846111 0.7147314547241691 1.760789403879026 1.8773614214395151
Ni 7.182259931678458 3.706153208116382 9.147013189577722 -0.5254149583111016 0.008966979385300685 -0.35860152809655665
Ni 6.603232062870189 1.4105278147837526 7.995059451048872 1.548538667267288 0.9736952791217295 -1.5476094705847991
Ni 1.6199203751644227 6.829539394560555 1.6601848040466711 0.31491025785619314 1.0317381900980747 0.5814020151996826
Ni 3.0649677508018107 8.120013361156692 2.738224535289026 0.2484089316998496 1.9056366142351249 1.2496510100915963
Ni 8.005992510233337 0.8177704480281879 4.161803951727785 -0.6027480849756264 1.2173039612194583 0.9765985688114536
Ni 3.30126169774724 1.288590403308066 9.036891874134916 0.09656780652442078 0.31062679998949083 1.2150069376551655
P 3.1039164827536303 4.650070178849141 5.963731555487074 -0.6068585075995742 -0.5131412831500711 -0.6445061427490191
P 6.583491946628389 5.902527870566759 6.805615343430849 -1.3089069675394363 -0.5446208418155911 0.18181993092570622
P 7.199538361246741 8.815654311552093 9.129149176967404 1.0431428323905905 -1.1177361915264492 -0.7138667927310286
P 8.630291169950413 2.7322111196233023 7.298466461981631 -1.3129497701502422 -1.7572045147412447 -0.8284382349217216
P 2.7442398158688968 0.2275577566256639 4.503795637760276 -2.0983770487280764 -0.5199418510116722 0.6131070596124473
P 1.5701644657330345 3.649058861518108 2.853845482550166 -1.799591207237572 -0.5882259801000514 -2.085697910598511
P 7.207641413213735 7.3156012931606265 12.748957792553105 2.2672301350804696 -0.9701723535701355 -0.5322304385710381
P 5.133232135951244 -0.03521237645909886 1.187968028070987 -1.0251335402973636 0.7587942493713383 0.7760432662597732
Ni 0.21557288586251483 8.525828004028403 4.358764061950121 1.7805282770688498 -0.6463287977800546 -0.4560594505354146
Ni 2.8529643106158957 0.7784944236436393 1.628632321600282 0.7619978439103006 0.23519243300957557 -0.3171121506035184
Ni 8.957564953537904 0.38295172789142207 7.808799285742676 -0.8455589537624083 0.6457970936463007 0.3098366999880277
Ni 8.374480896460774 3.6193041563090453 12.95745053185804 0.19844211286341953 -0.40919132522896623 2.0138625738237637
Ni 4.4190819126508 4.337305427322225 11.551994351095974 0.0401230932731309 0.9913068215559055 1.6463634861272616
Ni 7.894498617978632 7.174035660291935 1.336125199990849 -0.2597279562570946 0.0025793306914020098 0.88801506604409
Ni 2.653138759807303 2.482974668500443 4.176407161952766 1.6656922683628603 0.7817624281317375 1.1300273501889764
Ni 2.272603028192806 3.6996633068862006 10.366645594943893 -0.5328500744329082 -0.1530387450279558 0.4233683880602967
Ni 3.033226912026615 1.591275293872589 6.425520664012025 -0.4765596273712954 -0.4088493685085152 0.07100255646080675
Ni 5.837097357733167 0.8973715110047493 9.982469550915225 -2.3180323053340013 1.0857372700223495 1.3833437464927723
Ni 4.132239467761676 5.8922521936189725 0.8555396217822805 -0.6969016256315999 -0.3546399723456473 0.8378610708975184
Ni 6.1724182458632555 5.510411022101853 13.580907182837922 1.2990529575634917 -1.230174132313907 0.9553903101649546
Ni 4.511329890912554 9.178100375944533 7.249526452489382 -0.3965625807213622 -0.33542380442851266 1.4592272851949644
Ni 4.0218085765705345 1.8340684666189322 13.423100945123531 -3.059335854119744 2.617909837226788 1.403203718641493
Ni 8.871042261706224 3.0042554707591256 1.7415649951190928 -0.3622841191544664 -0.6478586041610196 0.6924183930492656
Ni 7.885323240377342 0.8514927580841503 10.841590740316057 1.223757687264602 0.5439595540825084 0.5031646315533334
Ni 5.818616058540323 1.1215593677675002 5.736474050039014 0.3970071244579485 -0.09953305980033181 -0.4323407667622361
Ni 1.7184717632416981 2.772427993194812 0.8237353759260999 1.4509573318766882 0.9993978260941561 -0.8308041640507368
Ni 6.15834746862713 6.220393162284638 2.509479760809049 -1.6587456618416982 0.9019815555265112 -0.6571032626877393
Ni 2.1754596502962165 1.662244601721595 11.92796850270788 -0.3335785236896578 1.2152285667476685 -0.022377596364251785
Ni 5.291526048714971 7.313493940174965 8.524812558275576 1.5632520622180626 -0.148138479512861 -0.6838239665120351
Ni 1.3498621575947325 2.4370325084988593 8.200467622355324 -0.7816765532861505 0.5386443125171819 -0.05214274344182633
Ni 4.9779780332464805 4.325770933325481 7.018133499921227 1.9654782689831054 -1.2278100029571046 0.09724632064868413
Ni 3.9555575015124353 3.3029587696206497 1.920960411451641 -0.5995018101241868 0.16866513871130306 1.355874080317594
P 1.730901416028812 0.2143578942960025 7.945314731102364 0.6503281487474347 -0.3166046148394806 0.056623919141631514
P 1.0053565672926201 6.143064497195712 9.634227605120394 -0.9689845039096215 -1.0941211232106705 -1.089209544841666
P 0.8422754199145612 -0.12299015551144456 12.1048117840308 -0.2720497110472411 1.3039776485586188 -0.796899283773176
P 4.635141541105578 2.257208161912592 7.664245127954053 1.1210698838853725 -0.6370771972747996 -1.1680681070117818
P 7.5593082738388055 4.6416594160479585 1.7855368733247894 -0.5639709642074288 0.6314331116151447 -1.9149784604613407
P 5.429110089880663 2.8475747087322105 3.876818028871605 0.85018513968051 0.933208888971909 -0.2161791251318664
P -0.1494486249663854 9.107839735471236 1.9928556491744358 -0.2546615974777808 -0.8697885157337343 0.585813771114133
P 0.6632455267547471 6.575799175773648 5.331622635324024 0.0057906385398480914 0.7650543713484372 -2.3275692982901592
