# total energy = -340877.96753832005 ev
CRYSTAL
PRIMVEC
9.23033405627825 0.00000000000000 0.00000000000000

0.00000000000000 9.23033405627825 0.00000000000000

0.00000000000000 0.00000000000000 13.50952690782640

PRIMCOORD
 96 1
Ni 5.657871556123767 7.901867235943667 3.342891840301715 -0.045466359862915244 -1.6271136367587138 -0.014089902434162832
Ni 8.225178137865225 1.5089749691990788 9.066513833164507 0.7219698814541372 1.1779928223246616 -1.1628536526903779
Ni 3.531848772568446 6.494961297876246 3.6959631844528524 -0.05907238068212408 0.27757064086547034 -0.5851905357078373
Ni 6.8245949784490225 6.650427810025867 9.927543368653923 -0.04258775276353956 0.3767247200598286 0.266007104397587
Ni 8.18921675739055 9.08209463661452 10.653990945243722 -1.0421465299155923 -1.9383641863751329 0.9429837089704856
Ni 2.675532245515981 5.088683022507048 5.426803995006535 -1.720978956750307 0.07701019610746736 0.2789119853847132
Ni 1.1126428966062845 8.746950446764695 12.382912769400924 0.02973249406742622 0.20682056673510188 -0.33873050020424245
Ni 6.254206501438642 0.6686296887162566 7.819138523217703 -0.02929900607443341 0.5527874367867835 0.22024738166396904
Ni 0.8453850427362031 0.10757307917504787 5.091713341092734 0.6666181441567101 0.23916247340091715 -0.8937815362142221
Ni 0.23521567312578423 9.046594772829717 2.3280969431815377 0.9499827659961382 -1.2438513726906835 -0.7066965002348344
Ni 1.9129589885099185 8.541667823110501 7.278284345258866 0.9499971641738413 0.214886631572688 -0.8066807886399722
Ni 4.138004793043756 6.495404353898522 12.16083001520208 1.184793904406895 -2.677421105218544 -0.29207063425385826
Ni 0.5894961910043802 3.7859783226784844 10.567787011843034 0.27589196761146684 -1.0330309407675693 -0.3866640906607276
Ni 1.125694588595809 6.479823550448509 8.222060131108462 0.5521785995581909 -0.7753498397371743 -0.6186871248033861
Ni 4.726475493963244 8.94601182543944 5.404013377827373 -0.6720336587453264 -0.04943562892330841 0.6113432828438051
Ni 7.561590980502488 6.121548144102397 6.380374088048553 0.27862042228622336 -1.1391755923471476 0.02173996278025288
Ni 2.4078802563927506 5.201477701511286 11.102304565649957 0.28654070557456457 0.28623114475394573 0.03635668425216319
Ni 4.170809399359718 3.720489104385926 6.653347364605985 0.8286053566272051 -0.003991637657896352 0.03034158840633484
Ni 4.909633007505068 6.119065184310897 5.673055455220491 0.6608336762644491 0.6340070429899081 0.48288556958932327
Ni 3.3654258542013102 1.9644734814332123 4.697207951558446 0.2702113722869217 0.417482618703481 -0.3537801954485133
Ni 1.6006967961438503 1.6868158104735995 3.0621364693196953 0.42362704103832205 -0.1469046071057599 -1.45657107851904
Ni 6.187969626108493 0.9044573329728086 3.6651883285389384 1.2842158925506595 -0.554867973464896 0.15282611479651745
Ni 8.439589561645047 4.875720761133418 8.628196664260855 -0.32513862045242065 0.04196760268103741 -0.04084634459240062
Ni 7.373892142732343 1.4755888518538804 1.2581166493868394 0.5504443904759037 0.25419931312938154 0.11083048709102203
P 2.6125998296853026 8.061108954616426 4.894690943153835 -0.4329367484750221 -0.5575064395290076 0.8644560477772273
P 8.714948879489107 1.4746565881403426 3.330935788933942 -1.5920268203579098 0.7432722424763393 1.2637421980773398
P 1.9812911496120766 3.7597826353614607 3.531498019884145 0.6663474069938266 1.068954651247372 -0.01784294171869185
P 8.649478121864142 6.51504650421939 2.4628681239240064 0.8516882065885977 -0.07871663727561282 0.7097178035596616
P 3.6963887028409124 6.926507093906125 7.341063537548507 -1.4073632493358215 -0.4639172560169365 1.1133845994259728
P 3.952964291407262 1.4105796109187867 6.720921715303376 -0.26421401705290626 -0.25085970723318735 1.5528007849777516
P 2.9699706633192684 3.1004229708779336 10.30743067855327 -1.3000225205656128 -0.3408578309598904 0.22775654555682065
P 6.612731126797282 7.8175850580396 5.485880900410039 -1.0635725609998523 0.9472455695706331 0.9936256994970695
Ni 0.5544772276104215 1.4648539736475032 0.32979336534747156 -1.7773727621590036 -1.552381952272778 0.1801656831517349
Ni 6.248622149491213 9.1258464188142 12.229296016144302 -1.5533080636314733 -0.21394457937439282 0.3625756822529562
Ni 0.8418664394926338 6.892013336505237 5.698128733947751 0.31459221239514207 1.0045924829212183 0.5701336413747149
Ni 0.7730949145017196 2.7149088494956928 5.012128480058165 -0.8882449226667088 -0.22897010624894762 0.6897441886512122
Ni 6.145500860306653 3.413995870643233 2.1293170896876132 -0.14250647803806427 0.8316276883932967 -0.9712591588764111
Ni 2.9141363741787916 0.7581888484522973 10.761972928205992 1.9845594539842726 -1.4106887141646287 -1.8014259464534652
Ni 1.9210539912502391 3.3743885083185865 7.110266425211538 -0.9120145142824809 0.9802721610082988 -0.3305669905568436
Ni 8.574370895754694 8.567162005058924 7.165668734730298 0.04549824154211519 -0.8265818984392732 1.0344303922182574
Ni 1.2040324315343496 8.592443889330005 9.776695715536523 0.6494426608186878 0.1421182414607101 -0.2361072315143611
Ni 3.994823855178474 9.070842859715489 8.678722588434448 0.00037538106154774063 0.23135480443104026 -0.4080620967205295
Ni 5.728705137685021 7.476358078217288 7.645595325359252 1.2433163261228202 0.9544099485295563 -0.15902118786363578
Ni 4.225323750767166 6.844440196113434 9.565082928964072 0.15705840771031016 -0.27579915078734435 0.65628102389676
Ni 5.446053856141014 7.31107972124103 0.4885661830633218 1.4872541094251934 0.10872449649161275 0.34395626737955604
Ni 3.036724437342071 1.377027347565235 0.880247090455606 -2.042496178400057 -0.20491537929258902 3.0513186402422225
Ni 2.0944919633034 2.0439743464302254 12.198602387167803 -1.2576581966667888 2.4222324315926995 1.2536855851722861
Ni 3.7009300270692336 3.8387573713320218 1.9219594869957641 -0.2019005037256652 -0.020564968635545224 1.076614996006107
Ni 5.342314134592026 4.999407234018587 0.20826679057089295 -0.13728945261349906 -0.9359633117885945 -0.8525772940617703
Ni 7.369387739839211 8.201973078698558 1.5532168821234007 0.14030792772484868 -0.45090104626292665 0.2983631521307894
Ni 0.5074182168111331 6.938820359191857 0.3844406335616031 1.225985033933224 0.7188519046504459 1.788888476108087
Ni 1.4457656433544783 5.449256781968712 2.2722755765083766 -0.12563592753497071 0.26755773671415856 -0.2589903067601217
Ni 7.053996464315824 5.2583827093722615 3.753325093836799 -0.09996269113858268 1.8543919571275351 0.10315317305142235
Ni 2.182309359051871 1.5239834919536526 8.422379604279794 -0.2697688854328644 -0.8272897231395753 1.3348920787492882
Ni 7.69176637804723 7.000192848610775 12.86229846246935 -1.3366861945352333 0.5208864743131287 -2.0373614282766526
Ni 0.2925138932065293 5.104393050630224 4.4856219329540075 -0.6092164663087895 -0.6789010752891211 -1.0754322885519156
P 0.30863467118368976 4.8473836363753975 6.663654878357542 0.8008436131329046 0.4441012497322739 0.49156972762688245
P 6.534660963538867 2.949571625627013 8.714387675194224 0.2063351424582511 0.29103833633460197 -0.2021298461276519
P 6.318837298688042 5.457499470049791 11.706099466739891 0.055922265088916595 -0.48198799747571824 0.7750055690238782
P 8.080824947607674 9.166247589845423 13.206143164956606 1.748901651302504 0.04898877119387692 0.46042775480643927
P 2.058105987474046 5.346375481462883 13.27668968313676 -0.90824964792341 0.4112975729386916 0.7341795361464518
P 0.5208400451859336 1.369661541194909 10.743964546967264 2.239052644204989 -0.45503152349153253 -1.3496247569737723
P 5.888454524716636 8.725923746374216 9.905022277221647 -0.15543244207111293 -0.4595839187489053 -0.8885138600573795
P 5.3177891376923325 5.729932772080074 2.4474534664823473 0.09791943545630878 -0.3616040623683062 -0.262909953529502
Ni 5.988806713761977 2.765832601055953 12.728149406224826 0.05880550017398259 0.5045440283993634 0.36895613185800324
Ni 3.5626319357827776 6.270645725931812 1.2276593169555563 -2.029705968613924 1.0199671656050757 -0.2242297633504848
Ni 5.792255985880124 5.145061901341572 8.19000225879671 0.10737363889067315 -1.581731609079489 -0.20267363444626388
Ni 5.98009327865723 1.54537017536223 10.596115829300638 -0.5471513215469286 0.5834578692874468 -1.1020434633815408
Ni 8.230937866154802 7.8792436878062375 4.249881053835151 0.6305566225474625 -0.2176647085384574 -1.1227020201721567
Ni 7.40089086908974 3.6191400392904653 10.587915600755027 -0.982975675982391 2.3741715715297307 -0.29460008554393136
Ni 0.32587693471723445 6.299093614695401 10.61077359937091 0.13760004187538238 -0.10497171431739985 0.9941242364000428
Ni 4.371661462791159 2.400486759021033 8.691313686767481 0.7179180799822669 0.30327035962441967 0.3226521065851411
Ni 4.5371244264433646 4.231461922742438 4.225009919418055 1.018564371720278 -0.5656483519098516 -0.8262224582173255
Ni 3.776692606878299 8.501663556432566 12.987991609922075 -1.1350294313892582 2.7211928509878556 1.0685599869121145
Ni 5.190152081941875 0.28518870030491206 1.4161898078008468 0.15870339951290088 0.13783092693926585 -0.46719515543725987
Ni 8.729385121548242 3.7175077065693656 2.4958988734180054 0.8116761849720344 -0.3658672085200344 -1.284314880022369
Ni 3.4912260735260854 3.8124601503432274 13.094891797763294 0.6669724421723352 -1.2121257594526287 -1.4749400679445308
Ni 4.805514842270387 4.1685571979131515 10.518706557942116 1.3784666209061291 0.5383080122236859 0.9695496323844721
Ni 7.243947503532534 3.0085903799275937 4.078337146277217 0.596440911810676 -1.0614395738172493 2.285648232576341
Ni 9.111724008104176 5.105288393008572 12.636919556071456 0.26577879043686486 -1.7665137079573126 -0.12284525216371102
Ni 7.318510139947938 5.427510115542035 1.0763104567129553 1.4115348642150076 -0.025902064577742485 1.1560548846009897
Ni 1.5359090832198943 3.3360457017241836 0.9505979255592556 -0.3440061467808849 1.7456947143294321 0.12434317686547616
Ni 3.292672363210197 9.084632978408806 3.16929418347386 0.14309346088978583 0.03369610670086455 -0.9672628932328247
Ni 7.9349856736087405 0.9985005888676264 5.695170411965684 -0.38649594051397956 -0.11784728472848735 -1.0819713752220141
Ni 8.150818568793364 1.9873647092507665 11.842356731223742 -0.2945427499434347 -0.5057460191272645 2.5472839473791096
Ni 8.02227694033076 3.1445624270971044 6.635190374993118 -0.31002259074658867 0.7301277346745813 0.9790483159035268
Ni 3.183929800743019 4.748065244715365 8.86792320151343 -0.5471209825296255 0.2682974430936605 -1.7596023255494597
Ni 5.7820472367002 2.0794926708826234 5.765325563992828 -0.050963121311428355 0.40607154865306194 -0.028384207569647886
P 2.22819334835875 8.48293520915764 1.1686267171542797 -0.19289264380010004 -0.35746638605084885 -0.039744883998105746
P 2.8826978572648443 7.801828878247438 11.130229094487234 -1.2574077712188796 0.009205577758668019 -1.4213953019488554
P 4.678874662570048 1.9762790783600879 2.725114829575479 -1.4863670788345498 0.03165902166617774 -0.06075902435592762
P 6.215522172493735 4.304778464095192 5.920334251586098 -0.17014326591872633 -0.2825223284437909 -0.6276296787086546
P 8.660554522421023 7.4660201043642 9.15606837773365 -0.6064414746668136 0.5715971132941188 -1.911526240246682
P 0.7650599089310823 1.3848454402916333 6.865393053833533 -1.530113627792881 -0.45350634509625765 -0.11106420036838292
P 4.245565872784866 1.4977970349704266 12.868877844400139 2.437673191627802 0.1491296397815367 -2.9633897403397222
P 8.340206557648433 3.297389063780669 0.193518563229406 -0.08483894812326678 0.00844324567134675 0.7014015703844824
