# total energy = -340893.686894495 ev
CRYSTAL
PRIMVEC
9.06262171401360 0.00000000000000 0.00000000000000

0.00000000000000 9.06262171401360 0.00000000000000

0.00000000000000 0.00000000000000 13.26406294230119

PRIMCOORD
 96 1
Ni 6.406340066951932 1.8320633452606743 11.522796286096794 0.7674727509819428 -0.030318191367567145 -0.19701129395416395
Ni 4.784565794800286 0.09259552433532464 6.075126620445714 -0.4332892467184344 0.34099024277269663 -0.7510997089405581
Ni 2.9010448837271197 1.6879314103043743 4.803301858830006 0.3852037040651173 -0.11540987893158833 0.5942536743513701
Ni 3.3998062670470373 4.336627593776328 4.949206442583932 0.24935046967751254 0.9634473761414762 0.05783773694407458
Ni 5.276548337114964 4.82718730448964 2.526989705825095 -0.8920586399858443 -0.28249584608122963 0.07632936799035887
Ni 7.232416156937888 6.102579113992597 2.4670758077372184 0.2641183720153064 0.17807434784034493 0.1845059623983016
Ni 5.100289408357101 4.37141899834733 11.345748002991929 -0.38457609778344737 0.08080745836637052 0.3702221430546204
Ni 5.86143181411507 8.000582094486045 12.442977733187425 -0.7296942466815884 0.3658641231962409 0.0061683335942409896
Ni 2.0288219242242196 6.237920305934082 0.49381319189095985 -0.2137563746229867 0.9986270093664026 0.39661940210122665
Ni 2.5732951712211727 1.681632888247368 0.3332552551672873 1.1428160173132125 0.2321158509667809 0.07465892226647142
Ni 0.6466688064617552 9.143369623790274 4.701380896801646 0.0716090796965541 -1.8348834547809623 0.025393500372440137
Ni 8.674832083722324 2.4621693043679187 1.6163457617744565 0.7842021479214818 -0.2516474932418053 0.0036152281550840965
Ni 6.960410630291864 0.6927576752000447 4.71025410967361 0.07879171348792237 -0.1612333650236062 0.007624606424793321
Ni 0.6412004205492405 7.211146183890703 2.4956203471947043 1.1489031040475566 0.7310296776635604 -0.45001684388576046
Ni 7.322625492988883 3.914300361576973 3.743569632034611 2.194736595896433 -0.17765911467979728 -0.4958683550022364
Ni 7.500669758214704 3.815599349026102 12.513237520167786 0.8096905220005732 0.5776314924136569 -0.9057824173298402
Ni 7.83426486169442 8.769608981092354 6.970675861851534 0.3443357622061618 -0.2549035382852578 -0.06519006354408773
Ni 7.156444199522228 0.7692144828747696 0.6386656052696079 -0.7894957922202532 -0.4313254381238443 -2.0879388841138877
Ni 1.7872305558851198 6.677937775623044 9.318852792133637 -0.4612718479742895 -0.9236053044438739 0.053275571494688895
Ni 0.020318397772385838 4.846554126987225 1.5166795800162882 0.9360129340796073 -0.5139419246744955 -1.3122393743467786
Ni 6.360809455708192 1.8502792148068363 6.841285187295128 -0.9637116855464566 -0.014721879591206903 1.155367628725978
Ni 3.4794395236152598 4.259885313519163 0.20919793346059132 -0.11344478478541753 -0.6317997509259442 0.3040974835114053
Ni 5.913976894527334 5.547665726837844 4.879928137529862 -0.002463116828511887 0.9735685237358782 -0.6680134818423398
Ni 5.295724844557591 2.717182415392524 9.368884807558262 0.06984350315569907 0.6701135589044781 -0.05546075207146577
P 0.20389176847587592 5.703116876253426 12.713312112398466 -0.4684192576523481 -0.27632339872193057 -1.588142140591523
P 3.9449048349388587 6.1730047469494265 12.62009217343044 0.33606272356409217 -0.5982211436395504 1.5760579557334793
P 2.3443008469960858 8.48996366438294 1.51483533650751 -0.42157041561960945 -0.4617644713399919 -0.34958081265518504
P 6.434651697032634 7.551828257512259 5.813519545897832 -0.5709821054179393 0.7555739426618278 -0.6538099366484482
P 4.704434094040502 1.0550522889677139 12.621843071936071 0.4058928569833526 -0.5930306005775465 1.1266491777453629
P 3.988840424769602 6.210551188506516 8.331635132588797 -1.3866170179274053 -0.0809576107909896 0.06681191541822687
P 4.800135378820339 1.1396065490998994 3.877284989649439 0.4635855837091306 -0.5849187701036894 -0.6348724763139969
P 0.11305529900568069 5.437944566342628 3.5254549851180648 -0.013073288244190389 0.060908919670230585 2.3520379728554848
Ni 1.718943701641174 1.239123197600599 2.6785185525841704 -0.3902322676279602 0.7527277314622843 -0.36061135943773376
Ni 1.7223784352521168 6.695238320381065 4.893471319345675 -0.015976320823598292 -0.37871758212014134 -0.2643826814202866
Ni 5.886073082421546 5.867594396847106 9.33961163331893 0.4261372090546855 -1.0092808895358232 0.17157794148272387
Ni 8.61392220351349 2.2755789869122314 10.167952472458907 -0.24912472681995165 -0.16990723864852028 0.02994383874728392
Ni 2.3151101426139022 5.209457748930767 7.206961971468085 0.06731919407194857 -0.007641318595341679 -0.7351215883447468
Ni 0.6384354146793231 -0.03821163798728263 8.997305537895048 -0.16401761263696268 0.3457251863545207 0.9216965174569351
Ni 1.3470137085195346 1.0597195391250638 11.426419836002932 -0.002002118031693326 0.8113100598818671 -0.5544062033371291
Ni 4.135836148171965 7.005886865805615 1.6191968625501891 0.4511807822868746 -0.16239498943187516 0.05605236290887766
Ni 5.59227195067178 7.695797065278594 7.901840300137683 0.17701428200694674 1.1354408078950637 0.055489034206239914
Ni 5.3605950904339235 3.093670907211536 4.654930429458932 -0.9739870993305354 -1.2259048155145917 -0.036845965183755894
Ni 0.9150982225988671 7.623803598773761 7.067185532483867 0.03291372000888525 -1.1081277219024077 -0.3864679154895215
Ni 5.102654752611602 4.774995666322303 7.105107166577878 -0.40009630490623355 -0.5885365693619348 0.3100950958557369
Ni 8.224809479715471 6.980303084846005 9.154087080171015 0.23089534829611846 0.5215102239400566 0.075255932420522
Ni 4.555924912820125 0.5229468017566551 10.51227409494103 0.7208002866260683 -2.2981479077052485 -0.5938541249201063
Ni 8.21852002028013 7.121734358546208 4.561020824982217 -0.17063203262968676 0.47599347045518026 0.6244577087385762
Ni 7.338213202252265 5.998667093984491 6.942861769700227 0.2878990193746719 -0.3559586911570708 0.8814178724425465
Ni 2.259538146565611 5.361918233196978 2.9057719471874575 0.963007203280264 -0.7217030009459957 -1.4931275374868351
Ni 1.9983624528089705 5.137328343100964 11.44790731197007 0.8050622791999426 0.522274612909907 -0.10568596677560509
Ni 1.183161508820723 3.4718178587951987 4.016689861145402 -1.0339835344888257 -0.5498867182002207 -1.4848568128376105
Ni 4.031271619403996 2.8078086320400972 2.4592765155325287 -0.7868727527751094 -0.49095163442690937 0.40537966479235993
Ni 1.1080505004632144 3.1504119814545817 8.072136930102303 -0.023985050060687726 0.30356475093638685 0.1269597885527168
Ni 3.721900903634176 2.792982182996554 7.292196834487293 -0.2902621202902098 -0.13576735954201782 -0.8141729832519591
Ni 3.9679148313456776 6.752677216492297 5.996762130910559 0.30596307596523437 0.11616886858479993 0.23953965423467777
Ni 0.9272330730079771 7.676158364131065 11.59353367323889 -0.8494426050875307 -1.6961480137495564 1.0542656817766294
P 0.3048611552294363 5.536545890055187 7.908074477580869 -0.496577465254119 0.004531055101134132 0.5182788614869526
P 8.577726092584449 1.544080416619682 7.891706476592151 -0.41453639159096345 -0.19824799457474243 0.7142707130376666
P 1.632975672529286 3.125598523336476 10.304227114431862 0.43524611333448915 0.5816452415587402 0.6237334289780418
P 4.030628173265798 6.338370404466253 3.8003659882698115 -0.20775079185885514 -0.8616810561352514 -0.16155475291876692
P 6.91028526986409 4.157767692600678 10.232348743222175 0.3600583151477412 -0.7575755464728889 0.3631454387134972
P 6.357030342473988 7.8368658341122055 10.075634264346524 0.04817116038858801 0.4039395899117237 1.0118406798431994
P 2.6031655722282125 8.512991786033087 5.779802061994102 -0.9149635696084758 0.40270520328399034 1.1722160677418842
P 7.039028873233633 3.955580603259943 1.3372432961027598 -0.7910808773191861 0.3830810012951596 1.8731101023623289
Ni 5.443962147128027 2.8623746770836007 0.3840530621225849 -0.49336461474377613 -0.16777759390002717 -0.32271715549512164
Ni 1.3652748911740207 0.9701808370772619 6.7511691962472815 0.6110859154173605 1.2409851068864821 1.1115164358689826
Ni 6.840013701475563 0.7875218848997458 9.168385178371505 -0.34732184141767924 -0.5679078373679897 -0.21769736154860572
Ni 2.839482494758424 1.5834756329963817 9.254721149922982 -1.071487959192187 -0.37317068415998317 -0.2994684693798262
Ni 6.406358192195262 1.8374102920428812 2.5157946492826206 -0.12436837367645677 0.5402327400502244 0.7962040574783643
Ni 3.858719302907017 6.638370369434713 10.663749472232285 0.2626212186444897 1.1902690685888533 -1.7533316620493995
Ni 8.26667879180665 7.463431445794217 0.4425631601145909 0.010372601483575685 -0.6974004196448892 -0.8767767741261094
Ni 7.742233938688809 3.6214508051020062 8.217909199579925 -0.7947197596233538 0.449981876882767 -0.7896071209871369
Ni 3.1934322464971845 8.34634829886153 12.625438213950481 0.3543509803503188 0.01069038983431062 0.17829109183684133
Ni 0.0022819681351858847 4.726791581687459 10.109762285011668 -0.07596992776841109 0.5055704127813487 -0.21138401773606819
Ni 8.425020917533288 2.3007005741669384 5.776141669103707 1.185917476488377 0.8621184007829863 0.011306426151754721
Ni 3.4920003172426135 2.362145149053993 11.47314943209292 -0.19164643009782475 2.205486121103453 -0.1160174306086002
Ni 0.9222395684706959 3.331011905989865 12.541065206251591 0.744515113744505 0.7700875628969706 0.7453165265998777
Ni 3.104691055155881 8.353426206381707 8.232168328507253 0.6049072974104743 0.15143720486879078 -0.5160389164128403
Ni 5.669766428527119 8.025123673954209 3.7442991730786237 -0.6847881301975175 -0.6584325230221241 -0.6852517000974973
Ni 3.096743135955889 8.54113122630216 3.6664385653080283 0.8261795207945319 -0.7615756687712174 -0.5174126568319154
Ni 3.3495087168076343 4.274331132452786 9.37453535216624 0.10784543632076911 0.22661986084921615 0.13103318729114208
Ni 7.383372246007751 6.185918982821706 11.483441851517584 0.460614931116581 -0.1647056398429228 -0.23458668110477665
Ni 0.6830914829324146 9.445064299010046 0.36923295691420727 -0.8960998999347535 -1.439749636086327 0.9093163986250274
Ni 4.37930347919567 0.39640269666514966 1.4560225469519013 1.0205042690554682 0.11677564893086341 0.5768982137920581
Ni 5.925359547338268 5.604234611269259 0.1494272247950176 -0.23329932975192078 0.4021141066672107 0.747420717427074
Ni 7.981577776855049 8.732062539535265 11.198530245358779 -0.136587541450468 1.0576867916430366 0.3941280031379406
Ni -0.03022021820329965 4.843291583187914 5.721864721691309 0.41831514190710534 -0.4555079489073187 0.19925920944807618
Ni 8.032219706717713 8.771539319506948 2.5142830039889392 0.131620941473812 1.0995299529310678 1.4392564984999923
P 8.787951727341824 1.6173970258875683 3.714799433297672 -1.2260359417758175 0.8562259465579513 -1.3200105336517653
P 2.061963931652237 3.3036427885622976 1.6388808768060419 -1.1098472756966757 0.6564622866696308 0.4335396721663437
P 4.660000060018197 0.9285380905277021 8.162332672220801 0.8474124620313793 0.4483749374069633 -0.3276655006393324
P 8.562509950809321 1.8039873433432563 12.49612638420256 -1.7756652925495935 -1.402667643632365 -0.5152447026463192
P 6.365830148110468 7.809868284172893 1.490774982249746 -0.9970784339323602 0.3491285556091148 -0.8751235547934025
P 1.8448325791863172 3.250327385308531 5.997916708910648 0.30475002949373964 -0.397176045935645 1.1215118565187974
P 6.7517981421908155 3.8261119901572203 6.056676028998435 1.4641275507100593 1.0123091348391857 0.23627281055794788
P 2.4284291639100277 8.532530798342304 10.488928781532616 1.0587910804508087 0.18035440212377324 -1.9070759177848127
