# total energy = -340866.4337060525 ev
CRYSTAL
PRIMVEC
9.27423904778592 0.00000000000000 0.00000000000000

0.00000000000000 9.27423904778592 0.00000000000000

0.00000000000000 0.00000000000000 13.57378630088137

PRIMCOORD
 96 1
Ni 6.693951024225511 7.801443560734489 8.761390372534645 -0.4217501357305833 -0.6713016656753085 -0.3430108727471512
Ni 8.71390812318432 1.3207165676846824 6.318272001561895 1.401953905394792 -0.7020001232004298 -0.36790095112061155
Ni 8.965397664891576 0.8192510400914818 10.092300256415458 0.94550776094392 -1.6144928626709096 -0.15656835544776906
Ni 6.226946714284552 4.840243935394827 11.780811816103824 0.03690150101203967 -0.7303046265720776 0.2301139900454037
Ni 1.652734327507666 9.015728960493794 11.72384202015297 -1.2825135651475719 0.9918416110134531 0.5325428276051345
Ni 9.056211014170534 8.31936344334104 1.107686368106193 0.4467821389985467 -0.6273255172046744 0.8800217634259682
Ni 4.603695192879603 7.1263531480798905 6.330406416001906 -0.19628855685552646 0.04747670542472469 -1.589578101707101
Ni 3.785067381655722 1.9552971039452363 0.32999412085110164 0.008906815571326597 0.35766693209742917 0.2018889337614394
Ni 0.7351707883999965 5.121262654400308 0.5143771232698922 -2.985087279917814 1.5827860184859321 0.17509418216609843
Ni 9.050247678428462 3.7161226881773963 6.533239589688625 -1.0938239036852258 -0.20064554827264153 0.1544091430129212
Ni 6.2324834350279685 0.55244045538904 7.710833317291849 -1.3597780433576905 -1.4656275322943533 -2.3177227445133823
Ni 5.362578355813549 5.3252309949530146 8.062869522214774 -0.22976766244957847 1.0663025583365056 -0.5257170629325526
Ni 2.8190719111137623 4.924018137195973 0.7543156001766051 3.325779017613485 0.005004395193126864 1.6299277091687412
Ni 7.473126222312884 2.266438551551417 8.152538430388642 1.8154600559490284 1.3876642282449971 2.1570018003498204
Ni 5.017891985378325 1.1783199005248475 2.28600163151149 0.1797998151718839 -1.5365935790902698 -0.05466011054704135
Ni 1.9394474293212844 1.9274465639243308 9.741675590683736 2.0463595180102048 0.5842099169621229 2.564344759516138
Ni 5.234269257848438 5.378678434893233 0.5252326201378477 1.0829882465223024 -0.7359541115483712 0.28556060104948244
Ni 0.6269367083933444 3.164379655568766 4.156320737420245 -1.1942383376492465 -1.6149366350765477 -0.5967381313361207
Ni 7.850068396342085 2.1188297620167074 11.593723518139216 -1.830225130073345 0.7686644572971988 -0.48058880313534647
Ni 3.8052017547444286 0.1724656051737477 8.430448424447402 1.2659016676225037 -0.22897576267590244 0.5992603835373421
Ni 5.975540640729204 6.837349309208276 4.461174250915811 0.22887548965261226 0.08576840191607164 -0.13925891763504403
Ni 7.807601655497686 5.788358672949672 6.683949684778777 -1.8684198959755112 1.3167400904306097 2.3407431166679555
Ni 1.2378883382718593 -0.046953617721558705 2.7839429482462346 -0.5726551222449879 -0.037597498637799764 0.5437813766334313
Ni 8.496204634522735 9.083644213431885 12.771846804795116 -0.30044343169858584 1.368816756521191 -2.3420929458276305
P 7.146394778777585 3.6963036392181303 10.029616601754354 -0.2252921431767281 -0.6441945250458712 0.5632389711374106
P 0.6965101952827315 1.515744541743831 8.359701746311712 -3.58506860078158 -1.3496867205599594 -4.276981000728705
P 7.174171124885682 1.365167995696737 0.10948702970922439 -0.48394769230525037 0.17945554445858772 -0.12086910227394668
P 0.1404546414920435 7.285601107686607 2.921825843235515 0.4992133602150693 -0.15981488740952476 -0.24581828815453793
P 2.867687472482256 6.040413943242103 5.08180818641598 1.223763343691557 2.773425840150643 -0.5225288950125582
P 4.398845799612283 0.8986607849716023 6.372865737455023 0.7449727701072137 -0.13483739152858068 0.11819978297189966
P 0.5768298493773775 1.685092147731755 12.002443872448678 1.9875573602703318 0.19651044305834545 -0.3287854731763886
P 7.6403129305902295 8.075478777696766 10.827999676444223 -0.3558221655792066 -0.594785378485124 0.3953469631467062
Ni 8.034978175541823 4.079802700291879 1.8921182049161271 0.7188794154542716 2.439375519030889 2.459549422875603
Ni 6.608757863841882 0.511749731332522 9.944454973783667 1.4759114307188648 1.3603141183668184 -1.4009504038309422
Ni 2.9165998095019883 7.724986733584191 10.499228827730569 2.1819656693840104 -0.6746901225315671 0.0454866715778894
Ni 1.847085282112427 2.802712153339244 6.993716690150159 0.9404881962421415 1.32516585260046 0.20636136771049624
Ni 5.334199184163875 6.650482665558183 10.567083798114504 0.4663921999199903 1.0303024860928127 -2.1182604179155646
Ni 2.7855733594802254 5.341553655771127 7.222191280103878 1.4233136020174906 -0.8687711302128134 -0.2557090649056887
Ni 4.960438074146387 4.259064467878986 5.131162904640839 1.4253224049174034 2.108027427333647 -0.5047674572640791
Ni 7.25881710516234 6.951496644065854 2.088408402916949 -0.17841810433300886 -1.7680190888582457 0.3965643804935751
Ni 7.5197385480355186 9.02050519363091 3.44132141906536 1.4141985270901 -0.9975119219253529 -1.6640868715489536
Ni 5.00927621725331 2.3088681954394104 9.16525102555508 0.9040579784395656 -0.01973295965255311 0.27164219119617733
Ni 6.049261567344648 2.9248631565411585 3.447564836828288 1.7902894702206715 1.1895756420662544 -0.025946544662432736
Ni 5.605489226352197 2.46775445972118 12.337960802684545 -0.4470433630797333 -0.12291698594191089 -0.44648749057626325
Ni 0.024539636661776946 6.937854238347987 10.10398765253079 -0.11180442096851712 0.860114225868764 0.004740085788146675
Ni 4.008622915190164 6.430284406578377 12.347490083361029 -1.1424061834693033 -0.8034720518946873 0.60104370069001
Ni 0.7578824725349269 4.098258436103268 8.801853877733185 -0.4619729878063721 -1.0553242049481308 0.04770990448145332
Ni 3.787673442843159 5.2685653940446775 3.1819394998829797 0.6013907996167835 0.005751300661480417 -0.7565417058917357
Ni 7.456553157039039 5.660745142917151 9.154174801796517 0.9387658142343961 -1.1863841317121504 0.6851457706472522
Ni 9.227719517869037 6.745960957105044 12.500330471172726 -1.529163862285102 0.8995852873801927 0.12086987360489507
Ni 6.2847437723632344 8.734942097465842 0.8226611778089933 0.07648543395224892 1.131110041730194 0.41588390675779335
Ni 8.664847398338967 7.379224551413228 4.875092816241499 -0.6782369593425609 0.6967525016482452 0.36044809438699216
Ni 4.456401727474334 4.421512039975617 10.070812771841885 2.966551940117788 2.458793004325553 -0.5351558397479493
Ni 8.69931974507813 1.522357074222987 1.9961065382622494 -0.021715537300220668 0.4184791782887954 -1.1231812738014206
Ni 1.959349946432461 3.6440340276437633 12.636149847961988 -1.0409579089241299 -0.8256653001622747 -1.1129606245146766
Ni 0.3493819176921616 8.238835225225314 6.832093597909625 0.01231069904655299 -0.7692594105687203 0.4270790041426645
P 7.677558274820651 5.380486911517967 -0.295106288200205 0.28814893060194896 -0.6860448854227539 1.1683301024239168
P 5.569412436248526 8.281849146176683 2.852531510943074 -1.1384759951769619 -0.012629001617920185 -0.0015416334555070224
P 6.640522132763494 3.833145037156346 6.9657956659120845 1.036685506801021 2.2732046074963494 -0.08381924860950081
P 4.296458199935027 3.2815596666124365 2.067722212601721 -0.005759528191596533 1.2247151660818647 -0.3404261427391105
P 4.673873360158389 0.7711835862538688 10.548461125999294 -1.4268144160818976 -1.931055054308229 0.789329441845718
P 0.8924971256649443 3.408635290777088 1.7675512624283505 0.676495551171422 -0.6491217871441595 0.9507661811293819
P 6.501102496355144 5.144763576282751 3.5057421387101195 -0.10559109306895362 -2.0430669633018623 -2.056505348194955
P 7.464510454187869 8.092441361012863 6.747515319578406 -0.8566686905223245 0.8615231904011484 -0.7086921905086246
Ni 1.9678266009709586 8.264200269167098 4.85710821177645 -2.220175090574196 -2.1903369241668407 1.382299364388658
Ni 4.612969431980804 3.1990096643726496 7.058410072424495 -2.317925604552808 -1.1649403600160775 0.1676950614885499
Ni 1.942155507138835 6.005366593678666 9.273597323854856 2.053067783268316 0.057565971339926664 0.5639092577315579
Ni 2.146077476496035 0.5985380608415579 6.738543420671904 0.22812369908825228 -1.5453463855822351 0.23672378205243746
Ni 8.860895538699248 3.109689467588986 -0.047668661556261274 -0.014299447341807632 -0.967763744128643 -0.29740901574763623
Ni 1.2099728785772452 5.375478822403319 3.3368165106013006 -0.41990202677825106 0.5487888571503516 -0.848465328775926
Ni 6.114737695399126 -0.03230959418076286 12.015067966713232 -0.5755774380981055 1.8483421513890297 1.6144625236536068
Ni 6.313095121295605 3.1432807616135348 1.0234540188934482 -1.8381351289490406 -1.2416191409260553 -1.0990586697216038
Ni 6.371977265349128 7.220792724847417 12.7028112237736 0.907289855113302 -3.131054462810969 0.10328481353328017
Ni 3.744548231022576 -0.26592118517263663 4.0297589061018 2.058203047612352 0.8790699410356603 -1.596750193975508
Ni 8.949343957007398 4.413257967175548 11.372484689532252 -0.395724401090783 0.17501473507841472 -0.3664619046812398
Ni 1.9907432457900254 7.140913703468776 13.451704176347732 0.8597337026008935 0.3838667304212486 0.31309557324495757
Ni 2.5733416718883495 4.064082865015344 4.941320157663172 0.28415806427500095 -2.507504353488327 0.6235138567680681
Ni 2.562908152899499 1.9164009451548008 2.5232858211874394 -0.1939305981463112 1.0796255006976567 1.1161369653601294
Ni 4.217423134314595 2.104028076411191 4.569506637856937 -1.5798531611098534 -0.45213286178749873 0.36053371212226293
Ni 4.04667511822239 7.142017337921819 1.521906346202669 -0.32863120698671144 1.3275045280359654 -0.21564150746084151
Ni 6.000135922825589 9.025930623505113 5.108820335222137 -0.7754408567890838 0.854661944504941 2.1117280161136858
Ni 1.674825565046726 8.645288028074535 8.771883246653745 -1.085684562407543 -0.17593544712047118 0.37656042656782246
Ni 3.325621576582241 1.884479014168468 11.58796885277692 -0.7533021159085156 0.030134100381219067 0.7809319618106423
Ni 3.8473438972202842 8.80252347779629 12.876636432399582 -0.18610750255746658 0.41893760598245267 0.5540549906452973
Ni 8.177337745745254 5.09316170992367 4.743821526307464 0.44153246056383316 -1.774429106149647 -3.341892121125264
Ni 0.8938993906170459 5.681157743178892 5.829534439711183 -0.3937135413083413 0.7781094047601825 0.5605017747119058
Ni 1.4661737337479137 1.1096719826977601 0.4103016120762184 -0.9519244631035414 0.2879095608976332 -0.5782107619558946
Ni 6.511702951647817 2.1199704934261554 5.796645205586595 -0.28798155178614915 -0.27571250461080904 -1.4306152778852264
P 1.8714116112748762 1.3606421670153512 4.840384903829165 0.0382119922933471 0.6014262808404094 -2.2538750539298023
P 2.9303998772845747 9.23066872590322 1.4516354365328714 1.4186925583057115 -0.9413412882710563 -0.4782557841267957
P 0.195648420655019 6.09809043621247 8.026003494363591 0.3253841608043235 0.2429178266782913 -0.07190578500136649
P 8.035441887496884 1.6573899955364688 3.9806212050719085 -0.5830534347601765 1.7019638491003848 2.270958234664334
P 3.7811907497114197 7.190197010052556 8.160112701462593 -1.1327002690354493 -0.09542829360333888 3.392634384675138
P 3.1284883502471197 3.5636820200709605 8.933845776045382 -2.641316389076186 -0.3256669821520649 -2.8845597174146964
P 1.5589810444336285 5.685729943055785 11.469306818324876 0.32229395191477395 0.581551139183037 0.4081533708827551
P 3.930895517283001 4.069211519238308 11.91933185131936 0.2904616378955256 -0.540563898137398 3.7473481476815143
