# total energy = -381165.8437413446 ev
CRYSTAL
PRIMVEC
9.22765065658706 0.00000000000000 0.00000000000000
0.00000000000000 9.22765065658706 0.00000000000000
0.00000000000000 0.00000000000000 13.50559948113468
PRIMCOORD
 96 1
Ni 3.190321873177958 5.549859883322211 0.06844794585064323 -0.03388045479752875 0.11710063637044993 1.4959896895259783
Ni 8.334608045507885 7.625583035690033 3.195911061309283 0.821774963968933 1.009290659727836 -0.5603997019164026
Ni 7.590757881310598 5.478705467471703 0.6815330695839751 0.09582347215922853 0.12770617980043814 0.11084205705524783
Ni 7.24425036353049 1.6144421130796591 3.1086516263971893 1.2857492984760504 1.1193390172371949 -0.5222540440846166
Ni 2.7445248320479005 7.483800180088548 10.955945583985418 0.5223172932223843 1.1106792846796678 -1.1605396598452207
Ni 6.888958122123139 4.6885048129596605 11.964651474483778 -2.7419956466658197 -1.360468641666812 1.8196339848210599
Ni 7.35087586932126 -0.220688498181914 6.651953291674739 -0.27691655222123923 1.493613218874002 -1.4811523674028297
Ni 0.5627455199479249 1.322110133551183 0.0842835175068559 0.7096656101654876 2.435544318210257 -0.07389813284104693
Ni 2.133765076333545 5.2313398306276415 11.470157351422989 -0.4807363844568044 -0.9705258802548125 -1.3069758119549941
Ni 3.6895101022357855 4.058237803308335 2.098837495029466 -3.6437576299823564 -0.8663213831207403 1.1576433121340322
Ni 2.523974748629021 0.5850708984602733 12.331219905252992 0.16647867258294555 -0.06892921887154581 -0.2607240016217768
Ni 8.101065429665516 0.3021511228181305 8.754910932817193 0.599605939802219 0.8310949558182783 0.6024300395145755
Ni 5.267576815590026 0.8217610660140411 2.5965188487003927 -2.374890451973626 -0.08046395898402271 0.5645571757282019
Ni 1.0940764252775812 1.9443952252008625 11.20991821885165 -0.33763135360279267 0.5054973934515681 -2.0127202326892046
Ni 1.1745415408548638 6.792612219400385 12.831090057710037 -0.808906078426065 1.0901371988622581 0.7786292818193945
Ni 3.7082330058488937 2.6258664695240155 6.126342607118748 0.2447803338083268 0.34141756011810237 1.1055033969056831
Ni 0.7292603254083813 4.8522033393749116 0.6540494342358814 0.8993065797975093 -0.18182533024234493 0.9997189568790008
Ni 4.30971897243995 4.257942623414246 12.162914012758874 1.104373397066298 -1.3302175560917542 -1.2951520798471887
Ni 5.578797796447251 1.4658584787877549 7.980864203916342 -0.29969935444370965 -0.5906479592779827 -1.5675265212237004
Ni 2.7455952395486993 1.7707585187997472 0.9519419961779894 1.059395289693711 -0.11737163064364947 -0.5061702511488766
Ni 1.7951841106498694 8.815820810672989 3.6971173776121513 -1.0095269441083583 -1.4730533924447793 -0.872817018147413
Ni 1.0723176245285868 3.795268208844872 9.315744483505071 -1.3200359875730623 -0.8104148017611075 1.3765550057057132
Ni 5.980717357695431 3.5014967157808385 6.732312289267028 0.40908565288903737 0.5000903635033839 -0.6719459841275267
Ni 3.0444327129397886 2.663801342246287 8.755328945401557 0.8479811900506556 0.028129154136048332 -0.5082626149015311
P 7.519243587076202 2.3443954350682987 7.890065964896004 1.008542725818218 0.38257732218586366 0.4796436656132578
Ni 6.0597890979915014 2.163136689049427 12.511114804473435 0.7037322754001879 0.5287748759222699 1.1586892369000432
P 3.9843796857532237 8.202957150560511 2.763893671221836 -0.5409143394982813 0.508038671816183 -1.0138762222159892
Ni 7.200981908605963 5.033415947139439 9.866866854418461 2.4603950587053496 0.5537731977388205 -0.233985557185668
P 7.363259376787396 7.972847220841395 10.070571861176065 0.8842699971793611 -0.38924522112434257 1.4016697984954698
P 5.438242218411339 5.002134210693684 0.5028469926273679 -0.7031254950541246 -4.062758227992261 1.0611536671457142
P 9.080534431150683 4.840142799689189 11.43854065125069 1.0734869919000867 0.4610864714363608 -1.340216576285995
Ni 8.450202827943276 7.39781692929163 5.6314166299972905 1.2331710101587021 -0.25817706683020697 -0.906155998619175
Ni 6.37151759964652 6.408197511850613 3.9502530645445693 -0.012630544279816958 0.18482040831492688 0.48170928989303485
Ni 1.840418055209484 7.4232391074356 8.056563237819809 0.2711264279020234 1.2454963644932744 1.9320081622501177
Ni 8.644214187463042 0.3487489141761766 11.276581537024235 -0.2789325542100035 -0.4814580931141773 -0.5468592442278066
Ni 3.6748381373541474 0.3904477456878947 4.569106392836085 2.711922738539839 0.3414923792200958 1.5333066808088818
Ni 1.167214786064914 5.7238011022020014 6.8059304878995475 -0.561592179562607 -0.8159717270235948 -0.728971252472635
Ni 6.899173131635071 8.769165807879554 1.3991665548974739 0.6047856842309455 -0.02082310739293833 0.6906291623593267
Ni 8.751227254590308 8.696350414872635 -0.0738608858503719 0.012884055051519747 -2.648742763447245 0.6362138208332397
Ni 6.36084120759114 7.887971288148751 8.146631569656414 -1.833858355950558 -0.40191227506904975 2.8131398709108133
Ni 5.981261789096699 3.809423425277848 2.4999404091757422 1.193723602796357 1.5148921828574362 0.5990454393130586
Ni 2.67110041408363 5.920922180064607 3.928698194879779 5.7016452032368194 -1.0860738274261619 -0.8904023353293439
Ni 0.45689882789049624 7.142035674855082 10.44383956647614 -0.8420933638113111 -0.27164784762313215 -0.7014982438633467
Ni 5.631358495796816 6.875605711315762 13.590685362585019 -0.15341129787602611 2.9304274264810886 -0.5362819829325925
Ni 4.474294125687752 6.002356198983129 2.4121679168753345 1.7394104239826174 2.600980151350985 -0.24332817474283255
Ni 6.68596825830788 8.94013572317954 4.158144656501418 -0.7834498431364895 -1.062970408639479 1.3254450744037753
Ni 8.241593324748823 2.757581958027471 10.146851314319187 -0.7798526127035343 -0.08885783947467278 -0.33012064704804434
Ni 1.3458897898404787 3.210456607374016 6.924415370587096 0.24106611818153323 0.8489713218780668 -0.04180279496839897
Ni 3.8806885729387828 6.9710196213007505 6.820584920244534 0.5461015401261756 0.6875561798609579 -0.44653582731569547
Ni 8.076418374194539 5.321650849682099 3.0272535953170556 0.918420932029457 -1.061388923084972 0.05710034455741779
Ni 4.099337760278658 2.0543057747009783 10.843794560854318 -1.4449167821095632 -0.6950594302165385 2.1076024239810867
Ni 2.4710449432446984 1.8325468690182658 3.274378390473437 2.015098246003078 0.3284347747051892 0.2876264824395756
Ni 4.527685313615523 0.14270746621855396 9.44369601321908 -1.2773603030814067 -1.3688180420727716 -0.2688954816889756
Ni 0.800518090948621 6.291486183660077 4.247807894464874 -5.672812852386159 0.12833404319242414 0.40251725564290036
Ni 2.4774673882494906 5.331247606585811 8.894153416134454 0.886317623737009 0.7868663250172061 1.2043111485042162
Ni 4.423108346317662 7.453367387522737 4.702757842491847 1.0814507268318538 -0.7606652411418061 -0.15915977032402912
P 5.014056335616372 9.01340327107904 6.505013102002596 0.16912099530179905 -0.7445541945125564 -0.5829675599145895
Ni 5.750755070390218 5.187305480680991 8.34655508508792 -0.04719388407698324 1.3629973216259366 -3.052637616163962
P 1.5251830462242628 3.0937360515326118 2.036360762056123 -1.9995687829089113 2.197747357698299 -1.4058288149691658
Ni 4.6846845654999125 4.909101034632885 4.985835410963849 0.33224746358306007 -0.22587064138801746 -0.4254445538630351
P 7.731571833570843 1.4642344122348188 0.6041241519744902 -1.3358423584776995 0.06694381301040084 0.21895205989131325
P 2.25975019364738 4.55320899591905 5.384844571127959 0.3245048435231637 -1.8203695774355038 0.7086603088294247
P 7.058912995827542 3.5358328046642185 4.3275587898648995 0.2913178152482338 0.43497666172318633 -0.11952570087217479
Ni 2.0854952346380444 7.644185979841845 5.637723729366221 -0.037339874101038915 0.7212646278569965 0.234057548074184
Ni 1.9923236438142116 3.1901280925097097 12.757267927993313 0.7733533781324359 1.3026694712701565 0.6729057769376346
Ni 1.874661867584174 8.886412339820488 1.061990037676053 -0.691453458032835 0.23668033040901176 0.23459490863489277
Ni 8.34602264963278 3.3086572679214292 1.8212706796564035 0.8395520854466961 -0.6109697015544703 -0.7774779418237707
Ni 6.524918067692018 6.486180389344146 6.461794476392761 -1.3067798938941044 -1.2898571499968368 -1.3105972107576653
Ni 5.298618633113189 3.2374659414674456 9.478499944001515 1.5506436294254327 -0.06226491947749277 -0.05023215668267478
Ni 3.0911707645910425 0.38154767642478815 7.317955302081177 0.0686988480282946 0.018138104361607472 -0.025551366106543093
Ni 8.08857119038895 4.914766812266422 5.545048586159138 0.4095055140352754 0.3178762824630525 -0.24589670680095715
Ni 8.630105109284411 4.346463478200127 7.769177279157093 -1.0702168057892472 -2.477188990334237 0.5013823428419301
Ni 4.881445764978627 2.7251559928739653 0.9672682015062357 0.8338421795461124 -1.745526049962052 -2.3356117089786617
Ni 6.607404038809602 8.63145234631128 12.359528492588773 -0.8691915055796837 1.4061658865936106 0.0428381782114488
Ni 0.3734531810825414 0.9909020609118018 2.632822272749033 -1.3900599821706834 0.3828226054274504 -0.6560485961709799
Ni 7.826967288254093 6.694300827042546 12.00083309354095 1.1078657264902727 1.0698393678451705 -0.42925852829248645
Ni 1.9059712869825363 1.599899335310187 5.397513213005947 -2.522862581111952 -1.449895209160761 0.5808924225531157
Ni 3.7092572750953474 4.738841648449807 7.123042401071514 -0.21773284277223148 -1.0166180466271846 0.0234623447879983
Ni 5.13003867938826 2.4227843292000664 4.403190461917023 0.4410573206996275 0.15514704962021023 -0.6625565724928266
Ni 0.3728367740044952 3.208980183234983 3.933411678943641 -0.005713762555325644 0.49912105761157916 1.0092574924970554
Ni 7.328185075834501 1.7509652076858397 5.550288046322531 0.9748867283266694 0.7011112928375732 0.2659780509318645
Ni 1.078740069533379 1.4179392878252746 8.526057809146428 -0.030645492799998834 -0.2202700073717884 1.0387737567886173
Ni 4.841028654172608 0.18287635321619947 0.5363811986502351 -0.6147206839564703 0.2562212286554168 -1.7798844728372636
Ni 8.55103336898834 3.398995969928493 12.868202746739884 0.22972266814425596 -1.6901694275686183 0.004404556825598866
Ni 8.442783796644637 6.469533707176554 7.993343678951516 -0.32716722084667527 2.4605092156857107 0.5940184184121126
Ni 0.6237873532111453 9.01799864121178 6.9062913415153835 -0.044792987944974466 -0.18105657039712042 1.8802554551578585
Ni 2.2029816855015723 6.86953391704399 1.9263440945710137 -0.19371411126013088 -0.7698551351711903 -0.45740619437129615
Ni 3.3739705807718887 7.825693872434178 13.195295287091712 0.4521485455167826 -0.975801783941771 -0.2032027674768565
P 9.257640734278525 0.37812237242223234 5.100160468639673 -1.2899533092550688 0.4810983957819134 -2.817156962490006
Ni 5.406194586943459 7.215829198854111 10.744636070146708 0.7887902815127964 -0.2505601737148975 1.756419299835788
P 4.461347731518609 9.154706288835339 11.585049909627251 0.584522048885903 0.02076037247580296 0.9955794807893306
Ni 4.255561889490056 6.9219746569322576 8.906335760811649 -1.0866068171114964 0.3469845126829185 0.5017106727156263
P 1.3058694680218232 9.179796271548026 10.192284576137574 0.4048973258393027 -0.21920917020744182 -0.27455576529854653
P 4.650320793663927 5.159797853440638 10.126026351838133 -1.4797667999092128 0.1787315218083696 1.5109316555477914
P 0.04536128614160615 6.962050344656126 1.3625124801158128 -0.18592829666712496 -0.08852205340180884 -0.41111168218013067
Ni 6.381317364869349 1.0921017079916249 10.616495373589885 0.329612082842742 -0.19659940322772593 -1.746808516218901
