# total energy = -381175.7597165667 ev
CRYSTAL
PRIMVEC
9.17848309793562 0.00000000000000 0.00000000000000

0.00000000000000 9.17848309793562 0.00000000000000

0.00000000000000 0.00000000000000 13.43363778911468

PRIMCOORD
 96 1
Ni 7.789301154266993 0.211881606302957 7.164548441012963 0.31133539602074123 -0.0309653380332628 -0.507146756129533
Ni 2.4598242381321818 2.7813189585940346 6.409443831492418 1.6656619293455572 0.4927436933303255 0.03180197500194523
Ni 1.5959637847553982 1.029844138100915 13.304271538373538 -0.2867091128316288 1.1752394279492404 -1.113248845179057
Ni 8.419220435544206 0.1679579763954515 0.5524583927093717 -0.37810206002332947 -0.5992457282493228 0.451307537672726
Ni 0.8490335321036496 8.148023801362394 12.660531297548792 0.5952816013952522 -0.7593426656756407 -0.16974680181125604
Ni 1.72649099004526 1.128191582351029 2.149838417375903 -0.57145955927499 -1.4591334399295774 -1.5779415459094372
Ni 4.380761388367705 8.049410181108243 5.840367795496547 3.076382525189386 -0.4313105257255088 1.5390510394918269
Ni 6.126499657049688 6.884366989922476 4.5801180369083 -1.2339053172215653 -1.376060839678114 0.9613110465247638
Ni 4.068959145845948 0.41572377943571565 1.8467217732203507 0.7194082913745481 1.0470496236441644 0.5048463901311305
Ni 5.1818685541721115 1.1537169432898593 3.8051043801341 1.1820592790845512 -1.2611304714861056 1.1095145749476052
Ni 3.8695290694421702 0.0921372827214508 12.928989072433895 0.23744909025423622 -0.19673978546033213 -0.2720571672464089
Ni 6.887377532312961 2.4893147036828696 5.601759364843436 -0.24473353973079143 -1.4605699152657878 0.06013141807425773
Ni 7.595323096704519 8.231621423595715 12.082119826597552 1.8296348047875137 -0.29756688148173915 0.39845388420680405
Ni 1.6290430371191322 5.085577090091109 6.967987558363043 -0.3734493917426665 -0.7908119399285155 0.034341710704663436
Ni 5.695753454655115 0.5504427978650109 8.492557431746057 0.3605627655879855 1.7444973515872213 -0.6825592408669987
Ni 4.666854700292675 5.792586449227089 10.596843038500092 0.540157920948231 -1.1866106459006596 0.15195013994946735
Ni 1.0791784836766838 6.869497847628012 3.81254721191594 0.01855950816974223 0.6311441196198162 -0.767229267512569
Ni 6.5436708832383905 3.3776358139823373 0.831633882074257 -0.10484855847597427 0.7947675821421538 -0.9741223393568191
Ni 2.641750947649822 5.889823297046568 2.4078721892339554 1.096331500598428 1.1298617711453895 1.2118277685962355
Ni 2.4139685375746858 8.284058096390947 1.1001650848225433 -0.9043541695237458 -1.6317043414531898 0.5702192591099857
Ni 8.274466581762725 7.943609808745101 4.9143873698673355 1.5984000708741053 1.517848951492915 0.014699253883387588
Ni 4.525873202982199 3.2938362651252633 9.908866181501025 -0.08168394743405287 0.6876281707494739 -0.7534370988244831
Ni 0.4365112075026926 5.512734505672635 11.79750149687426 -0.00908293613787468 0.672754596071751 0.24593835867216998
Ni 2.3252676788501776 0.1069614504497158 11.069989242641135 -0.17613907849084504 0.2658980896235485 -0.8708470389052356
P 6.506782560472062 4.289573160777889 10.237775280447735 -0.05776908848966825 1.448293669001596 -0.4297524372097696
Ni 4.767432515886959 1.186621804478535 6.393269508929884 1.3181210299385362 0.642754450165235 -0.7753673232386711
P -0.00932442077589276 8.445324040905598 2.4384870189396257 1.322151234143852 -0.024337548304100023 0.01207929976203726
Ni 3.4113667386318163 8.525507267500931 3.851625520701688 -1.2404500603186186 0.025407641439827214 -1.1742616374170034
P 9.205559422366024 0.6510316276387721 11.24402153901836 -0.5579571539131811 -0.2889562569945927 0.32798765986544154
P 3.404850015774366 4.190987075972432 8.084336144231017 -0.05953492214083941 -0.32300897570392756 0.6184798938885864
P 8.69128902560131 3.9005615201196915 6.567410111405305 0.5047103787738985 -0.22403538795149158 2.0242632003317977
Ni 0.3464895650891887 4.932021071210622 2.1277136843507143 -1.062138142546171 0.13261313018375226 0.47633928383037316
Ni 3.355919523446101 2.286103092325191 11.747299784664648 0.4914648266179019 0.002572645823182666 1.5590184837526895
Ni 1.4012147346295072 2.2243227239399816 10.70433867665446 -1.7314770280681535 -0.9992990957327629 -0.3735062131225309
Ni 6.68816773949873 5.940268239052972 1.5000669954390011 0.06229268739163466 -1.5511018000087737 0.5486160790179132
Ni 5.314956556190464 7.626713508215055 9.197461246905279 0.010720728851613794 0.07365490648198927 -0.06504453910515895
Ni 4.881401738029159 7.344117198274153 2.3962246944366252 -1.0782342767770847 -0.4710258420372598 0.373310552171957
Ni 5.95255822765315 7.991117636224203 0.5139445606218399 0.40163511014826314 0.3702493967481301 -0.5209350681628769
Ni 2.7991619293473917 7.141245190783694 10.567006544144157 -0.8551031458074176 -0.5466124183243231 0.4654290646757726
Ni 7.931072001106682 0.9516067498799189 3.4536538450386405 0.8940720708714472 -0.3431162879767639 1.2067812073112636
Ni 4.452784943666878 4.936830596249078 1.0647352229886782 0.17058061056646107 0.6621871049685499 -0.43811315046963895
Ni 1.079977011688794 0.1579121268637903 4.290234011546532 -0.3343650241466951 -0.3685930920916297 -2.0409285768026204
Ni 7.156123511561056 2.2168697958269536 10.426047993040925 -1.2393879376026913 -2.0833093557616764 -0.6441757559927939
Ni 7.483097786312905 6.463074624912655 10.39159013254594 -1.5920273345785418 -1.4134840175215786 -0.1602216359296402
Ni 2.2770622866708408 3.766610740708943 1.7669534140519987 -0.15209849260187355 -1.5592871640330437 -0.5230971088112024
Ni 3.6490251963050038 4.525717168772936 12.456461498040166 -0.9361520307606329 0.3493381005167597 -1.0297026477252846
Ni 2.3256256396831927 7.145834432232602 6.039132431890233 -1.602142311525357 -0.5928393105023467 -0.4237473686662702
Ni -0.14344500212025044 6.060185118112957 5.6064073485828905 0.2783347727250045 -2.0654201341860814 1.4465874849437668
Ni 5.565061036673092 5.499196243398354 8.288406861587932 -0.2424925662154146 -1.155133915448617 0.11554383340629133
Ni 0.40106574224790115 2.080835500798401 5.5742340124811705 0.004878411138223856 -1.1051622115161805 1.0175073912106734
Ni 5.657965640564801 3.13147808114577 11.894505211228132 -0.2807732069631681 0.5064942101471986 1.8901266915249832
Ni 3.4459420837078945 1.7883264293278567 8.467194529954519 -0.5717061280681573 1.1891436967351585 -0.22708523052140892
Ni 4.051648527100665 5.27392873763722 6.238621250584558 0.9010310186877837 -0.6207360369126148 0.32441305514030583
Ni 2.2604767680744846 4.2290686015154755 10.26693990985555 1.1017593564822186 1.2511869871201484 0.31373654926306616
Ni 4.692251562470936 0.6577667983891906 10.704500217953463 -0.004847043679656169 0.42838563876923 -1.4225574405777563
Ni 5.53659856120696 7.823509360027159 11.52847924529094 -1.493163532931093 -0.435393951766263 0.25447262139542626
P 4.661512823246146 2.0445621363862267 0.5075765291873341 0.42733971400321885 -0.019906509115939913 -1.914612849591806
Ni 0.21811196049399548 7.643216420465331 10.507468479130885 1.7094429310862496 0.5156195694872346 -0.7757020808702706
P 0.8146977454312042 2.5658448940848717 3.3477699484811287 -1.2139746397359092 1.4436147754686879 0.09202800967253828
Ni 4.392161064126794 3.1211614663686236 4.667490769157494 1.5794392135008863 1.6056742359380154 2.554082715468498
P 7.151708661287206 5.183685893785879 3.552713539561626 0.07979495794145613 0.12879735598208783 0.10487401239727098
P 8.489949824754788 4.487571393849607 0.20162556951293575 0.13216370135115948 -0.07561794374563106 -0.39425964361979843
P 3.567400947894713 8.993105078730242 8.681004535514306 -0.06797662515028938 -3.0335299488002336 0.9298263456529212
Ni 2.044635564249409 4.265433750756629 4.433194389769777 -0.04933715567223116 0.6334817666140574 -0.0976641249123931
Ni 6.720053789085749 4.8468080359872845 6.074771563134169 -0.1925370602328942 0.2919510779568585 -0.12941236385826746
Ni 1.194607084599636 7.672413174563288 8.208744972821194 0.21429733472812124 0.41084994387831175 -0.7287771341839577
Ni 4.401486402750977 3.005145442540211 2.391590478421517 0.054531812499293175 -1.3797804546215464 -0.6997560643612594
Ni 8.7460111406381 3.768694256326748 10.49974478577237 1.1256945271415775 0.9730766717011241 -0.2574594719378921
Ni 6.422046806359411 1.1197198426363435 1.7228774213283895 -0.5384663921784211 -1.0861175361799038 -1.5395192373774969
Ni 6.227830108241593 0.9229790617216261 12.54211418259431 0.11126346086338258 -0.020878900331538233 0.7580745975964944
Ni 8.893160578455909 2.233657241047062 1.3418712534536685 0.1586280661902752 1.8115260110019444 1.1028471902297585
Ni 7.608824645047209 9.13529813578323 9.764548305657193 -0.9676393027356368 -0.48513965573082257 0.044433547723026705
Ni 5.574799407027676 3.0286423587586233 7.652579390869394 -0.3434245632458021 0.6408842297257156 -0.18602188482219578
Ni 6.3354202847698105 5.553147365871725 12.523105544512928 0.34637747522653894 -0.17618895789217398 -0.006675612247962697
Ni 0.40165041160849213 0.6086371329820431 8.707199925704678 1.1147493409839833 1.2908526811408865 0.35939831296623914
Ni 8.630380613091395 3.8467480748897875 4.501275786664339 -0.41418646445071244 1.5044995267692025 -2.4541058832625287
Ni 0.7686428717948255 5.604620297962685 9.131622153382654 0.5501296874489623 0.24244860035135668 1.0234512674989342
Ni 7.202272923571282 7.766979083859501 2.890878837552122 0.26434205799033833 1.0036650860109424 -2.5528791820787
Ni 7.969603272311719 4.760723044888655 8.497124644836012 -1.3244739687397575 0.5953343090100586 -1.042251945145205
Ni 1.344142927970878 3.4986908249216517 12.871063666865767 -0.13358629273029898 0.2490146836046486 0.12045721154750867
Ni 3.2488158065114687 6.573767128660334 8.356569029131993 0.6907998836092362 -0.5970379219647266 -0.38671037051763074
Ni 4.931681467343403 5.0604372254339856 3.2815150696832336 0.559936646237055 0.10690518389468685 1.3162821769575848
Ni 1.8678579836374447 6.113154142916263 0.26200071216648924 0.6619261379976794 -0.6711206600127538 -0.6738339451788589
Ni 1.1465301911808683 3.005081193159926 8.429741730489974 -0.5839777463466588 0.5131644230785227 -0.2040232064956228
Ni 2.7189970597178537 0.36802779305720723 5.9380975278476384 -0.9228933659785137 1.6566232161820567 0.9728262462532151
Ni 6.652904008205315 7.236967588925032 6.927982222804615 0.22551634337239226 -0.27642829973091104 0.44030630146621585
Ni 2.749708263493951 1.9412950253028822 3.917034143376404 0.6018086038804926 -0.7687886415798889 1.377230434506183
Ni 8.657842633921664 6.717639848083623 0.47095897166649137 -0.11178925145986554 0.19805567605827826 0.0916945375925195
P 3.7502455057021344 6.403129953107009 4.5086378477966775 -0.7417794599808967 0.5038894255344999 -1.8884199932465218
Ni 6.812086437102163 2.972993216949156 3.050456859061866 -0.34504461534772835 1.419727170217813 1.4102058609909391
P 0.7765317778454996 8.766203803013298 6.253761158124507 -1.498938230631341 -0.3907050934993207 1.9153024194596626
Ni 7.899534733869782 2.38661665853919 8.18832560191842 0.15661309264277545 -0.19985699093307516 -0.780023848174076
P 6.605836747905308 9.036877263669934 5.30273999545347 -2.7523705621422403 1.7673814552742466 0.4923634271727714
P 8.23029972205843 7.317830023254804 8.509900175181484 -0.32456269334429266 -0.24354389029806442 -0.16523143043940577
P 4.368287830109571 6.589196158411564 13.053425436472764 -0.2723782980312535 0.5541382943877231 -0.38652165154559237
Ni 8.120855491984853 2.4959507468179916 12.547191719333382 0.7978526488253808 -0.22620308502677175 -0.16507587869814797
