# total energy = -340866.19840186916 ev
CRYSTAL
PRIMVEC
9.24964853482612 0.00000000000000 0.00000000000000
0.00000000000000 9.24964853482612 0.00000000000000
0.00000000000000 0.00000000000000 13.53779559952068
PRIMCOORD
 96 1
Ni 8.1279896429501 3.71633291804029 12.969613491231168 0.39908586136384816 1.1530484936744982 -0.012211197354211226
Ni 5.945118907417762 2.68395192943896 2.1375234100889138 -2.27964393536379 -0.22839315069955504 -0.562286120305838
Ni 7.716583788694682 8.560632689556128 7.6728163031700225 -1.7136055471043714 -0.4655560771719401 0.003924017644754533
Ni 2.6221457799238133 2.611767674602653 11.191654431927523 0.05970564339074878 1.5702115242550314 -2.0403768180642086
Ni 1.0332504555355446 2.4677044033218367 3.232906527722348 0.9962574806929616 -1.7001373374146076 0.4364648162329386
Ni 5.189755633846234 0.04032476645109761 2.988806460835992 -0.35342178366783006 -0.3836157907527071 -0.013055033411745258
Ni 5.283343574701405 3.0867463611863557 4.859905778020171 0.598991960367304 0.32798843119639 -0.27708393103703893
Ni 5.463221483953284 2.3961953728067815 11.224686775709097 -1.4550045053628684 1.0381464076172637 -0.4688954259578183
Ni 7.149894839847782 4.932781906544556 1.5341707055628548 -0.19560387208367602 -0.7452941580023744 -1.3376123058939287
Ni 8.245580420978543 2.3970463404445232 10.802984213036998 0.02657826470916068 1.255894677008463 1.9462160783193838
Ni 1.8572183700759213 8.362754964836354 5.728260904517041 1.3566289562057476 0.6390330354495898 0.22088707213049702
Ni 1.720517818791223 6.281898599702482 9.711405475723167 1.127381427925697 -0.5647669777461628 0.48504529624480325
Ni 1.6085970751316483 4.775389892155191 11.622441074132519 0.6886805232733881 1.0988992613256043 0.5798524113243756
Ni 6.609465642343818 0.5374424860884531 11.253346810769363 0.20056404430242877 -1.6017579316027448 1.5533918815945311
Ni 2.9535144279902807 6.660375706236571 13.553093326521475 -0.2291151164672441 -2.559219265364115 -1.6862029867217028
Ni 3.8096156205036626 5.250257582960058 7.479523629080996 -0.8112442396409383 -1.7205354414549852 0.3133282580810539
Ni 5.298207759417185 4.345512490371825 9.169364989496435 0.11139458712460816 -0.956770992562565 0.6055971243886473
Ni 4.653479528400382 6.502382464711844 9.277546100374062 1.1977761755991758 -0.9750484507155144 -0.3180405759550587
Ni 5.191244827212283 0.05790834774835803 13.293640693492462 -0.6416565891153659 0.44096964608182765 0.40046011600355547
Ni 7.804658939201001 6.4785831197997705 3.1342969528396734 0.9313803204036024 -0.03560823612191287 1.4399766644954686
Ni 6.425786127666808 8.29307736467209 5.457505201343234 -0.15034911401093462 -0.11442591775176422 -0.3626065354908916
Ni 8.700931354004759 1.872498788962336 5.2367170229068964 1.178131661895371 3.013008174697798 -0.15909266453151957
Ni 3.322806633825695 1.7918326066933152 13.090614614564346 1.1543605276177022 -0.7417933439379676 0.9192053756039654
Ni 0.7050091135377797 6.954625515930651 12.149751495542898 1.1366793082878552 -0.6343230315684302 2.159823328959016
P 2.8706283301445414 5.805772956737473 2.2765160242065745 -1.3673427430788259 0.7935992728656656 -0.10181928473134723
P 7.05978476672947 8.024079094663186 9.959539314205387 -0.36251886087309176 1.4342215071792461 -0.41221262855379337
P 6.848670795383509 1.1447364657280117 6.374162915895035 -0.025915691424497306 -0.29329756468242385 -0.4183408529387182
P 6.145993518166107 6.106960002608801 13.389908257441698 0.5630024296465723 -0.4239738828547795 0.49625299203516465
P 1.5635235392760196 1.5734021635924185 5.542265277921654 0.04760834590658252 -0.9672065860735923 -0.18462063359929493
P 3.8044543167877913 0.8387886259094457 1.4503170945115953 0.23609977531519336 0.09721829562422611 0.5318478584206389
P 3.7748554424315404 0.6868289299292762 11.342046312531634 0.6501540850634158 -0.9467683728238984 -0.2612891300966274
P 2.935607109004749 3.9041655247754123 9.361074123807404 0.2757592986883445 0.3214837973086528 -0.38615886888953493
Ni 0.8674606855124166 2.738691347701552 12.546801895735534 0.010711472880233166 -1.2907706629500417 0.6871121503450038
Ni 8.445511567606783 6.420356584152083 0.46495669271964146 -1.3363213549966468 1.2117974295789322 0.14201179778983283
Ni 1.4599737272703224 8.789357991144058 10.124538239304307 -0.5052636801742072 0.33133086530606165 0.25669739696088695
Ni 3.543077756925621 7.857687172539873 1.7041783151817484 0.523736285057098 1.3447689715433677 1.3383674388923983
Ni 4.107583788788747 4.663487647792088 11.324608875676507 0.9301762727931722 0.23548373899774927 -1.0466819558921006
Ni 6.181845154730116 6.4116804141064065 11.177006688980473 -0.2801785108019626 -0.13424706624274946 0.05798968914090658
Ni 3.2274520101573847 4.047673817162049 3.430923922130491 -0.8310551037192784 1.5219516608073786 1.4700040640954941
Ni 9.233267109301934 9.163811500695344 2.654464050861545 -1.0664830497784277 0.37448606053729705 0.28103880191972885
Ni 2.4736334278413232 6.346794131728563 4.710313067023678 -0.26615957081505126 -1.0769803497653259 -1.2689831347613048
Ni 6.840447858101412 3.4095405853377474 6.8791761352669205 -0.8357735922408703 0.3959910244886083 0.12102131158109482
Ni 7.406859317501223 0.9234238322366749 1.445579424684948 -0.33349753394007725 -1.329369606269162 -0.3881131644024283
Ni 8.053372730627638 6.337165247914545 6.4169961869478245 -0.32144548787154964 1.087871285646217 -0.24637056111358216
Ni 2.708278504300504 2.901170668620898 1.4495188498688003 0.03185776794054514 1.1357421411855664 0.27259247092458855
Ni 2.6651011463333227 7.310921965994024 7.899411410769127 -0.4181228233906412 1.2646479977210607 -0.28590178643898506
Ni 0.43195857263653964 4.691060849184584 2.770401916750157 0.8988476378832198 1.1696241386449922 -0.042828408019435917
Ni 0.3305065808508417 4.082193504380026 9.840975473182482 0.1835435984850323 0.3110417760397224 -1.0766227093155911
Ni 7.172667473805622 8.046953474751627 13.009212160295712 -0.5724460915579754 0.29138749214390464 -0.18982608905963438
Ni 5.7670631788684386 5.104002145047232 5.7679807439734825 0.012877627293616531 2.0624782779489386 -0.09787084160656047
Ni 4.641750974436717 2.5854339260738257 7.685487396288969 -0.405463739865734 -0.12373331119561916 -1.0792789159915153
Ni 3.1777444005353557 1.439458007482146 9.347509514668827 -0.47392064708655157 -0.2950500285971564 -1.185539781433984
Ni 4.183060918397188 7.0698391343623594 6.120829850139176 0.5530712865757894 1.1068372852257584 -0.39988187490258226
Ni 5.300723663737467 0.5071600627275374 8.97458312204136 2.2214842963039225 0.7242435079796623 -0.35799294797828024
Ni 8.53823004152774 2.1855993817620547 7.568155608411143 2.0791439115300774 -0.24022588166842498 1.0371367354058267
Ni 1.2239782021686376 5.730749059892614 6.86387906701368 0.8611727490402653 0.6173560646967884 0.1385775752973033
P 3.583739210572521 6.768735335325158 11.232538802096917 -0.8524806205829061 0.4843402997579788 0.5598949943658422
P 8.907522247363154 4.38878234482137 6.9209678959283 -1.1258256534028028 -2.2657311819374395 1.1557262976169773
P 7.223781029959573 8.526196249172276 3.2502218692207547 0.11207335835918764 -0.07063386026747835 0.21543504787699028
P 0.48698472999445774 3.055149562811058 1.0591281964063208 -0.10661362079619705 -0.15405407366634757 0.701960785322062
P 3.4413686249189532 4.105474868990865 5.717863374934584 0.7514347236824737 -0.09078745239721783 -0.16984193262822364
P 0.9781040527505543 1.7804092911214495 9.516081578881442 -1.2425074570682795 0.05814909753690631 0.04018917062437594
P 3.2175548865445136 4.124825133101264 13.1206010491817 -0.6762399835171902 -0.762100945147068 0.9545711566977689
P 5.866681890373697 6.752261711816257 7.40345452198543 1.3765460068446487 -0.33538035278508693 -0.3343298000333855
Ni 5.846212418826702 3.762766152186659 13.169093255025475 -2.1452289760846086 1.1586303586376498 0.41396175003441615
Ni 3.792836758602963 8.363661430363512 9.665105436511402 -2.1766326872068706 1.57196887326577 1.9300906335124306
Ni 6.053145549169842 7.2977227179607835 1.6791062186723564 -0.4844891666310172 0.37380780352334975 -0.22684406104488028
Ni 1.028246395839691 0.322693402985615 7.752215283630667 0.7353722709029722 2.687860812494629 0.23574701996146494
Ni 2.1495165039921376 0.06299750420798596 3.3352390860201444 1.2132017661256267 0.14717534426864332 1.1023990469487464
Ni 3.572528636910091 0.2853016999902572 7.290413645924437 -0.7382853307847091 -0.36534861701240307 0.406761375631235
Ni 8.192570686936145 4.491573685671688 4.784080861638046 -0.17698522854122423 -0.9835163789772093 0.4843343862207078
Ni 4.720752220023199 0.9915900398791212 5.511195709495826 0.8164975176200777 -0.8059809343594699 -0.05019950367252645
Ni 4.787479182400072 4.990740202393391 1.8288071505532146 0.3093700447642543 -1.7863757369885624 -3.774360671714616
Ni 8.131634004355213 2.975833829184541 2.547921052686572 0.516432038086201 -1.1367273879169715 0.5557650313578686
Ni 7.396000230471774 5.359597674761697 8.710542663487127 0.33469206846881067 0.2517976456664244 -0.2387212720984405
Ni 2.06420699830848 2.7717310912017172 7.442646206527579 -0.023391896561379067 0.2773834645553287 -0.18925299016498376
Ni 1.3628524207888735 3.9402576521935657 5.125152390704422 -0.3811349333123823 -0.3135138917292987 0.5384237118659437
Ni 8.913617765550896 9.111504739918907 11.928895794674434 0.6847467354366207 1.0138957626000151 -0.8708465246846033
Ni 3.8391312480257866 1.9729037205676816 3.4627380872393427 -0.7077046297843748 -2.000749433480573 -0.9140132898800645
Ni 6.972782575418565 1.2993535856464784 4.025869621374551 -1.166398946839475 -0.3697187210556407 -0.40253602469597766
Ni 8.992720757267975 8.975035429840116 5.539841870083736 -1.517335759301922 -1.668415066610662 -0.5110998272400101
Ni 1.010024588814124 6.982420708880819 2.096165457929818 0.4896329156154857 0.5523423788295648 0.3483145443482517
Ni 1.6483058150102063 0.6885761884811186 1.0876883352656321 -0.9042412980949653 0.6393767919422537 0.022348285788213126
Ni 4.671497843164749 6.104434848640284 3.5996726546244204 0.7024264121045709 2.4023639748035466 2.73482304017678
Ni 7.782237791876141 0.8976432126723801 9.338750097789024 0.9919981911959755 -1.599469392678884 -0.8225414098213124
Ni 0.8529775863039736 5.180385740182833 0.3833091227727464 2.7123834802263413 -2.279833939887409 -0.2869536247422671
Ni 2.0878121006075903 8.648513597449485 12.715983511766924 0.8727586541056518 1.2783177818986695 -0.9033640376963347
Ni 8.866204068691475 6.942767466891678 10.376111097000793 -2.219603277231126 -0.6615425294060155 -2.0736844310774027
P 6.931510644988066 1.9149176757741382 13.159494895050637 -0.4090121193386246 -1.0957589159244097 -1.129768697210951
P 0.034668606554582745 8.446399533837472 0.4603189190939464 -0.015207046757741554 0.46027348861676215 0.07049862024119471
P 0.3740354254510035 7.711181994124666 7.532348370158668 0.8150137339856997 -2.792552533677765 -0.09818734440571478
P 0.34103638040307804 6.124710077574315 4.606396968947823 -0.03688838838591711 0.7970280960415563 -0.6166268998402477
P 6.408600281243709 2.5266894101249036 9.084076758003722 0.21358359649054828 -0.1687834094567222 -0.22134292872099295
P 3.781755680015841 8.457545359962246 4.559854588952265 0.3031366622600328 -0.35044084666263514 -0.48753643809777325
P 7.682202846200249 4.817300048313995 10.891995427944835 1.1444293845469193 -0.4874091684912896 -0.30538766307773857
P 6.575630429095329 4.30300110707766 3.4490920811962877 -2.0008134539492897 0.5682212548433505 0.9291678861333159
