# total energy = -340887.5121573375 ev
CRYSTAL
PRIMVEC
9.06802159597268 0.00000000000000 0.00000000000000
0.00000000000000 9.06802159597268 0.00000000000000
0.00000000000000 0.00000000000000 13.27196621538013
PRIMCOORD
 96 1
Ni 6.83298081713969 2.027691194770962 11.269850332505786 -0.49076574366834835 0.7691105436956819 1.4592213716576934
Ni 5.005520602659046 0.7860170007999072 5.730914253264991 0.0333880885421425 -1.2950039843050987 1.2033225593387018
Ni 3.0007624339808436 1.9525717055845575 4.743121988132221 -0.06376053018641276 -0.7920573822998423 -0.07165793065661853
Ni 3.2953099047380596 4.374957599332756 4.6879367303652355 0.6667490133076194 1.4544776863251208 -0.24309009059009745
Ni 3.900282951704616 2.9428449813693556 2.6730668110361693 -0.28933318071803715 -0.17368110386865573 -0.8845271074954895
Ni 5.082390219973526 4.965848009082209 2.446195797509273 1.5010642758354085 -0.8545542152824831 0.37691780990724116
Ni 5.556928847280831 3.0292450891636653 0.5387864656504476 -0.28107428314335464 -0.6283776126182726 -0.036293435114395554
Ni 5.978002420478643 7.9959092201708835 12.142893134575843 -0.14562882571712985 1.2770381438552973 1.9095331210760536
Ni 2.229282378269628 6.925148186537398 13.49705885428375 0.8768055704815156 -0.9431464598005952 -2.069983328076732
Ni 0.8029043770326257 0.02036586923753562 13.581202838356479 -0.7432989819492167 1.1771515573702889 -1.0552738113261697
Ni 8.121918445392307 9.168585746195243 6.942233245636396 -0.4302723142689815 -0.3567912143606952 -0.20287598026505704
Ni 9.060485863217076 2.706360051565851 1.2202591546588126 0.29839426247904094 -0.8544246316831542 1.4314071776589026
Ni 7.202820069489701 0.7680251395620095 4.654239962883745 -0.7907636031890833 -0.510659654378798 0.6115777674521145
Ni 0.9817856077647021 7.527781683985595 1.939021361222988 -0.3504053654390094 -1.2119892338747644 2.427314731211613
Ni 8.035989874710225 4.0287133386369 3.6938403767628394 -0.5674890046630162 -0.469030923094418 -0.1781126572774481
Ni 7.756676679886515 3.9917883555409275 12.940830049491577 -0.447416687258752 -0.0013066346265654914 -1.3128515540094807
Ni 8.96947013253577 7.224465436545223 9.232032878249736 -2.450084163697645 -0.29171607912791697 0.11768042013331992
Ni 7.225861911839129 0.996448598350701 0.3450681383217037 -0.7662077682265901 -0.5759350785478404 0.02370685669863659
Ni 2.150055075394011 6.694149409674233 9.015394220058178 0.15607444653048602 0.9491975510906815 0.28801163369313626
Ni 0.38471715504292936 5.085083422326056 0.9693007559163389 0.8688297513648908 0.7058827460842876 0.6125187912091451
Ni 6.6959539459306425 2.396451352575683 7.117755681245991 0.3946008290093011 -1.561455632439272 -0.6896346596565412
Ni 3.85538717780772 4.679779138323699 0.315847346197818 -0.7600247793443298 0.014081674904046717 -0.5707085400415784
Ni 6.180672698522599 5.809164930237014 4.58997670890424 -0.23776713571528726 0.08824488848102222 0.3849015994436662
Ni 5.31501217266532 2.834881118712025 9.57588227449676 0.60513869669499 1.4473613869953137 -1.3618485527334738
P 0.43350401691784163 5.718820233138493 12.122441119135111 -0.10790071503873674 1.6918576139043187 1.2074304108594882
P 4.399967202323594 6.486391971631053 12.382040435459155 -0.7778399531488798 -0.39166334364753197 0.23323299529035962
P 2.702089013491636 8.954390012965877 1.2666457112720588 -0.1630331372365063 -1.6677612350767472 -1.5910850252699307
P 6.5182388627491905 7.925378149807309 5.739793659809091 0.1727436796560509 0.11968022417216806 0.08404704834959073
P 5.1534290995348835 1.2470524374568654 12.474559644086755 -0.43366874154504026 0.13004562656689217 -0.2772471960877806
P 4.066191471037601 6.676339815666254 7.787909665956617 -0.2411807893825266 -1.3037020262997288 1.447673518919094
P 4.886847406741317 1.2628307946737103 3.6724325918677088 0.6645304083897459 -0.1774194878651654 -0.881206784873005
P 0.4980928128652101 5.6610025287622845 3.1599225317961412 -0.32279865946533437 1.8114897584473706 0.6580070054489313
Ni 0.6351768126090088 -0.05973649770211927 4.576160671515973 0.6167222877675314 0.8644588759907048 0.3368582228821941
Ni 1.983529930606574 6.824502217140983 4.404407812397784 -0.7506888466553846 -0.40271343081410643 -0.11986585782041292
Ni 5.860861720175652 5.647327952507686 9.093021923960777 -0.5692826062283293 0.2655329929746459 0.5320214078840257
Ni 8.910790966127607 2.504460555339959 10.238485317796773 -0.8253421124949012 1.486755315411904 -0.41037454690379005
Ni 2.3870387463739102 5.566840194658999 6.713371801414617 -0.4572084765381932 -0.6417594332418173 0.1236528356666709
Ni 0.5748844451957443 0.28086382648122843 9.458651800782018 1.1085673805429876 0.42798326112448876 -1.84204886218115
Ni 1.7024938117189548 1.5805561281011886 11.103353298584654 1.2906971293996288 -1.4687151700807417 1.4920386752980304
Ni 4.4871834320429125 6.980136668240242 1.3845979994893636 -1.0334955391088139 2.5862454162439716 0.4702856214371256
Ni 5.5591777165853005 8.181903406880485 8.036892142838429 0.9151659154272691 0.4214110072236097 -0.07846955426181325
Ni 5.465976592749247 3.328244958422876 4.592922909053524 -0.05930172308411078 -0.8114216457590671 -0.6481702218641675
Ni 0.5408829921955824 7.392858593738793 6.491438325534027 0.6393407964979957 -0.03211410692572534 0.18775429413227018
Ni 5.410380553613342 4.9685865515416845 6.771595753149052 -0.3809001915937569 1.3604066780806248 0.21359825177856762
Ni 1.053087459946341 8.004233663805978 11.323562036797057 2.3288291388391893 -2.5626486027606385 0.7827147647426778
Ni 4.840382865144125 0.5945720264333834 10.2129107770734 -0.05949584137278785 -0.38034894707597716 0.3946388813360881
Ni 8.206187568160203 7.196218549918516 4.409717138921038 0.5935913581770229 -0.8487252673055318 0.8723236234507622
Ni 7.234793912907285 6.5426953164352994 7.307225640553992 1.2702681721213158 0.41384733594373885 -0.8913646992426133
Ni 2.7260920661082957 5.501786209214375 2.315626264331326 -1.2009602297541124 -0.16489127349116764 0.0780023848174076
Ni 3.0453770992146807 5.484774601088628 10.972796460636651 -0.9430089057814662 -0.40417201763750393 1.5982571175383378
Ni 1.3663331908076575 3.772333169905948 3.4176638105375807 0.1133069736559726 -1.6441582509458266 0.07280207156339075
Ni 1.8596063503046187 1.4147654930462599 2.6516463309110936 -1.3238635888492682 0.4820072807494279 -0.6338712887429921
Ni 1.1530714637813593 3.4907439017136004 8.24086912276454 0.0918572884226289 0.6494357188401524 -1.406392657892436
Ni 4.399414053018866 3.038993212156831 6.799294931283865 -2.3696034925430736 -1.3152437083907413 0.3951541304096098
Ni 3.8987685921326545 7.248287128734105 5.754963552790734 1.5923638919823542 0.4351229574930635 -0.48998027165257546
Ni 8.186183512976088 7.400493867748323 -0.10312607324630388 0.8738493160666693 -0.18977132456229898 0.6000353140301538
P 0.35759470306845637 5.661211093254231 7.813803401032882 -0.27572690278851225 0.14807034527908694 0.2772222563871161
P 8.87176220206939 1.7871075192996329 8.12606615837563 -0.7845165938381069 0.4533878172405224 -1.0614776261440364
P 2.0769033468490177 3.5952891203072816 10.227230996450896 0.2686715386036276 0.1432076178701469 0.5506729615469419
P 4.161986048990905 6.50565244906127 3.654144206330391 -0.1434241047563272 -0.5645042110030795 0.21092507582177866
P 6.918673619265658 4.090702332852045 10.311826567988795 2.0187700384277103 -0.1301728961733758 -0.41606311264813506
P 6.746036628062041 8.077720909142363 10.19764748347145 0.20702702631895314 -0.7554487299378732 -2.0004293311369934
P 2.6840073788419874 8.967330079487969 5.334308015378955 -1.115660539944343 -0.3479214226748912 1.3488670528721416
P 7.037827420317004 4.074198533924081 1.7620262789398218 -0.18715651264727123 0.14597258220979376 -0.9701533274067422
Ni 2.698951478091045 1.6485753565400123 0.1754435438235097 0.8192169734337696 1.151850873821971 -0.6159748680785456
Ni 1.4276783555041836 1.0995792056076994 6.745211438115644 0.27261663929430474 0.9072314910715409 0.1304102089951625
Ni 7.184629618583386 0.9757191014554669 9.164889620677089 -1.1419971209563426 -0.913582372990233 -0.22915522567656021
Ni 3.136982251286271 2.10906761871577 9.078515810144808 -0.5291795675598564 -1.2219895396205858 -1.1379486619185821
Ni 6.707687965607997 1.8780869778953828 2.607861389634349 0.14963974664873583 1.2681994625177448 -0.7445544516228726
Ni 4.619948333199134 7.2370518502331445 10.29329878668681 -0.9885364578996201 0.13862128405104515 -0.6733680612860339
Ni 7.282518909477546 6.0444075411102265 11.366536296961627 0.6137539491678269 0.011523170148251122 -0.8056286932263739
Ni 7.468168511374365 4.258633020954775 8.135263852470485 2.063249608897324 0.16711244951220253 0.3710677788843674
Ni 3.462678375514672 8.673281349907146 12.18949097608745 0.33997260014145964 0.11203916268714254 0.15205452673781555
Ni 0.2150907469404576 4.96979259838642 10.175549622148617 0.011773338485844241 -0.3273073459689653 -0.8510904251035987
Ni 8.803262368496949 2.2873811913088953 5.563262860221041 0.2056877386822393 1.333419865079136 0.5636989414929646
Ni 3.896936851812078 2.836322934112874 11.480303693307912 -1.134213363245866 -0.6399596610289173 0.5459786413950661
Ni 1.4452793850202157 3.6901224879933534 12.379718115181433 -0.38712406101628166 0.14626105998449004 0.16962698840394014
Ni 2.9681175569804745 8.744429045725173 7.821633637502276 1.2040344978040618 -0.3733630026764473 -0.18583316585015736
Ni 5.9423469603771295 7.894764509598073 3.4162437583880645 -0.7351465280454114 0.995144707244757 0.11430559012381604
Ni 3.231516374266506 8.566732098586499 3.1848604974180064 1.7186037716499112 -0.41545376119891025 1.6650150397901777
Ni 3.4586793780821274 4.799540496808108 8.802087152924935 1.2633146236216177 -1.8839110496325748 -0.6397837975726852
Ni 5.40257298719742 4.481262014075901 11.688155438773537 0.06620822039595695 0.8796821206983624 0.3379573694836438
Ni 8.290502031035045 8.784872421120074 2.7118471113083293 -0.9231049677686877 1.0422768848458694 -1.5513203437774832
Ni 4.869237309203895 0.592345827182386 1.2977327021977991 -0.2154072799628484 -0.3697883979513115 0.5474526548374313
Ni 6.187383034350453 5.947896589467192 0.38719725889281853 0.6055107353224282 -1.2498551556826025 -1.5610990204308017
Ni 8.280626955742433 9.109915647808469 11.354114014460848 -1.812348249792924 0.640077417553704 0.2601197923788746
Ni 0.24537612477541085 4.872120940005595 5.668642336782509 -0.24002944938690277 -0.1283990921024047 0.03114171571012701
Ni 7.5125474080520895 6.225568472419495 2.245311012876809 0.7795155410790898 -0.045399768291037944 0.9504206248645051
P 8.79812986839078 1.7962571528811253 3.457387185034196 0.6324060170513753 -0.21768836268754124 -0.619670828872894
P 2.221048614848424 3.4335609588346214 1.2775436593773486 -0.5124913082708981 0.7764379305950306 0.4332213695949765
P 4.993324113890853 1.23388567040005 8.010268432040352 -0.17967357400666475 0.8514040996892756 0.15417851505935384
P 8.9051959969306 1.736662116312674 12.546665829765598 0.7556199654084147 1.4892690829726931 -1.2715742925272486
P 6.6289231318232185 8.166678198968368 1.3221973171031587 0.05799174602343561 -0.8303879024489247 -0.15194782595662218
P 2.1435533040581043 3.2908756422788428 6.162107738332918 -0.5446709783272362 0.7671369649090788 0.6137308092393752
P 7.0875836536784 4.049152658847687 5.704702230637972 1.2941177250454037 0.4567374504390456 0.9350258875759897
P 2.704446699052774 8.780701131281138 10.018887764225987 -0.3363067212540982 0.2886014447583352 0.44427119965123485
