# total energy = -381164.80246345466 ev
CRYSTAL
PRIMVEC
9.26866057792752 0.00000000000000 0.00000000000000

0.00000000000000 9.26866057792752 0.00000000000000

0.00000000000000 0.00000000000000 13.56562164636527

PRIMCOORD
 96 1
Ni 4.661329865615499 8.401938801645468 6.676877024499788 0.38354765651893297 -0.29850790523876974 0.33868113502354574
Ni 3.241250582120048 4.697106895203669 12.606477563632556 -0.9126817155528347 2.244249100804264 -0.4165331103060181
Ni 4.723726488202951 3.271142012281149 13.222153899542402 1.842817879136691 -0.8552437851503399 -0.19241853237715895
Ni 3.0475077713735357 5.673347101274468 10.416851057284473 0.10561166189424392 -0.18026364218217986 -0.22743618610292446
Ni 5.8015604821794335 8.645361632752756 1.275127628566319 0.5572588422945758 -3.7644110167010716 -0.3797701917543717
Ni 8.578321411247254 7.866766343505314 11.686322022338446 0.20983132853696768 0.06395979068141243 -0.02659317710749614
Ni 6.28244639568282 1.1141856805165884 12.32051436135925 1.1605846541505431 0.6935172825403991 -1.5182001641847467
Ni 4.3237745183171565 3.249175286860433 10.693670725959665 -0.5934962273600553 -0.5403504965750113 -0.027199957453559607
Ni 8.784892048146624 1.9978412367023506 10.237038116426062 -0.6852236750730393 -1.3767979749544546 1.5831683415260152
Ni 6.970839080797599 5.738135038274809 2.0863115281847473 -0.6303923290554563 1.110361753439249 2.041672139836864
Ni 2.200667334753632 0.7414261068499073 2.6197526005406857 -0.5725643623033946 -0.18051149652692783 0.8195579017129563
Ni 6.355335141973332 0.3478760007818722 4.34955900500403 0.8254953502433138 -0.21321567162816826 1.5997247032227997
Ni 5.189513753727288 3.8478936814919074 5.995978051411442 -1.460026384057492 0.6807260443130019 -1.0002300921874645
Ni 4.243962082621887 2.348029768282733 8.201490115016302 0.1157487503282458 -2.4796243392486073 0.5487358924252291
Ni 4.810499687945038 0.5971325268173459 10.682872736459608 -1.5734606273199483 0.3856839861356455 -0.6946441970559908
Ni 7.085668515918805 9.287197836100336 10.079528353365061 0.3288453798800466 -1.011500008674329 1.9628642283990259
Ni 1.2080308682316743 4.239299946382807 0.48998310379892845 -0.20130297935098235 1.052151206536788 0.12814146756564385
Ni 2.177616176052652 0.9826263131656819 0.2415329512282658 1.8486694528214613 1.4987973341781027 -0.12159723868922283
Ni 7.8431497965129156 4.788106604140628 0.42939016254770856 0.022147996851948955 0.003822973290515996 -3.003213042984247
Ni 5.508151764914372 7.562439144153499 10.758514274923096 0.4088632524655862 -0.38847363306564064 0.8485131512947258
Ni 8.70858316612605 0.8631792313758693 5.524531341776604 -1.0844918276510225 0.14482304198638282 -0.1671746702087056
Ni 2.166762574589505 1.1469225894558164 10.403543114516937 0.8108614023802229 -1.2254561580129477 0.9170811301721109
Ni 5.744641637956388 5.12376187603338 11.308247798732422 -1.1320672634371405 1.3586349308921826 0.0352451963555393
Ni 2.131356291421937 7.22715461868135 8.63731272796147 -1.8179745948407657 -1.128808904400843 -0.7374103843789236
P 7.83052588089139 2.5869016870771224 4.202819425461542 1.640558192299394 -0.28954478250821103 0.5800321314353495
Ni 7.657581944340696 2.658094268493376 13.485923294212371 1.5788882260934227 -2.193138655281694 0.4319574152808884
P 0.5826956611990726 3.708539370647827 10.55235794714875 0.5639251985711579 2.5387113752187505 -0.4449322302740014
Ni 1.7158978524944304 1.0563399702420353 4.962629920443091 0.33687442083211017 0.3079541382533342 -0.27469023399388176
P 3.8010498712487424 1.566876328733132 12.269589559891298 -1.2422817142107185 1.9286287042549235 -0.21768836268754124
P 7.41791292074201 8.938677663412667 13.240047048666744 1.6090236120262222 -0.4414735823014397 1.2746809564770307
P 4.221837789972414 6.732829147431112 12.660970799398807 -0.17475531076944098 -0.42417185779819855 -1.8639276645321126
Ni 3.3512881197549613 8.477849131263893 1.1987816719036857 0.4658514969251719 -0.29802170963097063 1.4774368662244555
Ni 0.20212816791449634 -0.011285521043149473 1.1466343341137977 -0.5329968844234175 -0.9229378460632041 -0.5535906494143691
Ni 1.969099120445118 6.702001582557988 1.1856146127759768 -0.9494724020186228 -1.15872728922683 -1.136670309426791
Ni 5.843204573873645 2.613428593471253 3.6702737057113595 -0.5950743704804525 0.49503017537165717 1.8700558889170371
Ni 8.590797028300539 2.753311217964692 8.215028847430665 -0.6325343150991235 0.241577510600313 -2.752703262891311
Ni 0.9608171549737219 1.3899746741425019 7.35149555322312 2.0891557872401245 0.43548908258323066 -0.818755974636951
Ni 1.1848314109624534 6.159145404850842 11.95743034240425 0.22336561557797663 -0.5582497454529354 0.20889210455214993
Ni 6.892194496327228 0.9186725556116976 2.28466735126961 1.6551108933025884 1.884877270200586 -0.6587675377640396
Ni 5.388762148819753 7.525067904956737 4.811345916650064 1.4822296596274085 -2.774733503218473 -1.5000062668845393
Ni 8.716776662021372 0.20740203574757127 8.576077468536555 0.9939193194780883 -1.0352767993789525 -1.7645516991349355
Ni 6.223275266954612 2.0928264696607903 9.68563716059007 1.0682627673866698 0.9809787001570202 -0.5484872667495329
Ni 2.239642052219502 8.135863364239347 5.769893176663644 0.31815344738383916 0.017087551609906056 0.14664749678963132
Ni 0.6720538903588128 3.4673317494036398 5.370534401050815 -0.34542051062990836 0.25155750463116033 1.5795716253136927
Ni 0.3650582436447093 8.2980185799505 3.938506887285388 0.6440004067571942 0.5091650721111425 0.5015612916219556
Ni 1.7977771994845606 8.321394141769508 12.750639528685802 -0.4949496998427089 -1.5428195053953235 -0.47580526570377407
Ni 6.226445148850766 3.8082701577899822 8.089247563044854 0.2807377257395423 0.5605696518353636 -0.09171767752097107
Ni 8.822513541177292 6.813911389616946 0.39782295856548244 0.7027238887403316 0.9589687715448324 0.028921568130356644
Ni 7.39476907543588 3.9534081127954663 5.819448070107468 1.1220191351725193 -0.11422665725676456 -0.4172201090707137
Ni 4.5892752987713425 0.9056195010083242 2.7802737514030316 -1.0610855329119404 -1.3437078772687052 1.2218131619437216
Ni 7.6243074530915935 7.742492143319254 5.646038846798916 0.6798127884701132 0.8144959138090166 0.1924190465977912
Ni 6.980413607109667 3.30030121826156 11.488535295009209 0.5175892916190957 -0.27622981056685975 -0.48214997697487927
Ni 8.760144724571385 4.04953339099726 2.346228867544655 -0.16010027986042752 -0.5865347084405577 1.068161465922115
Ni 5.327292392283807 0.19678200452940384 8.59312902328613 0.12970212718454435 -0.4967260750168413 -1.7650600062299213
Ni 1.847985533494696 2.868446518882894 12.114846491994047 -0.07808543144951713 -0.20165830580787206 -0.02252774878887088
Ni 5.618522974327827 6.041118281851938 6.822910332111028 0.182369375671273 0.07502684712885144 0.20699283064690804
P 5.9351867608252 5.4399807668260305 4.419245429086586 1.6765096706933382 -0.6900478359345599 -0.3054138883299837
Ni 1.190355532629435 4.664481210190622 8.224022228728437 -0.8095915345288638 1.0736104048518285 -0.28599717436626876
P 6.235611854100171 5.854614294967695 9.177075026788685 -0.07642269903511355 0.24874446066239742 -0.3287631045788854
Ni 3.5979086387399493 2.6826469501977974 4.5047497492041595 -0.5544275434933678 -0.09335495601407794 0.23569096991254893
P 3.1677501042355414 3.411627099708068 6.667285814598793 -2.029609038024743 -0.42577159818515053 -1.6185107255810511
P 1.0232230462216894 5.257656945834084 3.3436813300702433 -0.44200657198677423 -0.3367983161785361 -0.4412195573091046
P 7.235552025108004 0.9973078714215532 7.315193917449797 0.47865841888185306 0.17899171744829173 0.2647819737412343
Ni 1.0318243631796746 6.165021735617397 5.195158367980966 0.360851757583314 0.09284844869130461 2.0051251939507657
Ni 2.2206042235215477 2.918886569405906 9.204382354398184 -0.33849318738245576 1.0565326234339352 -0.30357554956966426
Ni 3.9137660517725115 4.476911327347146 8.288635914911096 0.4345930531315226 2.8792143939423833 1.9746362813332894
Ni 3.0350599603017963 8.178387978682489 10.544205233359694 -0.27269762904388517 -0.4628031970171514 0.3919831888807959
Ni 2.959381347196248 9.173666013451243 7.8335901000576715 -0.8325242320656371 1.5309656913805312 1.4840443442386444
Ni 6.32057766504182 3.1657758795458313 1.6060475418019213 -0.3084873850489849 1.0953922766136104 -0.7382678472832125
Ni 0.24625626062674555 0.8631467910640666 12.301535852088591 -1.0739467051453246 0.27894206729170024 0.6978966425550174
Ni 3.526882893212966 2.7102675585327063 1.8220258691240874 -1.0993913704706744 0.2839688310823303 -0.44694437560802375
Ni 7.952575602553834 4.534043350762039 9.477119178116487 0.6693663963258084 0.7530383207241675 0.4069745200833055
Ni 1.4535669539363987 3.076333305575404 3.3388653340666123 1.6672025343597998 0.333882942303954 -1.0218278729628982
Ni 8.913086891730558 7.024411938574705 9.23581423593689 0.9204171365238794 -0.47789711523579637 1.2481235177034764
Ni 8.45643852547408 5.69998523159478 6.9953296624765695 0.17312111760012766 -0.2853155749182118 0.38228755885958676
Ni 7.100238850248494 7.667953575457059 7.985158651728512 -1.7528200125203037 0.30003025542056716 0.11563562178914923
Ni 5.557442501533514 1.611542003755255 6.410692216899589 -1.0739780726038923 -0.4556380467272798 -1.3333455601977746
Ni 4.381268019492136 7.04357952851987 8.865092840717473 0.4994352464178883 -0.14883653402115013 -1.5990292198176719
Ni 4.243582067540769 8.833487635227137 12.71684784617996 0.4453718889145814 -1.4121825251013358 -0.3178068626776978
Ni 9.115866646479265 1.5164084722285747 2.876467617692636 -0.016999876992106207 -0.626136639102896 0.1672068089982217
Ni 7.871576778312636 8.110782368885568 2.5765587888083554 -0.7284842855338873 -0.9631205889296769 -0.13606020819208828
Ni 2.869503146181612 5.809383231654153 6.689044922023972 -0.30810429067795325 0.3166987172151836 0.9498976624814996
Ni 5.205159252676726 5.4299613448092385 0.45249044514941794 0.33178569345529313 -0.7667374154778149 0.5331604065844753
Ni 4.667614017444715 4.478551880258314 2.7480290083371535 0.6595154716736578 -0.03143764968399102 0.8129388537345419
Ni 5.064674165249808 1.215677513156607 0.5927021070911423 -1.3711837140914707 1.9452729976798242 0.17874412021385988
Ni 3.86212107538254 5.55147348416181 4.7101330706915485 -0.9404380597304964 -0.010923588891039252 -0.49330033716474403
Ni 2.378551467358859 6.959827912105696 3.386155893746604 0.6307566543734106 0.7738190049149447 0.4255299144879897
Ni 4.9007486353802765 6.77225802926222 2.4230095243854444 -0.9569095750229583 1.135870696343631 0.5914362595072331
P 9.322140686242152 7.679789654934803 7.199573865586656 1.0654782626629973 0.13443038589814912 -0.7788971907688005
Ni 6.560654509703168 6.996921091487007 13.020839520021129 0.1793087344680783 -0.05643905682433506 -0.5292191625485402
P 4.189981403782118 9.1209922157441 4.673709088599426 -2.5443958271980374 2.24635997649968 -0.1275889374962835
Ni 8.197768747819502 5.45519063873126 11.617666273305167 0.16944778251359852 0.1989725314455928 0.6930416284555614
P 3.205464283871362 4.873128027045367 1.266700562426017 -0.31342416022896985 0.048287117141161996 -0.1542800736342246
P 0.521090582219607 2.243321710443985 0.5952936245711561 -1.2527309345685005 -0.16383892096725333 0.4990526662674889
P 0.48157735557781123 9.18472352544572 10.352862078820534 0.21132436814272634 -1.6289568606150395 0.8884015028492313
Ni 8.253334367607348 5.987276632919896 4.3074922623903324 -1.4501947426790507 -0.805138898074149 -1.2973984526792044
