# total energy = -340897.47910642053 ev
CRYSTAL
PRIMVEC
8.99725656766618 0.00000000000000 0.00000000000000

0.00000000000000 8.99725656766618 0.00000000000000

0.00000000000000 0.00000000000000 13.16839444341456

PRIMCOORD
 96 1
Ni 6.152351080579285 2.013532051961106 11.168141710923608 1.8289740312750629 0.14786131459207438 0.8197116536820012
Ni 4.616528369792986 0.2295479083214425 6.061543568787043 -0.4775320185868937 0.0812265481816601 -0.25489376809324493
Ni 2.7132307061560863 1.4068380396292772 4.757662036587796 0.043812883419892285 0.5704396026509079 0.08222207932571
Ni 3.442197436193267 4.3873862377459005 4.69021320247816 -0.16178075288664398 -0.0045742496342437355 -0.06804090272932152
Ni 4.970633399280073 4.6443478873165285 2.5773838273615466 0.33965661156293764 -0.35433658217261554 -0.24847038106540434
Ni 7.192946791517315 6.123496878542415 2.640223366895725 -0.3922251296882729 -0.18503869497332004 -0.02691173678917946
Ni 5.0540649600807885 4.5487520355417415 11.465352588062663 0.5731266625647679 -0.013926894493737303 0.08929466990177524
Ni 5.440605099746523 7.75010190880237 12.14530226393805 1.2735627837121872 0.4479532764885124 1.0362160233637703
Ni 1.721930964335614 6.581655181043659 0.5586810520107962 0.5584500343891995 -0.19988090219247512 -0.8889524902566949
Ni 2.840730829967899 1.5600973091946164 0.2272563070558389 -0.1918739727275986 -0.8084108839572013 0.5566500050659833
Ni 0.4650358054750464 0.16317424638000405 4.801828669696243 0.2161672980573245 -0.13330090027939623 0.05601148236861321
Ni 8.506474282557763 2.2580954818850847 1.347390465847484 0.366190396187408 0.473963584509345 0.08365804044128818
Ni 6.8501693081370005 0.6414873034751967 4.781812472854513 -0.41367481492161656 0.22188568859834046 -0.13373361694144065
Ni 0.8769805989827831 7.513150157993825 2.6005733566193667 0.020393218944371332 0.4565610727621814 0.38804811549244783
Ni 7.580935489501706 3.9226689351558264 3.905825171004525 -0.4085140966562836 0.02155972844864674 -0.8350837652626973
Ni 7.568735209501084 3.8564581235595288 12.60335169963398 0.21363553277440628 -0.5542624786704131 -0.21818407137703716
Ni 7.752198269598938 8.729651233454103 6.899119782599675 0.4259518325167568 -0.4929838343655897 0.1868963170073491
Ni 6.7608985277784654 0.679845307698392 0.45855778069595493 0.006434442771434079 -0.057959093013287284 -0.7891476648522151
Ni 1.922929677620202 6.337946490500256 9.148518516218829 0.1826491116952209 0.5002533714438094 -0.3620244377351765
Ni 0.032052726771546344 4.756246768118697 1.5090054876521872 0.20614565215526434 -0.4003001933869235 0.1938210691516404
Ni 6.351271427580581 1.8656981281482563 6.856229860208106 0.46335238465240197 0.645105724006231 0.7713718289260328
Ni 3.4871747221247644 4.309308044644573 0.4557938234568759 -0.11899708206221442 -0.32621874089047687 0.2168437552990588
Ni 5.849494424900121 5.508570376387157 4.781879052553632 0.4141774655896479 0.7554253328991054 0.557671247241646
Ni 5.33675876363503 2.953880329442697 9.147096049944421 -0.1732553291851468 -0.29758925007924236 -0.8539934576830066
P 0.08628549060617087 5.561222322230551 12.61545390953725 0.7189606623141683 -0.8029647732409655 -0.9305781362172812
P 3.911296402765866 6.110234922258552 12.58504768073039 0.15548026458991288 1.075779130368373 -0.275556438648919
P 2.3796754108293388 8.594521436013581 1.3507221499803974 0.4442568014735317 0.04935335362214726 -0.34235061345533296
P 6.128301413586907 7.681605794020116 5.757708911311369 0.7340944326318131 -1.1610011728626717 0.7044755813241158
P 4.772972668208045 1.1024788420916298 12.510580986443406 0.19661148741258397 -1.8530485557257634 0.23267146635993477
P 3.9193669419698174 5.918485388797445 8.084603715527397 0.6550515223650332 1.6562894869917217 0.6438037173653557
P 4.817671039183777 1.1015161356314036 3.964186775910156 -0.4331393514041315 -0.7547398767963066 -0.970061281913568
P 0.16744794328287688 5.7556710326829466 3.5357275178440553 0.6990420690133703 -1.1679781184011369 0.28365927026171145
Ni 1.3724415275036292 1.167681960944513 2.6609638428967832 0.07179059957974088 -0.1018506521899149 -0.84868952897159
Ni 1.9221739080626414 6.464465913338567 4.822410793980478 -0.5459411032889113 -0.30214164533661514 -1.051207611676596
Ni 5.802276822065854 5.672869279846865 9.283454872641641 1.219398638964958 -1.2767645784789368 -0.6838291087183578
Ni 8.51046906450487 2.2769537317975512 10.154742007624133 -0.2021517005045228 0.7349655223828568 -0.05602896587010996
Ni 2.4638987302141655 5.03715011760205 6.874297251262125 -1.465960747264056 -0.464652077300432 -0.08639035177078669
Ni 0.548126370249196 9.134284856218104 8.955799078492184 0.2077093970979584 -0.9333531278592571 0.5108802550300362
Ni 1.3215080576780225 1.0468128152746312 11.240304207785696 1.0136790186035187 0.8768037707093028 -0.18990116527194392
Ni 4.032552430471165 6.838400896454985 1.5463378046186935 0.31932252799127586 1.0370061233652335 -0.20103661306347315
Ni 5.40410322956767 7.644267178973963 8.129811331228817 -0.2053259844674464 1.219150527509894 -0.9807943520603559
Ni 5.165450997254612 2.9371544293533485 4.953897602208423 1.1324408447264755 -0.0462726578142945 -0.38983297530701244
Ni 0.6824941000525094 7.221369125235579 6.887188520572517 0.12186951851400302 0.730171186318007 -0.08288876637543144
Ni 5.112808048667856 4.3487610150005676 7.0794212067150655 -0.32132953111897566 0.3867592214776952 0.20100884514933126
Ni 8.343929844142393 7.0810479107151485 9.110079536685895 0.08615483872121292 -0.2091204185128721 0.03559203817199677
Ni 4.6782495503271075 0.14231230741433823 10.281131869966863 -0.6503482033520929 0.11636658641790282 -0.14512900326257586
Ni 8.082766475721993 7.26902759364509 4.743505752994153 -0.5892577637986754 -0.5089699253812009 0.35049149739491253
Ni 7.196959567977697 6.088029692876889 7.059063114121106 -0.20491280818942775 -0.1453989690945109 -0.5440163754623728
Ni 2.369760434014674 5.250511061506738 2.598703726690068 -0.7361076064071 -0.5590491014257792 -0.33937507576677683
Ni 2.2868507140989407 5.161987053449126 11.538779199482335 -0.3288911455163175 0.16894024674956065 -0.47099704568185335
Ni 0.9583427907568445 3.361060175835146 3.6957491254982346 0.651246032576014 0.6480380671616774 -0.5068595639064175
Ni 3.8119127059466376 2.615268575885603 2.679438809676487 -1.0423892420540177 0.1285304754739464 -0.014287363156949588
Ni 1.1927033316537536 3.2667959180427277 8.270555416811217 -0.3360521820411309 -0.08816415584175784 -0.7364377360530091
Ni 3.6518065240800643 2.4487203582664887 6.7879253869922325 -0.19793303443748494 0.714291538973273 0.6584358654562338
Ni 3.9584690193169445 6.851851795128237 5.993094239739303 1.0454501403675287 -0.007267994416322967 0.15810870335169544
Ni 0.8138990332450523 7.199127906827366 11.34200379846345 -0.2215139070812185 -0.011975170084005183 -0.10713401207604129
P 0.2542084890395145 5.411975829125593 7.885998272508417 0.4076118965569883 -0.46195319031203025 0.3586146407226791
P 8.423438601049103 1.554653968928852 7.930349349377936 -0.029670273370923095 1.7034761719798532 -0.7459878416352895
P 1.8475956477933508 3.157416269099096 10.429552414912486 -0.4386559103469865 -0.4646317655854578 -0.2633326428892175
P 4.044869674808076 6.194629189519493 3.716213385720517 -1.2474820274647354 0.9299191624770436 0.13043771979898827
P 6.876018426456903 4.038643573214839 10.242799058062253 0.858854899540366 -0.3152496434734829 1.2728737280649627
P 6.540204819714111 7.675415681453428 10.117237843055849 -1.39220068266277 0.15685091968519438 0.22976483423610108
P 2.268127423036039 8.337667753522604 5.769086842055311 0.5249994680402377 1.275125757323933 0.4315542663051987
P 6.822259818047082 4.05327311250762 1.6550165672702541 1.2044929254977192 0.3733750868613053 -0.20293820096156018
Ni 5.392181864522814 2.852022387048121 0.5763597615780696 -0.6115636263847274 -0.20529615967077547 -0.9703317619661354
Ni 1.5039994140590118 1.1358676614738636 6.95229356932805 -0.5391695888930328 0.3090481426484613 -0.5209525516643738
Ni 6.787440434859465 0.6368267245369058 9.066887306471303 -0.13531613093721212 0.014903913695025946 0.23585912005929702
Ni 2.935831832627617 1.594844714329132 9.086877411268782 -1.1303417961056015 0.5525023014461969 1.2282794863943554
Ni 6.362167105368747 2.129803599489161 2.6362861673910998 0.3759672730685138 -0.5688969407541364 0.8213337626664565
Ni 4.086275049854437 6.6719246568889705 10.399633837415385 -1.2869152937596933 0.8544467431703414 0.124634739963966
Ni 8.127464846697723 7.161906256117502 0.5626461430109985 0.4036128026999242 0.36705840061465816 -0.5216886584994499
Ni 7.6431425218942595 3.8427103154172344 8.197246669453495 0.13797825115040754 -0.5993843107097162 -0.5540105105606071
Ni 3.0778535286525597 8.33674103608893 12.196080081223826 -0.3486631859369221 -0.09090006671568215 0.4123180437834061
Ni 0.2963633355637884 4.746133851658004 10.023202115582025 -0.9742879184004061 0.12704052119198123 1.0571026370047922
Ni 8.61477426070488 2.471267483400382 5.823986302606785 0.5536248450864142 -0.1204422991491732 0.3822965577206513
Ni 3.800387220193837 2.614971666416561 11.338764786073904 -1.1654964896298636 0.07950390906359857 -0.2996119369362259
Ni 1.2593909978518452 3.2899008730881536 12.59854536513816 -1.4070390332271832 -0.020563425973648457 0.1480286934078741
Ni 2.9881508799754184 8.451213132289457 7.956344223255368 0.1199285927375483 -0.8863281652599703 0.02153067498292421
Ni 5.452472481251552 7.873301343941398 3.553873185030821 0.7404085477752991 0.011491545579367306 0.36172567554783513
Ni 3.0981963259102345 8.500509101407015 3.44773614737939 -0.13673100900686774 -1.1356141002481346 0.46966727112683626
Ni 3.4255345169003815 4.287129807032822 9.39044754939931 -0.11083357241481559 -0.30129035307991336 -0.13570565306614693
Ni 7.295308580283598 6.000756303491907 11.32616232870158 0.3748241606030061 0.0004890238212765772 0.16632672038611354
Ni 0.584551763746629 9.039813661523018 0.09627784382791946 0.185368567508913 -0.26225560777495477 1.0473998078947317
Ni 4.629574391917545 0.4764245329269547 1.7681201807362 0.007248711142613323 -0.5236835774422917 -0.931277476277151
Ni 5.956525789861332 5.688632473475987 0.3672194307620927 0.03509735792376536 0.16145345145421228 0.2029963078930052
Ni 8.09703612474927 8.839237819300399 11.186801121464383 -0.760912838376238 -0.026989384104650297 0.09395196616812852
Ni -0.017685007646919715 4.9422830436149106 5.598858746471408 0.5994686428934063 0.01366567041255066 0.905476456053647
Ni 7.91420287261605 8.777570622306103 2.6877612720662913 -0.4349589211113734 0.5485451165706617 -0.49701686678438284
P 8.397265581490245 1.7819426661085864 3.69453809475481 -0.1601804982790596 -0.6113155149296633 -0.9079490859638556
P 1.967709023905672 3.086481897768044 1.5092295193424645 -1.0138379127788861 0.7886067047470805 1.4328763060052612
P 4.7247833616569155 1.063799635806471 8.139634536025778 0.9996857896482202 -0.9394682396180595 0.08637698203434802
P 8.38349078157804 1.6803006578733137 12.366017565418334 -0.2417145503988095 0.18113164660942999 -0.16129198617568352
P 6.273904017753626 7.772649033936263 1.411863007461392 -0.9227509268633786 -0.07059323683753004 0.15559442157027398
P 1.9145262399206586 3.2477667202541465 5.667663467156333 -1.2342552443618162 -0.6588048187598782 1.3115935132326637
P 6.920914737078663 3.939637761174391 6.044648520272906 -0.0444317479508138 0.43859934607743817 -0.5659440287733994
P 2.2180846816175572 8.39546613016272 10.107743937851824 1.4521048152175702 -0.2647570340405698 0.0046989481375661005
