# total energy = -340858.39790833753 ev
CRYSTAL
PRIMVEC
9.33686664743690 0.00000000000000 0.00000000000000
0.00000000000000 9.33686664743690 0.00000000000000
0.00000000000000 0.00000000000000 13.66544812346819
PRIMCOORD
 96 1
Ni 2.7116781835219146 5.966752671804723 4.869545721171744 1.3403060506760078 -0.4271466241558063 -0.4445758753758473
Ni 0.6517235658386842 6.607065652855898 5.207423584683743 -1.6544688888432153 0.020821564731041558 0.8862998831251963
Ni 6.961642502451246 5.48767804170315 12.597165159830547 0.16371396535361482 -0.2616537125248978 0.7113445405298072
Ni 5.4984061015352825 4.947353566084791 7.413409598531028 -0.49373228249583995 0.056097357214200165 0.9067098142401159
Ni 4.78115733892034 8.430555718317544 4.455797412585834 3.357582021056695 -0.9627225821603096 -1.2958997566464907
Ni 7.308619142557163 1.4061414610782879 1.9037058882952405 -2.8641677840219057 0.3217383365216201 0.13734010334577637
Ni 3.0413442727759845 4.174363709302894 12.459622842865253 -2.276664283910176 -2.591104801218802 2.2115112442516107
Ni 4.19721102210466 5.5904769440110496 11.48369152004218 0.5771990328619284 -0.32043658699106103 0.8791403892622794
Ni 9.203984407834088 1.5323105407228514 3.177817518504744 0.3944576185632174 -0.25080751383901323 -0.05177764679292373
Ni 8.744825314392166 4.637192191355807 8.925997875734808 1.034178424108451 0.9333315305927021 -0.33801496219445665
Ni 5.888593760703957 0.46673969551129424 6.126917283084442 2.279278067383939 -1.5049253014527115 -0.7338674042226716
Ni 1.5226655574272965 1.4530778899522032 4.834070296165489 0.9314628528150796 0.10602098151752064 -0.24646697748213037
Ni 6.7488926579473585 8.651092509644755 10.177247254155835 -1.7821719833198597 -0.27140642103628737 3.144439111647991
Ni 7.825283997971325 3.536954493793751 3.4323507751537794 0.5642792394764669 -1.196416833357804 0.2384662186648409
Ni 0.19108271165232366 8.720054607051308 4.273144957872094 1.5635875911806105 -0.08215085976814238 -0.3110962834267416
Ni 4.288432209711215 2.8996946681517213 7.406481643443611 -0.5631055308833398 -0.9932189509769541 1.2601657935799908
Ni 8.337317767504949 8.621177188755153 1.8173538766699355 1.4252702115232294 -0.44954633200724514 0.9555998550725994
Ni 6.691853739309852 8.405971748310579 0.13177493440802057 -1.6870385952491203 0.8827671873815893 0.029203618147149703
Ni 0.47504390474950003 2.1699158304325823 10.394391028126217 -0.007388836264903404 2.026693149929529 1.4659306653570687
Ni 0.3085395609841259 4.172589704630915 6.065177252066187 -0.06216670333673165 0.12692302177751044 -0.23788386379880969
Ni 1.7410268588146571 7.869008544702287 7.295217937790358 -1.5353679342132847 0.8107518733855522 0.5160378879715758
Ni 8.514848950836683 4.105849781497684 11.289655557454346 0.06557032970164191 0.0319608691773127 -0.26620173690689636
Ni 2.4677525411246513 1.4603699828407108 11.345123081427145 0.6428446958861961 -1.3990704131994098 2.050604152219172
Ni 1.802724873932786 2.4524494166121493 1.754862227882763 0.4845115352285204 -0.6776569184693748 0.5378290157047383
P 0.4160797241995594 0.7649853609645882 6.529365181909839 -1.7219433775461053 -1.4362992156438812 0.1647956284535678
P 6.751936476489809 3.8404400088360724 6.078282478158773 1.0227146464432257 -0.9441826143745933 -0.30678737163874265
P 0.2825167798195168 0.30110087928851254 11.810609769428021 1.5582435532598775 -0.04263480395139109 -2.0683367936122443
P 3.15655187092105 5.75556208403884 0.45945787317615067 -0.4397175188422814 0.9939972239038753 0.6106534558656322
P 2.6953199930729195 2.2786903274250463 9.47778055416082 -0.9468390781608338 0.5950607436336978 -1.9236592760647904
P 0.5333087539840127 5.5208145816024 12.016370035524305 0.6895863229171091 1.3957441770396541 0.5444634903021204
P 7.905833146945915 2.8186319915089255 9.575256508766108 -0.4205394032519338 0.3464417528055711 3.409447342467419
P 0.343697532522763 6.178895619973458 7.447286551959162 0.9389139097764861 -0.3426390912300292 -0.028913340600240527
Ni 9.08058837759783 6.181425910847704 2.8117749966083876 0.3884630915426794 0.14280241201192825 0.018748484252096746
Ni 6.481652859413599 7.679180707933722 8.297168307031361 -1.8209832997601025 -1.102969574740236 -2.5618351057204074
Ni 3.3322530283806366 3.388022133147674 5.430075176317287 -0.9254942939364706 0.4379437147713103 -0.6439687821883103
Ni 5.931365947032067 5.942019311930642 1.1977780765475392 0.5434563891938448 -0.9525153026100047 -0.7884550096605646
Ni 7.6046445011104735 0.5795607905292116 7.534239857799601 0.31780069203011074 -0.7995243801008489 -0.1897659252456603
Ni 0.3507188562771264 7.609490334924988 10.531811032137812 0.4182961157437119 1.1353644461311736 0.38318358831129495
Ni 7.938390801110097 4.361577223396963 1.235759516574633 -0.5235074568757436 1.569511669974529 -0.6131597672272537
Ni 8.30025040672726 7.53342288196382 12.592177405642275 1.4778574987016417 -0.6547998113655433 -1.699402516131112
Ni 4.615838777225184 6.472904215320728 3.060048817825341 -1.585363292294805 -0.35576097332396794 -0.9532645220712035
Ni 3.7937089910294386 7.450352778981679 6.502635599936445 1.3643381519245472 -1.2166509010164916 -1.5155470428326157
Ni 2.916715776136036 4.471220048992028 2.5764831548436504 0.6833868789746165 -1.3486960745119159 0.42235331653222097
Ni 7.777740672762259 5.485437193696439 4.727506769206315 -0.6546887397089758 0.17560583169519436 0.42684194843119394
Ni 6.807108021788389 7.195960509019732 3.3482125346217715 0.0036771917412710864 -0.8403049044523205 -0.39729971599770286
Ni 4.28995411898244 3.5145366768599393 10.024343924104533 -1.4099628917421974 0.49107787559212845 -1.0598830279634068
Ni 7.356470584367153 9.290873289294336 3.88582465046534 -1.2136763917692002 1.790764352974561 1.66183304251777
Ni 5.051207534329184 5.700315843806702 5.1183526774769605 1.3353628477381196 -0.6914627140042156 0.9160616877686611
Ni 4.747497934486192 1.0269339571425 0.7790606875067462 1.8492741762849958 1.036505015359099 -2.2717064256842683
Ni 0.8637927527605324 2.331322244982687 13.191940374638662 0.1902680616930594 0.4272381554283481 -1.424333815751889
Ni 7.793800083477025 6.425510279978776 10.240025544750534 -1.7806403771666819 -0.7573294919003538 0.04609088082079159
Ni 3.6969883889397446 5.720212706732962 8.77708512250879 -2.8448294887046104 -1.0137497239404543 -1.315669225963934
Ni 2.2982417262836057 7.218481031487185 12.163382736377967 0.49319183661133775 -0.7225545503130136 0.17297867848499243
Ni 4.52091085354086 7.824098215901107 1.023620303152575 -1.960193109324766 -0.5414984941365255 -0.6496509201747521
Ni 8.695564005711288 8.095903742248542 8.183662819684727 2.074608999774201 -1.6216706113662718 0.2819250611794241
Ni 8.508406512817388 0.5849257541319474 13.452007592177607 -0.3814825464597882 -1.1548780906840692 1.170941571904835
P 6.054099059733006 4.7141279729195755 3.3830315778993936 -0.5071639825207136 1.1987920184582 -0.4752527356344138
P 2.4134119769618927 7.888924081361937 10.106145146902872 1.2766439937406722 0.3495497023069335 -1.0257395493124786
P 6.404941162650502 0.9480280967061642 12.178059357135258 -0.2500045583217436 -0.563975335082803 0.30554604303247374
P 2.9497309367682547 1.9896862926260992 13.512873692473242 1.423118198177233 1.131244253315213 -0.23100796261458278
P 8.866475350556529 2.516182868669708 1.1517968091364845 2.116727526210806 0.6429681088379379 1.046040979873992
P 5.003103997118439 3.9214653380120894 13.322390407662715 1.4410493287343569 0.3887276580579757 0.10429962795103974
P 3.2660453066490005 5.129861299364765 6.756840198877829 0.6083361205863652 -0.11818178524977063 0.6598898242939408
P 3.5255635164262995 2.3253746608982064 3.6048633926371494 -1.6386175236332552 0.48484063643316505 -1.2271003784845897
Ni 7.8833593088119365 1.7648452057526636 5.6568536630298585 0.4915866969077469 1.9218070533473999 -1.5606966427860607
Ni 0.9446108034959287 7.289263817899191 0.4640572137099264 -0.4833913055811482 -0.5727579663714394 0.6573778565053646
Ni 2.0753240339492645 1.7091134484524044 7.349715361313587 1.8927466456463338 1.3322510415820152 -1.148803602355215
Ni 2.0666314110565622 0.10763539925571877 0.2032066330553034 0.4328858406324287 -0.6323944470871495 -0.8283711291292121
Ni 1.7339121663933474 4.107044900434597 8.342837723094815 0.5174422245182702 -0.38863921210922747 -2.3810886103645377
Ni 1.238208576708635 0.5748391370417362 9.07168474151783 0.8834274466734076 -3.4306998240882915 0.2678968652211322
Ni 3.950680393899593 0.9556936642624572 5.596479615609028 -3.4134281814920375 1.6034504888138192 -0.21090450699648836
Ni 4.299094911476485 8.899004994120626 12.398483172375462 -2.0177845345859895 2.933732579594922 0.1917644437329278
Ni 8.243379551690255 0.6312001991572134 9.630424319318013 1.4974089384710083 1.0690330698937913 1.5034003801677527
Ni 9.160269197969821 2.4287057646077 7.992046039257471 0.827641450052039 -0.18670142738772363 -2.009033784976553
Ni 7.7731656080818885 2.620083521247574 12.988406951249045 -2.346282044208314 1.3296421432042584 -0.8206256808558384
Ni 7.673727977784057 5.60620022752481 7.051903860161593 0.02519038322269855 1.311414050232006 0.2644032502455769
Ni 5.60364192605048 7.371204160011282 12.06275092082989 2.362497220515596 -1.8454193213152796 0.2599884090073329
Ni 1.0574748481006415 4.838896522559944 0.867872029819417 0.2547454154408387 -0.3452289634443925 -0.5276883277263106
Ni 3.5329583148484485 0.48538821936048293 2.440594396969975 -1.8206727104982192 -0.9793900155136617 2.06736414528633
Ni 6.069672953379652 3.6817692962274946 11.334286713941356 1.2976388508247847 -0.905770333144982 0.835645037082806
Ni 4.926765775023127 1.3486170253726597 10.591911509364488 0.44394364110848705 -0.9156737083016231 -0.5956832077090451
Ni 1.909622660719629 4.762689016598357 10.413713673750758 -0.5386905923740851 0.7558886456887692 1.8597748187060035
Ni 2.182987443805067 6.583835528519653 2.661086371337051 -0.7851174606468995 2.1235368358231557 -0.8783780571749583
Ni 4.819578545368751 6.955349454299063 10.031777937366797 1.091826670749539 6.182121392053702 -0.574440753390501
Ni 5.608198316997462 3.4071346992715865 1.7179517264655435 -0.32696076126282403 -0.3024491492747049 -0.16962827395552077
Ni 6.4522230555921185 2.4595267615666807 8.248792133313133 -1.5107560492018757 0.7743103427290664 -1.0248933992620994
Ni 5.556537433576062 2.1108788223224235 3.9041771956403086 1.4650804015416317 -0.23144607859326594 0.2960692138902901
Ni 3.8816622752928733 8.442730992487345 8.41962411479147 -0.8827625593958991 0.6939921652942886 2.08449926230472
P 8.084008574079581 6.702581799141983 0.964933427543465 -1.0022093274010224 -1.8868099684469246 -0.9465081771839765
P 5.972896330089791 8.937528906102678 2.070807791529071 -0.5081867673582732 0.4144366327883056 1.9865983387911719
P 5.684825981960307 5.209448751069808 9.74867106757218 2.059692230563369 -1.5056238701816327 -0.9836732162700478
P 1.0126765616997968 4.75211034663334 3.9424546143416226 0.011268630935283819 -0.025235377528021054 -0.24706218786396805
P 2.8398733632392137 8.537854990372256 4.727876509127422 -3.2408153709868963 -0.16150384507617346 0.4278819596599341
P 1.1555306221276678 8.854281402653339 2.017839746770423 0.479681975050361 -0.20576795710087145 1.5813857957042958
P 5.106257700360735 0.7439979520083942 8.069351560742346 0.23046108897217726 0.8481228578348425 0.49250612339822275
P 6.749527564882594 7.630395579454269 5.96905420944495 -0.47574587322074846 -0.21297090260721388 -0.8492680271828794
