# total energy = -340866.5848084181 ev
CRYSTAL
PRIMVEC
9.32109166941522 0.00000000000000 0.00000000000000
0.00000000000000 9.32109166941522 0.00000000000000
0.00000000000000 0.00000000000000 13.64235984857503
PRIMCOORD
 96 1
Ni 2.845430927319819 5.227957813886737 7.583036882629058 -3.4648669568883035 -0.20735946995770738 -0.10396332765754353
Ni 7.917670588397205 3.4388116053901694 4.154657442725793 -0.049302702889869925 0.6753105297243853 0.63570242841446
Ni 1.4358209181582904 7.0296595324895055 13.277917059768164 1.4417525254489685 0.8042834920523891 -1.0999914659485186
Ni 4.875462100682426 2.0925570544260044 1.9897929539287091 1.8104014104791981 -1.6643997748036818 0.4229894074543232
Ni 2.2429901484155956 0.04344374276390651 13.209324080317144 -0.8754500848948857 -1.0549495952175316 -1.3072084967910906
Ni 1.5959852315620418 5.407649813758559 11.286856437410025 -1.3938490168994704 0.6681448652138816 0.4053927774184825
Ni 8.616761763954138 3.3095839943193663 0.7271066478473545 1.4281616741384116 -1.3623218928254668 -0.8558379670909132
Ni 5.535563150942967 1.1895670046499558 7.528249371640024 0.03859842909848836 -0.17724773817399153 -0.28811139249579415
Ni 2.5259411987376748 7.850362987449263 5.086280953151611 0.08114427288049895 -0.8563347042216737 1.798040060700368
Ni 6.840180386655165 6.413479464872186 9.618859250074058 -1.1043517997997434 -0.008814255857520303 -1.194523472989833
Ni 1.9318614388128588 1.450688058929924 10.855170595950135 -0.9706402943454896 -0.32330979477379806 0.23304170521515993
Ni 3.959096284757603 2.6141932920454045 11.3162421101352 1.306169771113931 0.03414682108503797 0.783362939849638
Ni 4.493837976875384 8.546536661400227 6.56061102829042 -1.222461594160998 0.847331986502431 0.16974680181125604
Ni 8.664588283890973 4.848617357470949 5.969364880149038 0.20097104993286033 -0.6691031153620928 -0.7375173422704331
Ni 2.1258426717899566 5.362023071390442 4.124753517319175 0.46625953099686795 0.7020494883811264 -0.03316774500122029
Ni 4.018350462742102 9.214747061172568 11.468668053464587 -0.4343390281391875 0.3782946356501098 0.050484124792480795
Ni 1.9738622766291485 1.4289139894361707 3.7065469061225214 -0.014983103672393552 -1.1485804306008154 1.524859321372477
Ni 6.141965393689162 7.79281456918966 5.394270319173228 0.995176588923957 0.2201550790604789 -1.9470077209827439
Ni 8.490358443575376 8.945796290122585 3.10607847015703 -0.6660450452620593 -0.5277137816476073 -0.00909887697747465
Ni 3.6783077276386704 6.050590734764819 10.503115770368709 -0.02770466500412003 0.8397397759774698 0.0854837807961173
Ni 1.818349187830441 3.2254145390417155 1.650439047479211 -0.3471251520258409 -1.9269613438548296 0.5947388415179047
Ni 4.0543298755185955 6.090261299732891 6.076238649841452 0.6461009980399646 1.349793935561785 -0.7805208424151525
Ni 9.123791851360904 6.326168801795136 7.633827509628828 0.5989091708455105 1.1732864179879279 -0.19012228014381452
Ni 4.152266582783521 9.292307862652672 3.910772950649527 -0.073160483344074 2.1780743047494036 1.1550387846316497
P 2.0970498204773698 3.5284711834982234 11.979082629156107 -0.8751546651416541 -1.372137336253992 -0.044661090352800505
P 3.702617133991286 1.636690437674722 9.396543763480901 -0.217581919016664 -0.17934781523612983 0.28069504542706497
P 6.18048946441591 8.986865018799588 3.0056297287617246 0.8964359431179335 1.3774014128664085 0.43117374303732836
P 7.123336500987888 2.7099115795588262 2.2185884632581914 -0.5163657036246397 -0.7913513573717532 -0.24575323924455741
P 6.9646542411156025 6.71882909781134 7.274311150387405 0.45160450008785447 -0.044718168842981056 0.093752962783445
P 5.960865909017016 1.0644220316092312 12.451995657846677 -2.2318399285066337 -1.26641794513729 1.1720643726553686
P 8.734617643525636 6.437826155590371 0.26292748179190745 -1.12909866772712 -2.2481957441568374 -0.36444564558215947
P 1.1766013665224682 3.455561606623164 3.8751263008357593 -0.3921829635964278 0.7217119998070602 0.5726173270285171
Ni 2.744203874793209 3.8434495038462173 9.468725363118176 -2.4606192589010143 -0.970680917775438 2.0801582117272046
Ni 5.581544094784014 3.748859068391333 3.486345443057269 1.0691461984328878 1.3688699783566296 0.3592214210687426
Ni 1.4373682193295074 1.9264738479877777 8.44883577774754 0.6380405896293334 0.1728904896465603 -0.14075684233680918
Ni 9.173613084855816 8.457846476797032 0.5374159132383963 -0.40360148984601457 2.166262656826456 1.5064466231932443
Ni 9.182002067109401 2.941074646102098 11.464234010288997 0.6944418512371976 0.11061554286673851 0.18309108432864596
Ni 0.06736166327802086 4.9717210114966335 9.505627563942564 0.8018712830664706 1.567831711168945 0.8017159884355289
Ni 8.361270648875465 6.493594245393936 11.27498695963034 1.2763935682927632 0.21505041084406187 1.2200347298870602
Ni 6.948836349021896 0.5034274855834211 0.8247227095683654 -0.8956975222900122 0.5300771396734613 1.8335570226600553
Ni 3.1586475613945595 5.4406837616549035 1.8400272500828476 -0.035448570615597016 0.9321267116513238 1.0098632444018545
Ni 0.3746724538462365 8.700371953748217 11.81834879706825 0.6220681254604771 -0.815716673589995 -2.1662577717304496
Ni 5.337648417398076 5.760443801887442 0.9417583330972896 -0.2930530527717856 -1.0442900586211563 -1.1524203731721958
Ni 1.654279337133075 8.409162416452052 3.134400606354277 -0.6096124161956274 -0.5677371161180803 -0.7566165249937292
Ni 1.4356904228787901 4.936077158010285 0.3095618341395947 -1.482730510523227 -0.9361227201845942 -1.2822482273013271
Ni 6.695908534076263 0.9826853811851203 5.083115510514591 -0.16323394039340275 -0.255811651921824 -0.18748792784476095
Ni 4.209442157387409 6.969743557016112 8.428168121802122 0.5826978511929706 -0.24448594249635958 -0.3163063668727714
Ni 4.490771337807129 7.692417093797014 13.570068959404148 -0.1736440799831332 1.1809351927824372 0.047086411964841486
Ni 5.70938286323728 3.2952481557571263 5.821235959951766 0.2857459775874111 -1.3107175383856136 0.497245437855421
Ni 7.118601386560307 7.8297260911054405 13.074687439911058 -0.5065859985300566 -1.2959030990806004 -0.736515640478796
Ni 6.64666520824771 2.727640295388072 11.504983957640363 0.7781294593648405 -0.0250343172608085 -0.6866385531426948
Ni 6.369055143293748 8.740993270038361 11.024268243344817 -0.21423357136972138 -1.3096621005379057 -0.403780181515724
Ni 3.780877017325855 1.5655798314384874 0.0954405189899141 2.349033895921838 1.6153698659592244 -3.5008593158225123
Ni 4.79212222253874 7.377149819615843 2.9217566841903673 -1.39013325861078 -2.030639536171787 -0.8877700399128193
Ni 7.2713367901239385 4.847983523256234 1.786126174885276 0.9905244348639264 1.3008694419469402 0.5970731460780362
Ni 2.1146480410271153 0.7709437406680403 6.2508469264676005 3.3630337881998855 -0.6207756319012986 -1.4468065429331083
P 2.8032716309498507 7.804484575613538 1.2881729662768897 -0.5115500274035513 -1.0968040693594723 0.6649543833010418
P 0.9323980931205657 4.1405220076285 7.786253452958216 -0.001243899709430116 -0.910654914930793 -1.466574983809287
P 5.3604664491278315 8.690985614715593 8.838024899329039 0.2788919307800552 0.39336335705777414 0.5778279246951791
P 4.572787620973026 5.583082074863838 4.182801546077436 -0.56664465438485 -0.7641627127721033 -1.780239027963205
P 0.7521300498006638 1.2005658924935467 0.921841957118136 -0.399413419906596 0.5968980539527526 -0.26942898559494244
P 7.357137436395343 2.361405293470665 7.14242982459705 -0.591352184433859 0.056017653016200306 -0.4529556147991103
P 7.7172950867245955 4.389917128936233 10.554574719621346 -1.233651035118914 0.19009476933998873 -0.5870957231503502
P 1.764016546101379 7.598143575449489 7.197640513135321 -0.14455487592666072 0.2722147758701957 -0.5415350038014157
Ni 2.7448283879165314 0.6046908903664634 1.6779418597430247 -0.16556824495353423 -0.06487973139252053 2.4911315685572584
Ni 6.8687681739571085 7.374931399864339 1.7402468309404115 1.4906129985950973 -0.09056273798092146 0.28124911815832204
Ni 1.6490968103186372 6.873027912723653 9.347635996942493 0.04409776165016276 0.22580636380898533 -0.883742149700349
Ni 8.755608741342387 7.977390820951348 9.32864520533865 -0.8615447876677033 -0.9253035180819033 -0.10286546660767447
Ni 3.460567032701137 3.0737603820796577 3.4006585141008583 -0.6521058094731479 1.1170021415739022 0.16365868663564717
Ni 7.335260834896268 8.86708899440116 7.161651779267435 -0.2379903074696869 -0.4536876078691283 0.12501552034215244
Ni 6.62950507899343 4.551414358409166 7.860646015473882 0.11199056883739422 0.07775350203139511 0.16539778081394096
Ni 6.369716940782642 5.497551740242828 5.546751256941834 0.9301423342314432 -0.385577028244136 -0.9489622951514236
Ni 2.9626343304938154 9.12714744426234 8.365453954692587 -0.24812688168305658 -0.06150875803775858 1.0757043112663798
Ni 5.309657179945276 4.647971544147946 10.88772171131233 1.9358630172198334 -0.8496968871901818 -0.033960930326477
Ni 3.1458963083691085 3.7173537794834197 5.612057619567726 -0.5450993241139064 0.3899792710768897 -0.8973111466340353
Ni 8.036477219290775 0.7222662050870351 12.43921271311049 0.9590834427458256 1.265218268402234 -0.5215269361106051
Ni 5.796283398293042 2.7613826462302757 9.325248599635087 -0.6777777603179553 0.4411277689262468 -0.5236707219264853
Ni 0.5506695730899237 6.204640412214847 2.3083692155543525 -0.2547194472989097 0.320034723566952 -0.3001361848708122
Ni 8.608270249695229 2.9294326029523985 8.814232813548728 -1.1182709809839968 -1.2995640928719554 0.41660047320884386
Ni 0.31652934995576787 9.514037984706354 7.292413641981504 -1.280378263972124 -1.2320466667462717 1.0587918517817572
Ni 3.7117145191907306 2.771272324198115 7.533269711464226 0.15084122315600473 -0.12753185900610292 0.9619103706716594
Ni 9.152044079372706 1.9396631923086942 2.8437093217395555 -0.14182487859000736 -0.17120950239971158 -0.8792103232682664
Ni 7.493150802000159 4.636115115896211 12.67249726005478 0.30077304712386266 1.7855727814712927 0.9473610121025748
Ni 7.139676374199595 0.6980938187778953 9.304758044426134 1.5765922309703946 0.7934771454655044 -0.05243713475379357
Ni 3.5363754689993803 5.049216565336987 12.797351415044046 0.59488128063304 0.21114850468649443 0.31862575903456736
Ni 0.77114041569643 2.502713038986633 5.975980990819701 -1.329371406041375 1.862308383761135 -0.30462661654199796
Ni 6.1925229934041095 3.0963267443418054 0.1401920108762408 -0.9506412255157434 -0.8145686760284809 0.8733561784803346
Ni 8.988598741798663 7.8730691660823044 5.477953213480171 0.19006905830837587 -0.42832624628620425 -0.12768638230609622
P 5.405981338399235 6.347998797837246 12.182231155518096 0.8514046139099078 0.34365724808189846 0.4087845767088509
P 3.895684900011882 3.645022110274718 0.8204900019668613 0.467075342029944 0.2845092769668326 0.5332532234085977
P 0.12242973911798036 0.5090145477643097 9.680399891777228 0.571329718565345 2.512096857955016 0.6024701487238914
P 0.20215023747381267 0.6072504620629466 4.798932211910374 0.012999497583461483 -0.674410129397303 0.4003999521895814
P 4.448425619609302 4.6901774459748795 8.753142380559833 3.6589744469321115 0.6100348484450269 -0.06616142631842153
P 4.266897364733084 1.5641723466381634 5.750991283105929 -0.35089413214996984 -0.5483787661961266 -1.2407017713181083
P 2.432282872422078 7.655673351526306 11.201059519575178 -0.8102975594569528 1.4065212130505003 1.2645628942064222
P 8.180049990015211 5.763473156590126 3.6516913511663196 -0.23031762141577752 -0.12974506460733784 0.9714905581609269
