# total energy = -340895.9922672903 ev
CRYSTAL
PRIMVEC
9.03590506147799 0.00000000000000 0.00000000000000
0.00000000000000 9.03590506147799 0.00000000000000
0.00000000000000 0.00000000000000 13.22496042076021
PRIMCOORD
 96 1
Ni 6.521682574154692 1.886136757728281 11.432555129598475 -0.6913264455366674 1.0858252017504653 -0.5962064272023667
Ni 4.562056800288459 0.25635856704186505 6.002399951428907 0.44282649678490826 0.331589518284087 -0.19439262538439425
Ni 2.8199523697751014 1.5961835991335698 4.688354356573349 -0.07588071048871448 -0.45269284805602683 0.3189702868581797
Ni 3.171304503490603 4.250462648991128 4.723030545966071 0.5950828551208848 0.34707115885945383 -0.23176078162020733
Ni 4.936721569149161 4.572502306578323 2.604206581773399 -0.07633451019668144 0.8390723175968001 0.3184077294864904
Ni 6.984393202261456 5.972642908769924 2.5279507714953446 1.3043466018622634 0.6576907597600932 0.47829023690915684
Ni 5.168031703677069 4.363646396211588 11.606027339203546 -0.5420960185112084 0.07001396729529233 -0.7065093239246929
Ni 5.609625421576727 7.776833043191294 12.350671760133174 0.529586830300604 1.7770557451392168 0.5221355162288814
Ni 1.7957234913473192 6.7661851301213565 0.2637652984482686 0.3444164948454262 -0.4246215437411074 0.2244033128138716
Ni 2.8479636755697224 1.6792145310518845 0.5393685361615481 -0.17747116703870724 -0.7737128183543835 -0.17196540672912966
Ni 0.48890119902473544 9.208400523303442 4.908734660298297 1.1327588901875265 -0.6044049038527591 -0.002065624279777088
Ni 8.728313849698917 2.4926447795174984 1.4586733882162453 -0.8183669667286487 -0.09545760417937754 -0.05950509734416849
Ni 6.959752289067285 0.6257228739738182 4.828168723289908 -1.0646956188607017 -0.08576351682006521 0.2781679081298371
Ni 0.8914552889612768 7.547275874251826 2.736773249013228 -0.6471901173390854 -0.007478310654916153 -0.18787256487768933
Ni 7.383003119624013 3.7213381184358263 3.8993138231402646 1.0671821327279813 0.28025410123490446 0.09237125194456995
Ni 7.536749044816104 4.068868064296127 12.822432750783129 0.92630059188785 -0.9180280674664125 -0.5594594494903203
Ni 7.923937578138532 8.733148058924762 7.057011157148249 -0.881588850802772 0.371038982528961 -0.2906272169391124
Ni 6.775157783880731 0.8152012858642416 0.4420744280507141 0.8973142319578289 -0.2771757194198969 -0.6031658892393355
Ni 2.0280546831509656 6.412330050694528 9.322354129638 0.15771763856086385 0.4847223656877459 -1.5915635075682462
Ni 0.22582985808776582 4.9938013816345235 1.2740517753144054 -0.8436375683699794 -0.3351522959346809 0.4825394991038142
Ni 6.585864608044756 2.0585147192263427 6.854298758655631 -1.4267187710442977 -0.3943573455399273 1.0150977533279162
Ni 3.2769161622414207 4.491468309686012 0.3180168726388837 0.21963005979494432 -0.2301355873119585 0.462770544007003
Ni 5.9731579553603416 5.634853668602076 4.817086185690844 -0.2640564084291194 0.26802413482761583 0.08457386738733821
Ni 5.270200682586675 2.6979405432767876 9.318121711691482 0.4022241498825137 1.2269450838536482 0.5694864947090192
P 0.20461987805818044 5.726125345967066 12.476546436059618 -0.1576196795304189 -1.2895727859871984 -1.4802265131544508
P 4.013026170808785 6.264855043638395 12.463203115005772 -1.2082372230314997 -0.6495218507960556 0.46260933583879044
P 2.2832647866552516 8.523551204340235 1.398420165861505 0.8156074017056405 1.3336337808621548 -0.471342087726098
P 6.281607611684597 7.730840286257545 5.911279173679004 0.14304898080509557 -0.34344461785046015 -0.5355659307021745
P 4.725742221085093 1.0777124006853187 12.580745782844081 0.7793916139067157 -0.07580049207008235 -0.018451521836968222
P 3.9356788231952495 6.213250989640626 8.214710293325362 0.4450574429979561 -0.46904352149990836 -0.0966390260819884
P 4.913309539047915 0.9730495119694804 3.8626144945967633 -0.8909306970289882 0.7018389150322171 -0.38288842566837933
P 0.1572247486536811 5.61287834741094 3.4775954820876547 -0.8125321052144265 0.10315471571331912 0.7060632375262099
Ni 1.3003480663219882 1.0439452233451574 2.67015874947158 1.127479644066458 0.043804655889776174 -0.5035125018110554
Ni 1.8891908936504043 6.551257091530756 4.7728084435441325 -0.3268304063325468 -0.06502499872113318 0.26513730019812404
Ni 6.071577033655507 5.413239060241145 9.035042166102567 -0.7931752979543695 -0.10017275026685973 0.28392177989447875
Ni 8.781237145840562 2.1017244173908196 10.157060320240392 -0.14654645243539277 -0.03675546235247863 0.10600581200886906
Ni 2.284412346602321 5.219834547586927 6.920449716265903 -0.466477560544945 -0.43073871238243877 0.4132742370490883
Ni 0.66513568481736 -0.1531811811236511 8.946077355308342 0.11295190430939903 0.38218471473313537 0.6618130094585828
Ni 1.61702039628273 1.0148044294136562 11.629514367317082 -0.6985347903596486 0.4852517558286546 -0.9064606743437874
Ni 3.974325389286732 6.980498727165495 1.6703656691923126 0.3677862799196182 -0.698665402400242 -1.125209874195675
Ni 5.5948607526514325 7.770977776689709 8.114915046684223 -0.4398275620575845 -0.2140937033577474 -0.31376431717720804
Ni 5.277628196574797 2.9661804219281196 5.032850949093245 -0.2111094239184429 -0.28888683720923797 -0.9651350482565442
Ni 0.6847779353129559 7.445188218488073 6.887916843561724 1.3395378050514155 -0.9533563104540614 -0.2631158988927211
Ni 4.72984452199824 4.54403920552895 6.89817892097816 1.8302924929761706 1.4152112846253304 0.16981673581724302
Ni 8.418915423339682 6.893907648639735 9.374869906459857 -1.0111526526372392 -0.11627814046915458 -0.1298121703998474
Ni 4.770397664064776 0.3397671997931524 10.322570993866224 -1.0347610360847985 -0.4629736611567446 0.42760659451136035
Ni 8.178397701519929 7.329989464431419 4.761396095409098 -0.5489786045636545 -1.1676490171964924 -0.3738553689318336
Ni 7.192282270783022 6.07199268528988 7.084479405046658 1.0960790182679896 0.2334325128956754 -0.4389780695730956
Ni 2.167849170876316 5.3646891421655 2.580348177960458 1.2237417464250022 -0.619750533070894 -0.08821737767719645
Ni 2.1941888342283553 5.295591575903736 11.34427885477249 0.94352466907562 -0.644538024428219 0.9436254563195426
Ni 0.9237134701505666 3.354046648132675 3.635422925611175 -0.08424039530731943 0.27255518992874994 0.541037495339707
Ni 3.766499572100832 2.6505652928634977 2.703896108324928 -0.6089369873951578 -0.7976418183661553 -0.30608597469634385
Ni 0.9828082894721226 3.1718376218912105 8.22622926514052 2.0024360771543774 1.1107355918389 -0.5459169349191954
Ni 3.610160342146464 2.675269457393334 6.943408143931379 -0.6961745176575881 -1.0080323618407026 0.07221380316008853
Ni 4.102806923833094 6.8303400562961345 5.960437208167545 0.504787254758421 0.13426943484025264 0.4720923356285612
Ni 0.8709428808050285 7.383716956126522 11.0865106865358 -0.398475738583675 0.7016298843452046 1.6727342628113062
P 0.34381438168522044 5.604538207008219 7.993589045382622 -0.07385493830793732 -1.3341505725975733 -0.33549399554481574
P 8.673059290042753 1.5523956030430102 7.924568284314166 -1.404199249785543 -0.6177497005907812 0.7714070530393424
P 1.7931392224901381 3.2002826511303937 10.350594949927979 0.41173877424116834 0.08848991461229277 0.7230368892660709
P 3.8887915116570917 6.315636830272515 3.7857243637810374 0.4204406728905404 -1.6878927157192996 -0.3644333042869852
P 6.935436668456535 3.958259550027752 10.387809325061898 -0.23111080674103424 -1.0052514566614557 -0.10013469794007271
P 6.574632978011622 7.763315329169116 10.144880823762788 -0.48503604027342273 0.4310325894737738 -0.0034378220369553694
P 2.4993765288133023 8.358636900450675 5.856158345418246 -1.0337125402156262 0.8516167299207139 -0.5597821229370618
P 6.8972509335249 3.9548801215222076 1.6878618922278368 -0.21199748295035103 0.1070126560068286 -0.3461545605824555
Ni 5.297913803513161 2.9875503374778876 0.46245581558308435 -0.42116675242328755 -0.3319805830749186 0.05487582610227323
Ni 1.6147885277242555 1.0211385988852786 6.941649756799883 -0.19214856654522391 0.580689305403374 -0.149688083388168
Ni 6.734134774749253 0.6724710325735127 8.938248647134 1.5104883973627856 0.4765107764112309 1.0396715860125385
Ni 2.822464351391522 1.6884221183437294 9.107739636954197 -0.05135495743320832 -0.6525822348889342 0.6958060785745759
Ni 6.374722613688975 1.9589390450790112 2.578298834684903 0.2894185413429919 -0.10319071115757711 0.2204805807206977
Ni 4.5976401945527225 6.752911385536744 10.429177505768005 -1.2838801064777954 -0.06354969972718733 -1.0752919063193094
Ni 8.025763192654528 7.226058484028279 0.08554020276320706 -0.1973915601117181 0.307783931224057 0.6257175492876063
Ni 7.782372053014554 3.7602105821546843 8.172139433651106 -0.4371752120364019 0.5615536130151877 0.537400669918068
Ni 3.242588758785367 8.449185705408063 12.446605060936696 0.06442798856708258 -0.19325671200773814 -0.07411539105817559
Ni -0.015365556614114064 4.521467514601542 10.58147587896387 -0.07975716272498522 0.9405468173942189 -0.49322706072464734
Ni 8.640258954547761 2.282505770627268 5.827406998996341 1.0252003889795571 1.163549650316138 -0.6596429983904576
Ni 3.660580692576783 2.6433907842180364 11.530076038927195 -0.9505594644352146 0.052983494175566824 -0.5585847601948509
Ni 1.1028231809444327 3.3255022239374465 12.693224729467126 -0.19412651620720117 -0.10109937584618717 -0.7058225822703136
Ni 3.1784699762309696 8.440447985181159 8.023107540147096 0.16829952784176822 -0.32940665170015526 0.14933429959317504
Ni 5.571593297031707 7.865520451699104 3.5909472971428826 0.569094144366607 -0.03628623602554396 0.1488054236728986
Ni 3.187587204471864 8.40252429149728 3.485980802015851 -0.4868988045137743 0.9093541938414984 0.7884362406074873
Ni 3.5067534442388366 4.340153042964487 9.268025750254075 -0.17700476892525 -0.4150956065285432 0.11329540369174682
Ni 6.862164514040862 5.987145536447462 11.442302160424495 1.9391231760283445 0.11205484641642638 -1.166185031056456
Ni 0.31203781423749627 9.189967276909561 0.45085190626003513 0.602205325098279 -0.037441175565593586 0.09099108376759169
Ni 4.755931180007619 0.26878022577601535 1.4838799490693662 -1.309522232525932 0.378255040661426 0.6861590424031151
Ni 5.8326586670375775 5.623531679517991 0.34816426639797227 -0.48793624463935326 0.2607309436003123 1.1185016089375641
Ni 7.92831095620453 8.86963540538533 11.496696501915611 0.387576575172668 -0.25508531527876066 -0.6150371867556246
Ni 0.07690368467336865 4.921740038501587 5.632457346570871 0.1071098437063252 -0.22193582510998552 0.23654560460336035
Ni 7.891977581817379 8.784038276420024 2.5576680561719094 -0.5258762142182363 -0.4748709268149628 -0.3942583580682178
P 8.481868574136818 1.5529558291589025 3.6026641552796197 -0.6157390979186557 1.2923973999201872 -0.17296556585886985
P 1.802337773876888 3.242950194989169 1.610694359125693 0.6742689758337485 0.47038332335725436 0.17154477425194328
P 4.766918840603186 1.1134855489565787 8.056355152944292 0.062353365426241 -0.7659424303803455 -0.3740572005299945
P 8.448562227956504 1.7747601915268285 12.419070850931092 0.7241218948001336 0.05028229319431986 0.6747988801952896
P 6.253234869686174 7.735882321300577 1.2938467326061076 0.3594067976066714 -0.3370536267224518 1.0114771258561934
P 1.7143732377766818 3.103155707263818 5.89398174055557 -0.16897778485571546 0.5472055718236317 0.11579040219945866
P 7.040948932251307 4.127610483318977 6.10703573242946 -1.3138823092668404 -0.6076151832599406 -0.523876153069072
P 2.4941628115734646 8.564989865106083 10.150792112875964 0.3108294029186002 0.36292046718688464 0.7932195209287436
