# total energy = -340887.9603300543 ev
CRYSTAL
PRIMVEC
9.08081419324104 0.00000000000000 0.00000000000000
0.00000000000000 9.08081419324104 0.00000000000000
0.00000000000000 0.00000000000000 13.29068947457340
PRIMCOORD
 96 1
Ni 6.33001767274113 2.1069486834502156 11.229542849727126 -0.9350395144227445 -0.16367282770303426 1.7134379111782554
Ni 4.340565644845829 0.7620710125066826 6.1068058100366605 0.7631687242899502 -1.2435605809231423 0.5484286455974555
Ni 2.6242372670877216 1.3831533029988665 4.649256120148178 -0.3211294992930276 1.411219389857118 -0.43302416598250587
Ni 3.5303209127534885 4.367717279447358 5.114894848505891 0.6335221329336896 0.06426986572266352 -1.1575471528758001
Ni 5.156504047471667 4.685227949628793 2.880211799517562 -0.03655285942336931 -0.9558096570905602 -0.6809196483810467
Ni 7.350319800018282 6.014931579963912 2.8492979835730843 0.6805437530988666 -0.12946712835560284 -0.9624230486420199
Ni 4.885187479369825 4.708483914917929 11.537847390423934 1.8091924777727615 0.3469451748045509 0.12593006173662183
Ni 5.838455035868216 7.779242980208468 12.55598011117724 -1.3890248560379497 0.07588713824661769 -1.7773887029986033
Ni 2.0869618112903603 6.614238077889384 0.37911309787703906 -0.47393813058804823 -0.3371107052126323 -0.3400463908021885
Ni 2.76818633454707 1.944692694466893 -0.10101951810191243 -1.028737455598538 -0.8962562230069596 1.6142496363118521
Ni 0.3503541591536127 0.29529355004226965 4.952854982901671 -0.21885615774339726 -1.2562266064265848 -0.5434435336780383
Ni 8.64241977855242 2.7568716399940576 1.2020310143338924 0.5537780828348269 -2.14509605005117 1.02927327349735
Ni 6.6849867016955775 0.5557721663391195 4.899679550828213 0.8992554148445997 0.15169945739124194 0.33673789525424586
Ni 0.6099219697813879 7.6321428702050635 2.283419779057362 0.23076447914520903 -1.129326981687842 0.6477727293154328
Ni 7.833845916281712 3.787807400755621 3.919424722466181 -0.4937235407450916 0.6524266831476764 -0.7450776711161942
Ni 7.504911581776289 4.0522497924717245 12.837636094381857 1.2376233895031008 -0.4942693859462327 -0.32933286103942633
Ni 7.742175096448118 8.868114335872292 7.21118265602895 1.058225694865642 -0.7544794240460683 -0.6876901343356607
Ni 6.981284589793677 0.2777376118566049 0.3076180311396597 -0.26109706869047933 1.4605033236939107 1.2232550365965709
Ni 2.074648227170068 6.429497992828005 9.270349002987597 -1.7036422652440721 0.47195349605785164 -0.9982210321772356
Ni 0.34115801856465977 4.941697386435149 1.3082011702772722 0.2910568482773632 0.6527565556832694 0.6803190386825703
Ni 6.541546159834118 1.880972620888654 6.98120013822117 -0.9227707243577206 0.48482418137293276 0.7479547355536732
Ni 3.5398194444569 4.125795307066303 0.24068788972475155 -0.21464134833110132 1.4928861108999902 0.7571225180958702
Ni 6.02426665701086 5.7325999841792425 4.908556954837062 0.3180837704881683 -1.1647981780112584 1.5483198663882625
Ni 5.1450349790764385 3.199043728172081 9.221186382730332 0.8779155157162428 -0.4574267631965864 0.01487228912614213
P 0.47561309472772023 5.625028658597396 12.46504574537916 -0.1737741778030943 0.3195732105495012 -0.7353892401838367
P 3.986967818842829 6.631155634833415 12.551435163646115 0.33620464845859516 -2.5475819382355027 0.08512536901543405
P 2.487979649296433 8.592675078101857 1.619071949080567 -0.7752323403227036 -0.5632793374570428 -0.48431998804300463
P 6.343339227242951 7.725275701132584 6.0022611198436735 -0.380640510174467 -0.5565690153164027 -0.4656761476895722
P 4.651147653756036 1.1421575736711076 12.839257927806552 1.6704809480007554 -0.5686164333992401 -1.5069042795559533
P 3.99410533884176 6.129667667987433 8.142979535319363 0.3670347464655743 0.23300159600584391 -0.6758566320358425
P 4.818561545232225 1.0112485554718926 3.9154237157085103 -1.0224444235009746 0.2386636793876277 -0.9987162266460992
P 0.3550044441300152 5.678087856248478 3.679792931438472 -1.16846868488431 0.4497090828373545 -0.6974796096222569
Ni 1.0311991043747557 1.0089874327241397 2.594408608445881 1.0241158976661267 0.37975656490761694 -0.8127485921006068
Ni 1.8622207394665273 6.4018832366998275 5.04861489339114 0.24068713757555968 -0.27080838244097233 -0.6010948656429196
Ni 6.008602252433054 5.528681219426081 9.067958539272375 -0.4229423562664716 1.4264207801879047 1.2520614193053017
Ni 8.641656990155587 2.5487121349870785 10.980621385723712 -1.144256606414481 -1.2477617634886833 -1.3700015208579115
Ni 2.409121858366772 4.910913426134418 7.1340965319590754 -0.80870450393822 1.5992359365118392 -0.7221745412657756
Ni 0.6437271169824296 8.79018278799593 8.91502218995178 -0.037478456561432234 1.05527046889206 0.29744861073632
Ni 1.4963093293432355 0.9691680622466453 11.399583820765264 -1.2768828492243558 0.3780737778885553 -0.5988412937220526
Ni 4.092904597860035 6.770873042853192 1.518408398897176 1.1559515262539057 0.687794521124009 1.0426687209676493
Ni 5.7427795769512535 8.099523298735544 8.15012976845824 -1.7369719897444535 -0.4709885610414211 0.12702586590396187
Ni 5.504771435511088 2.9358544888222022 5.032253990360513 -0.5410326102437004 -0.05802928412959039 -0.8693429435558834
Ni 0.39296133960524404 7.262490164611593 6.964772945246532 1.376411023928681 0.17731972906250754 0.050034181739255765
Ni 5.218062887258881 4.4908803630930265 7.04514178366706 0.09760833197379318 0.9527153344359529 -0.15953463716494462
Ni 8.116150269623638 7.109333151504771 9.356060992511651 0.5134927529522189 -0.19088795466524544 -0.6991564831040474
Ni 4.580053959008419 0.5310087858848146 10.380826339991696 0.7344826692091674 -1.822954050333228 0.04606645534075938
Ni 8.346430638138752 7.261927154128217 4.871117665773968 -0.6849830198171429 -0.37778092923848483 -0.5079702804720929
Ni 7.361434716657837 6.041120648255154 7.112977282262494 -0.2652969657044399 -0.24136873702361655 -0.18522535706282936
Ni 2.4704445969835382 5.2480477359057875 2.566525060215962 0.6046854112076554 0.994192627744133 -0.2804824151956266
Ni 2.652133528457588 5.181912165737581 11.47374592264728 -1.7665005953311899 0.40584014936854623 0.19608209727167522
Ni 1.351152513588903 3.7720158647783437 3.863749342230248 -0.9032285405597349 -1.5738704611638572 -0.6653675595790606
Ni 4.086239280202001 2.5836551082133954 2.204885265114931 -0.4903787926425749 -0.4090774253589213 0.7459017096793863
Ni 1.048679671802162 3.3298074533433284 8.25055449322691 -1.086339679493039 -0.4022632306505653 0.3234566047643075
Ni 3.6839410473869596 2.845981670209714 7.128421023054073 -1.362142172714493 -0.2939107727863906 -0.2719728350627187
Ni 3.9268619093352957 7.195827907217002 6.157177994751759 1.2308310491716157 -0.5355219648381165 -0.5527959214272157
Ni 0.7195728018260275 7.419506523773818 11.066744736133199 0.07020654292207264 -0.46074965692223224 0.537640553843016
P 0.246261693510176 5.565576567715719 8.230778295957608 0.31426491096271036 -1.2211382473638839 -0.713453873563326
P 8.595689908432194 1.5182667381949073 8.030168579916419 0.5975315737716935 1.6035857288401028 0.6113746503023729
P 1.694697878219363 2.9768725267804332 10.493078825318388 -0.3804129675446932 2.0127821962753916 0.21075101213775962
P 4.042506078783617 6.163121387677077 3.964891451324508 -0.9418279980994877 0.7645869447937155 0.08762885216357812
P 6.844309587676795 4.094820649666365 10.572384300390476 0.1470881838714757 -0.6884411535690724 -0.024330863435880676
P 6.351511960066154 7.658005029183376 10.239838526058623 -1.1769893207608115 0.4492288007668263 0.9571211768131324
P 2.0179022189342954 8.423127195277388 5.852887173952568 1.1403027639730556 0.15120554847395895 0.46907488895847604
P 6.900592474385919 3.911905808268834 1.7351928612769085 -0.057750576546907 1.617135185389763 0.20305004394907614
Ni 5.614286055342007 2.9317590415963526 0.2981921459502323 -0.5996828157867414 -0.42345991933283844 -0.3179881254505685
Ni 1.4956645915316271 1.1802061853702415 6.99031818380759 0.019270675304153908 0.522500612877784 0.09769446392969626
Ni 6.866857249454587 1.01530767944075 9.268182320708023 -0.00618838819889902 -0.2634827953138365 -0.47249291350108946
Ni 2.7618297645734673 1.7051952994900548 9.32624958741688 -0.57541443015768 -1.8944294326653952 -2.296539168457232
Ni 6.416476105196369 1.8472101535145777 2.536222383070375 -0.01973295965255311 0.5149937629777777 0.20385017125286828
Ni 4.166223092098414 6.922568044866088 10.183233270443694 1.4135989458328881 0.8987627914788973 0.9491700402868557
Ni 8.194190787270978 6.8952711172365895 0.2963478325764628 0.04141892926641899 0.7785074115295496 0.8515025729403527
Ni 7.483344647937281 3.737753952620627 8.48373981421996 1.365689780856435 -0.6613579241990352 -0.5314917606328008
Ni 3.086668651853041 8.552247293069746 12.184239726388153 0.7875834056888887 0.0712666087554708 0.9911450991670606
Ni 0.13631755116532593 4.781875055670292 10.242057877060834 0.43418424772887804 0.44362996652281017 0.5984584564613371
Ni 8.570472487265489 2.266435024087897 5.66782744422966 0.2767437740888008 1.037891354183664 1.2498759816182088
Ni 3.8593732978441353 2.5951786614941117 11.133464202657553 -0.4945334382408968 0.9420722528998097 1.6776368423192463
Ni 0.9645186853516677 3.5004087106205657 12.45947648200086 0.9212643150155231 0.4987834717665023 1.823119629376815
Ni 2.97411195924904 8.483705307125819 7.962984175702566 0.7950439757319921 0.19344645942104105 0.012539784338223565
Ni 5.679304685357711 7.711627237317836 3.775911534090737 -0.6734567643450982 1.030843189087631 -0.49600333791820383
Ni 3.212719434429574 8.345994759054848 3.893281966327604 0.21517408090611975 -0.7136215094894419 -0.9513007134766133
Ni 3.125116819379086 4.374291788962912 9.241362135826547 0.5396652975825287 -1.2143343370681734 1.229217939048225
Ni 7.355268843783444 5.925476478806831 11.55162934220813 -0.3147156253468838 1.7426279024786502 -1.3780645003717042
Ni 0.7208631855306686 8.540660174089295 13.161690399310404 0.12552794120219674 1.1104000628763522 1.0828751179832061
Ni 4.588081398803654 0.19714084499845186 1.5813130153559445 0.20677531531946328 -0.07563311325428264 0.2810755686949353
Ni 6.1360878036607716 5.773245708753305 0.4180298354182819 -1.4042817821970202 -1.0377766829826707 1.2236029068542926
Ni 7.747641746625416 9.055151866938417 11.278519313292307 0.514304964440869 -0.39282342539390414 -0.2528739094497387
Ni 0.11053893567809424 4.714922212219763 5.986126329087821 0.22046309721920096 0.1484459834509508 0.004589419142895321
Ni 7.6677941469427235 8.89146110930391 2.686447201256518 1.479535400624697 -0.5156439949672668 0.8016655948135677
P 8.37177519070493 1.6857895994420717 3.5774149235250583 -0.25238899939352016 0.28540376375664395 -0.17029007590923576
P 2.0839288193315273 3.2036022969245788 1.6938851453441666 -1.2906817027806612 0.16371139425045353 -0.42378490677242503
P 4.6326137118758615 1.3195966840770916 8.267965138384607 1.570529312605766 -1.4737113377437523 -0.33505305135265523
P 8.662370327455282 1.2896481586871769 12.818817014934297 1.1442774323500873 0.9557628630130249 -0.5964653372907083
P 6.327910923835593 7.664970013711594 1.6770193490413503 -0.5631129870825076 -1.0213038821386282 -1.6290103395607944
P 1.8255251690903458 3.1089529700176404 5.797531438378165 -0.31815319027352307 -0.3043175699420114 1.9108690662786574
P 7.084869437920649 3.9217857341706615 6.169485222302079 0.456620208134891 0.6220768672112255 -0.5349905178146787
P 2.4877526289402327 8.479564455828728 10.089533796707096 -0.3860053740308062 0.49840577671210934 0.42122408802378425
