# total energy = -381165.1946620827 ev
CRYSTAL
PRIMVEC
9.34920025261938 0.00000000000000 0.00000000000000
0.00000000000000 9.34920025261938 0.00000000000000
0.00000000000000 0.00000000000000 13.68349960135813
PRIMCOORD
 96 1
Ni 8.205578008358685 7.88968723106086 2.64477374928951 -0.627172793676894 2.1074286174073835 0.7501874815389338
Ni 8.596084752674798 4.73838970706806 8.820028015571989 -0.1054784787504893 1.605233805966487 -1.0378016226833353
Ni 4.014331546223755 3.1818787579380223 3.5212435071678763 0.9227663534823464 -2.555249739193406 -0.9484794419777343
Ni 5.956889671161234 8.834966167696011 11.581303083820476 1.7755938158817097 -0.15470096322172713 0.6491161307172046
Ni 2.497190079253098 9.141834966773983 6.328645659500417 0.4551870752327903 1.9625310134293232 -0.6425814149224806
Ni 0.8615110375138426 7.60582681374357 6.173461089678781 0.5131865345657097 -0.9287536814140327 0.09242833043475049
Ni 7.804114001375558 7.0469783701252 4.680153538848924 1.502491752310554 -1.043017619666636 0.4717017850583618
Ni 0.5158739098511398 8.97743862996787 11.355333849233915 0.3396460700399763 -0.5502068205438009 1.6927353885235816
Ni 0.11576647182107017 7.662567109926253 0.8202558216685096 0.37864430568004465 0.9624724138227164 -1.702735437159087
Ni 6.162216806564773 2.4319139632624087 9.694786869808661 -0.8763959937479229 -0.8062606703834179 -1.1782229360575964
Ni 0.6707200386245276 0.12307006703904878 2.453054374817571 -0.32922796003044597 0.4398229340718941 0.1246915613438304
Ni 0.5568897861706404 1.4554647930676814 9.89912205506803 1.4093522547413924 0.06113311986589471 0.12320263550312974
Ni 8.657265918965699 6.211440345764284 6.773127206571822 0.43112489207726395 -1.0852256204932536 0.5168058764858519
Ni 2.2612256147029677 9.132738194952307 9.648002536948594 1.1548711487055336 1.406121149398604 2.1802422589349995
Ni 5.578957601151547 4.769185972618523 9.247021883617244 2.2433738972881625 1.08573855557393 0.8203680563190776
Ni 7.180802822186319 1.6477871909543143 6.169971968153757 -0.2185201145602172 0.8694535009918187 0.571743666174312
Ni 0.07430089897061101 0.013668530733083351 5.0517150638233685 2.0186144866864524 1.10368922651508 -0.34492505905072857
Ni 5.785060720173997 8.04385554281773 0.25547905018567413 -0.08745761669303648 -0.3248545135530986 0.43020675113836876
Ni 2.8374168247439573 2.3286146499451457 1.591937873553343 -0.3816077591837428 0.27517025895409386 -0.3407724703349357
Ni 5.983217019002794 2.4229574294441503 12.091479591052778 0.008869277465171821 0.592527949909515 -0.2012772683193695
Ni 2.1397234085421255 4.705115903457223 12.38120008707287 1.021581304169731 -0.6817616846663678 -0.5433795132093222
Ni 7.946689304849922 9.152455658232794 9.450495072615606 -1.7762479045259407 1.4520911883708154 -0.48743436530227024
Ni 1.5371113586572962 1.8965974566174792 7.74420432631564 1.7242740825618112 2.3254658787939113 -0.4402003720159709
Ni 3.8760755732546466 1.2837854292840905 8.307936792133027 1.3907798910558435 -0.9824815099547918 -1.0428738949999201
P 6.653900595746434 6.025007944021183 6.9240971569307534 -1.1112390138378798 -1.1518896974797066 1.5438983402817992
Ni 5.0550938647857055 8.61996261005667 6.6137691537684855 0.13612242888859136 0.4326176745727066 -1.6676776742240054
P 4.498741657628165 1.097109948335065 13.132465355500173 0.3724150369408812 0.20634979774627044 0.4464612653240182
Ni 6.00423402111495 9.200230071396991 2.3569006552344374 -1.0209688673967128 -1.2333587006894757 1.081451241052486
P 4.631537697664223 8.824710095046084 4.351393587437495 0.2727675630498722 0.646861530355073 -0.03955642213638348
P 2.8655579174297174 8.05551399550183 8.094830187219912 0.28449282190660036 -1.8047418982005758 -2.204751556930274
P 1.168846361683183 0.6614297383581357 0.18744865980786682 -0.4910035707107673 0.508454419197363 0.4377195145756462
Ni 7.064134152543263 7.1178827046530415 8.809820558763247 0.146990739061663 -1.415402317590214 -0.2619517033812908
Ni 4.451154228468525 0.8411727873382274 10.832925783343548 -1.6470659115109247 1.220338634280724 -0.5405014203305789
Ni 0.39652014990265233 7.936489327401362 9.212114774726606 0.552090924940391 -3.304152697592961 -0.08049326956006138
Ni 0.2935489935133864 0.19316943542727424 7.747378379792988 -1.0871665462697082 -0.9323226297122137 -1.6420825993637205
Ni 7.143499513277288 0.9402303685121248 13.29971880789591 -0.08666083182335398 -0.831052275505801 2.3270468501277857
Ni 1.56037216882413 3.799365385385325 9.883605187449906 -0.9304642363472363 0.5541118120251618 -0.019060873286192978
Ni 7.352725265175833 -0.07601834705246287 4.498505122862402 -1.3516325314324207 -0.28858267570525786 -2.1259156204679774
Ni 0.17793117397593872 5.2043164496220555 13.563509297084122 -1.3575962052150232 -0.2103985138943473 0.10386768261994368
Ni 2.7786010061106965 0.9557406916900901 3.777398504530022 -0.11352500320404964 1.7589094132474932 0.6646299100820876
Ni 3.442543809490072 6.903505543428964 1.8608190022656075 0.22497409771567706 0.6696957546407692 -0.6454358536521401
Ni 5.682976802886352 6.661538892332568 5.249127166314031 -1.565724435017955 -0.43741535307166607 -1.2695053258133622
Ni 3.4806604988189234 6.882189366909517 6.137460124361487 -2.6876535815798293 -0.1967043042367064 -2.149065319111563
Ni 2.7994964686198904 9.361915140137034 1.473671425591352 1.0167715414859135 -0.32986122273907065 1.0891828053687886
Ni 5.0069548328126245 8.296209155367242 8.79918771334414 0.25176627820785674 2.1290557087588557 3.5016627855604145
Ni 4.427921465902375 1.434709568561905 5.796043225681625 -0.6717793766426753 -1.0594503113013627 -0.4279606354166694
Ni 7.506846830931564 3.7433449776201844 0.40162294338700044 -0.06058136112748277 -0.9019861835122013 -0.635536335150241
Ni 2.608099641555812 8.085954991443636 3.863631787751409 0.23332992587954007 -1.2340526414327069 0.47380109078955174
Ni 7.215759481838163 4.168527905581309 5.049539504930354 0.1773097017601785 0.5507621788266386 0.7514416656610091
Ni 4.425677657847696 6.354258728444572 8.021349213109282 0.2846638002668259 -2.117738483973824 0.541365825213403
Ni 1.2829440012635862 6.338869944869568 3.0148440768276163 -0.5388129768845624 1.25041051396544 -2.940439559301452
Ni 2.5474326812774413 4.8222146363107585 1.2612996678161434 -0.7678103368270195 -0.20464592768128625 -0.9526757394472689
Ni 0.9793287238648981 5.389468010933945 4.88327145823863 -0.933326902607012 -0.4254293843543835 2.684558230483957
Ni 1.3113281731552695 5.6754319983024955 8.013659495921894 0.5177116761295729 0.7197456201093088 0.2531209924635383
Ni 2.413383848410855 1.5943284640515984 12.20885599515308 -0.11977715476134855 0.0031938243469493382 -0.06892896176122967
Ni 7.083271965409625 3.582398495698139 2.7126854048244238 0.007527161614980584 0.9519715142913927 -0.46272683525326114
P 2.9616116005704134 2.2350385048648236 9.95983576134754 -0.8907540622418079 -1.040818298022472 0.8407576757190229
Ni 0.21181080576153888 2.9393885516288685 12.673999274727985 -0.4818537858906992 -0.2028492407921797 -1.956060575213631
P 3.8643890729698627 7.931758632086082 10.87434554511289 -1.1163804488295033 0.011641698003986402 0.6990271566150348
Ni 3.3516602340753643 5.3006038627684475 4.013520970564003 0.5261073563924358 2.4552731640977523 0.28294476069319013
P 1.058376211791177 1.953683673208592 5.5350303838811 0.10764437605355655 -0.8385928068572203 0.3529736403868179
P 9.182475940164348 4.604817683413092 3.031907302163424 -1.3558116025107747 -0.3842076587004351 0.22293855534288703
P 5.459717901445838 4.642018151119617 3.79632315563119 1.1052465436998706 1.381855334872704 0.6404106325234068
Ni 6.935825728616563 4.836051452647943 11.186698585044503 1.103127954694971 -1.6589801464500071 -0.879711174164085
Ni 8.802608585707501 2.4469755248294383 4.163874808627919 -0.006550399524008073 -0.03478522599998526 -0.28696570892712514
Ni 5.947101058522698 6.710725034731167 2.7928847142187707 -0.11713148960838538 0.08542824496783352 -0.33579712860753136
Ni 2.6308555949103436 3.421171537769259 5.373948338555752 -0.9148684387915081 -0.8889149521505401 1.0983138211357795
Ni 3.238478816117288 8.423489167268881 13.124159526017772 -0.33502091256313915 0.8030084819947073 -1.2348931350561314
Ni 0.08642213706598897 3.712782442075417 6.630353700052628 0.1379887926733688 0.16089706473010998 -0.45469368053613946
Ni 3.847495068158179 3.716391233363358 8.673710227246424 -1.3108304098143941 -0.3823618637409479 -1.2636560661214367
Ni 6.121650626776232 1.6582302476087973 4.085906218407932 -1.243010621956943 1.6881469978219508 -1.1103882358018102
Ni 4.034469723514495 3.358746927848057 13.438168309309736 -0.4256157893335767 -0.7439921513614993 1.232997203584999
Ni 3.207570360164091 5.655050741805832 10.049202896485294 0.2288466932972059 0.7004379209196324 0.555277807308805
Ni 4.6116145519787235 4.322602725335901 11.605906439140025 0.22926424045059868 0.9157426138663454 -2.03361327408813
Ni 4.835920563844753 4.778778252052273 1.686833190785812 0.9081653157397198 -0.21429039274958578 -0.5444215813205914
Ni 8.21674095343071 6.937545981458483 11.15165497783054 0.2859066715349915 -0.18161861354817754 -1.2891202718308121
Ni 0.39532345227349047 2.6594828460079505 1.1709461920543531 -0.007213229918987578 -0.27156480099102265 1.4745950259002862
Ni 7.602115181253123 8.708508885414421 6.604203987015396 0.30191101738304776 -1.497600228546208 1.9994337999929435
Ni 6.816931949319284 3.796569974517204 7.483874911051769 -0.2921727070493613 0.5078939187082028 -0.34459364385323876
Ni 1.7576683412319674 3.8182320714450797 3.2569191786466543 -0.9316921952170665 -1.4912583454885802 -0.8585522806982826
Ni 5.316544249156894 1.9079660840945174 1.4201968050482487 -0.2739924365959088 0.48012034813936016 -0.32077905793214434
Ni 8.101240933816133 5.932628496570022 1.6944415699312174 -0.7557806593559953 -1.9199643437117062 -0.19064961340219425
Ni 8.188123051533331 1.0243077261609748 11.342540403642156 -1.59439840591388 1.0543993791410164 0.601193596004313
Ni 4.257532291750224 6.436634531651958 12.800790323457708 -0.6940106772370499 -1.3758394676959274 0.5697482330108382
Ni 4.913060814924555 3.557295893086423 5.967072820049383 0.676411476098048 1.9378499657428756 -0.045779777338276
Ni 7.582229432368535 1.4220507514534269 2.138977342363945 1.6480347031820972 -0.2716460478509192 -0.45704675414934837
Ni 1.4116263931993998 6.82030701060153 11.44486553029568 0.21062554230348884 -0.2929520084175471 -0.33084364125699794
Ni 6.626797264285963 5.7368842914000036 13.143932149579603 -0.22769869573569174 1.3542306311769 1.4592851350160934
P 9.2105141916476 4.90077596582519 10.853327608080713 0.7610326517835538 0.5549070542329475 1.708501650218903
Ni 5.556098806594509 6.702067675320199 10.846034296982983 0.5026311276473666 -1.3372441239212325 -1.0338243832031422
P 1.7865760683364091 6.609267513858786 13.632624194688358 2.12110585778416 -0.3729986773584931 0.3834008465284236
Ni 8.396871994220257 2.251137827657142 8.19408971111873 -0.08493562160213114 -1.4921332918943657 -1.0200921212187142
P 6.240151739663941 0.6306185140873085 7.972786662365879 0.5310569870882272 0.8337655606719059 0.34224905488046214
P 2.9197084851492923 4.815445815345812 6.951053705947648 0.7797726513952183 0.01009080857709875 -0.40738255415500163
P 7.7105472054954625 8.097258174519078 12.767594118208763 0.12100845606528836 0.922413855238934 1.7900688695694333
Ni 8.297489995798454 3.0235687504802247 10.197450359737882 -0.050558686784158084 0.37684967567346705 2.866057801955767
