# total energy = -381177.9271239722 ev
CRYSTAL
PRIMVEC
9.14483722842033 0.00000000000000 0.00000000000000
0.00000000000000 9.14483722842033 0.00000000000000
0.00000000000000 0.00000000000000 13.38439365811631
PRIMCOORD
 96 1
Ni 6.781637576224941 0.9523524993569704 8.046992250191247 -0.2970094663163724 -0.5973289708425842 -0.12648979089483375
Ni 0.6666732695779963 7.9548653304476105 1.2576913003242143 1.2653627643998981 0.45554111613809933 0.8724488361747169
Ni 1.9563001706574792 0.6086529349603124 7.506182119572928 0.5523881444658357 0.6839638345240092 0.3040478612203925
Ni 0.10890038028579087 3.8506806480803433 6.429702171372353 -0.20105923877129245 -1.3769733241900544 -0.17804760836746755
Ni 0.8202727000131705 5.877414355481732 2.7361444595318356 1.1890017718406556 -1.121254746202669 0.10878131787147717
Ni 4.295695864721323 0.4568961892374072 2.0994360782748944 -0.8214309503659529 0.837942574867731 0.7721621860378121
Ni -0.15118793684398124 8.032294667712046 3.7014670816054887 -0.022560916019651468 0.041654956536625036 0.2696758114984259
Ni 7.25092319101164 7.409567828175146 9.055786685251075 0.08264528290605766 1.5532432718318088 -0.004506372510785787
Ni 3.050607979138793 8.728628302529614 0.14516423252650362 -0.4017125003534179 -0.40361357403087267 0.44747685107272606
Ni 4.823983969649764 5.920285352658497 5.446578209046079 -0.05893611221457592 -0.9329566637517868 -0.36555533370657045
Ni 3.7300328098224385 1.9893679022682265 0.26944531463644145 0.0621600184685123 -0.07122649954615476 -0.48053249597611436
Ni -0.01514842295719094 2.5352049499403133 11.646470619528479 0.9132435015935755 0.8993276628434319 0.7155539506254645
Ni 9.05859232132911 0.8256599236558396 2.4390515583415304 -1.4791124541546656 -0.21266802665481438 0.7410436102561366
Ni 3.66788449565578 4.159364630525245 12.602129892046523 -0.8342607551407696 0.8381246089715501 -0.6668572567507096
Ni 7.2594827587073425 2.3854582394519337 3.395446990260755 -0.9469416651769693 -1.0017496141557845 0.10326013094293185
Ni 6.761893872533679 8.751408092198412 2.813292135807993 0.4156612492240261 0.5436553925785281 2.2683938163712676
Ni 5.62798891862246 3.1846255695025927 7.894865138558432 0.0670523135638071 -0.5032893300566558 0.3215503888805301
Ni 0.947057638570847 4.141614501361401 8.637618881901806 0.7104266567012282 -0.39736476490768335 1.7270701572497094
Ni 7.705531341961157 5.7491397229308605 10.574581379643334 -0.769384623292675 -0.49599305350555867 0.1689847268342509
Ni 2.288715005848479 5.358069901414825 6.293890363933878 0.7064039086950802 -0.7023189399924292 0.8843694988717028
Ni 1.832195583907079 7.443056222300853 7.4336919089243585 0.35709743274720435 -1.482299079412763 -0.1232219187768394
Ni 2.1240622105908735 9.055803145958182 3.784196766558415 -0.10451611483722 -0.12736807973472905 -1.453488582938974
Ni 5.288861772866668 5.746743775563047 3.0018916019715447 -0.23097145294969254 -1.6881583106758602 0.23031427898166787
Ni 7.552556503912325 8.25767832735764 0.8230774216074782 0.16352601771252484 -0.18123114830177176 -1.1877216195766513
P 8.247006302249858 8.01929070909742 10.931850968082356 1.0193156480640058 -0.35590778331447737 -0.06098785253728206
Ni 4.881605589361965 2.9950165133031375 2.4347278792747273 0.11448196780068025 0.27719294581107745 0.18030298006054757
P 1.522139875869917 2.020140279721258 9.276308034913972 0.3999047577207177 -0.6529439891037272 -0.11270610684718009
Ni 3.6008345487061124 1.089333017000051 9.300841804373407 -0.9292118519973739 1.5971008924467076 1.2564052980962943
P 0.9909620023604477 8.61884453096241 5.631778539192011 -0.018657724310503353 0.5759589898072404 0.14520459369551766
P 7.93000966271586 3.9368615946233967 8.530275867405095 -0.6210777365227497 0.03800553270949584 -0.583336256107918
P 6.129848443806693 4.11981320928175 4.263250896529462 -1.8835091862084659 -0.8215407364709398 -0.3992941207199123
Ni 2.935840271253042 7.554010533040121 9.501072589075592 0.5369134458690044 1.2431265787095171 -2.3892048117137694
Ni 2.7344526646347154 5.992895360675457 10.902405506518901 0.46561675520654655 -3.2527398903386238 0.7252002154659768
Ni 1.6911821930227537 7.813614173793961 11.73880969949705 -0.07229787823346258 -0.00041266205738638606 -0.4434235069389589
Ni 4.47402019171512 7.11526867477441 7.3547509300572536 -1.0147894780588782 -1.9599696804600506 0.7352709694384175
Ni 2.7448686342986095 6.4802328842562975 4.234514159855344 -0.42881269900431956 0.8612077160432589 -1.1386073785485038
Ni 6.284569945776336 5.459120353377976 8.315389566475202 0.22079631218890364 -0.7891684907878215 -0.36084430138414625
Ni 5.116024348241913 7.522881506933101 1.5257136782796183 -0.6637783607150697 -0.8359237446654895 -1.226210519680469
Ni 8.90409944029151 6.71256662023601 12.850704859038593 -0.7825880093568264 -0.22358981577364076 -1.0669756731441302
Ni 6.467247215316236 5.8894306716699285 0.22674806936802944 0.020425614844203535 -0.06702737386314263 1.4931221381701962
Ni 0.06607967971407547 0.12199578727323272 12.456507503172205 -1.2072820582070822 0.37654088618379666 0.608763695042087
Ni 4.472776493844803 3.3334760859373627 5.719111735232561 0.49891948312373435 -0.1399153202721203 0.2797198259979892
Ni 4.366376312071838 6.738391640719624 12.432268197473244 -0.6336792273368441 -0.8656554674019672 1.1250484089171462
Ni 4.261265552355598 4.040426876839025 9.498168188754914 1.3687375665438233 -0.7259638331048788 2.6652556735006034
Ni 6.448015622512752 7.540137814883732 12.140983182440566 1.810334561797005 0.4345981953378451 -2.412189959755033
Ni 5.052120225317161 8.62481610970738 8.78251791414714 1.3479476263816654 0.5408037820623461 1.5638200189063907
Ni 7.649052826909173 4.370628661407845 12.434275489256585 0.4181369644580283 -1.3700069201745504 -0.6678877548977529
Ni 6.035126219242501 3.0518333873345456 0.16267385246983807 -1.251784254384515 0.3744330958121745 0.41112633746815
Ni 4.310949453307254 1.1509417857670872 6.988085935794978 0.6029000371724584 0.21684761195380073 -0.19206320592026924
Ni 2.4891881287386326 3.919394955415286 1.4033804465106896 -0.7066191100296798 -0.34380791472714983 0.39457743197053335
Ni 4.583291852394549 2.492590008207437 11.40856310522555 0.9738698570263808 -1.6568952388965208 -0.6393983892088085
Ni 2.1209804004269297 1.0623283125070933 11.734151319385735 0.6671521622833091 0.09246355454806011 -0.35901341882299465
Ni 8.189119482256487 2.3962857267935056 0.939332994518967 -0.1193567793944783 -0.5573920254383303 -1.447203778371527
Ni 2.3526282736105117 1.6547765958041742 5.437409595187413 0.8865785907078796 0.7744535531751502 0.43249708983444224
Ni 2.2319438560034794 3.299118932269891 10.910314876283874 0.39088147117618494 0.03596664790259612 -0.8701548979342175
Ni 7.063280274827758 7.109681179195271 6.547752875842247 -1.6993482658544088 0.26400807168968726 1.1181719935122874
P 3.1966144511789443 5.4174564747224 8.56349540331472 -1.5270678989880218 2.163249323921429 -1.4124239516881805
Ni 0.20101815519214508 3.295140928052337 2.7327718435423325 2.195740868791231 0.6019749542550278 -0.9415050675424301
P 8.07173635090816 6.599198072454365 2.235434440393917 -1.2984227801786608 0.39265244703367863 -0.5367298691032886
Ni 7.443924981842618 0.13642359705262308 5.209634560592645 -0.3926501330408334 0.3403793486615751 0.18790367522594092
P 6.274775825047599 1.2390705826511494 1.5746742226022894 0.35439751731753805 1.3583181709827126 -0.7407541040401758
P 5.519403120739161 8.660773609899156 6.232924477227748 0.34182970795485645 0.5655887023165098 -0.8267821873755373
P 1.391981406839009 2.3990017434661803 13.354586307745818 -0.4223108933300598 1.5950684353977111 -1.446298235838122
Ni 5.513294369434964 0.03911795595634166 13.227167631964518 -1.2379445202879453 1.904172113874456 0.4140129149873256
Ni 3.342566054195405 4.281914594937751 3.921854916644073 -0.7758910569526251 -0.47827326762829236 -0.27696591740193593
Ni 3.995955533137956 8.595506906219427 11.21705923874132 0.8333338724511261 1.381237755893363 -0.18931649641306753
Ni 4.31752459131282 5.275007344384843 0.9648141691207882 0.1468336446585084 0.32505120294493695 1.2218185612603603
Ni 6.961818305186928 6.499418752873374 4.452907505882782 0.06251945869046006 1.6854249709050975 -2.157568471486568
Ni 0.09199614857050717 6.473986960392874 5.455238369951881 0.9229476162552168 -0.18881667395851354 -0.2981435799208156
Ni 2.9334351790479465 3.214062800712491 7.813621489663786 -0.0554304130541626 -1.0999050768822993 -1.2742613524411088
Ni 0.5509938214152567 6.574945963983208 9.701999295894922 0.45849814188389426 0.031126289091159297 -0.3222034490834967
Ni 0.2708014940053225 4.529895147506509 0.4787413765360114 1.0192991930037736 -0.41171743408492967 0.5092692017891746
Ni 6.720367166437328 3.391207443696944 10.239462416068125 -0.5267444757558025 -0.2921246274202453 0.2643628839259447
Ni 8.957761345460721 5.774964743414475 7.584400656294776 -1.365711635233306 1.208201741807874 0.9600082685529402
Ni 1.8697717202977204 1.5113306782029083 1.741805268763244 0.7184842368983819 -1.3997527839784152 0.6335357597804444
Ni 1.0208290409225882 -0.3606595796193604 9.4737551311476 -1.1249265386273013 2.1709286948435578 0.7585965315382355
Ni 9.34959018847114 2.081547862068096 4.646633567826473 -0.6131361130781698 -0.6703002209939876 0.576897956681742
Ni 6.8326017543960385 2.429170561658618 6.170004338794511 0.9100573905561101 -0.8922373316555536 -1.8884343914242252
Ni 8.199654334805043 4.637420144265127 4.217288944351472 1.8225473018131126 -0.501332206330285 -0.28721227772029245
Ni 7.326541850494291 4.492940860051025 2.0127183297834037 -0.5220599257959396 0.427298062132006 -0.7438728521748157
Ni 8.796848788651344 8.164922242809022 7.385803139531106 0.44893595211675585 1.0716805348189673 0.31259832189356485
Ni 8.907693361343233 1.3028375330166746 6.9401825346620765 0.08424425196206137 0.6491464697345078 -0.2763452530988015
Ni 2.1306099140845944 6.386187377650955 13.61166048650753 0.6301087363767665 -1.302770772734711 0.3666783915674201
Ni 5.007136770728316 6.3822916769689355 10.002786711347046 0.517655883190973 0.08916508630244643 0.7283978964676681
Ni 7.148318116710594 1.5066027973282523 12.086455261180777 -0.944373904449793 -0.5515188544870051 -0.7535623115484377
Ni 0.755991809792412 4.9888013719784405 11.390427063928417 -0.972642412377183 -0.3255098877489103 1.1915962720407092
Ni 6.977318804379466 4.752526211130302 6.114124810584481 -0.6742908302106194 0.20214681540851637 2.044498039321434
Ni 4.916529722940904 7.853778299135333 3.8918333303318704 -0.6653421056577637 0.3505120662202028 0.9386786538372286
P 5.942617045300488 1.1754499496821322 10.180624532997454 -0.281312881516722 0.02654869702280589 -0.32541629959383955
Ni 4.9496157442262145 1.124430902487343 4.407387249345499 0.11826148944777054 0.15202753015462206 0.6370489151400255
P 1.1981748703272388 4.3041365495323625 4.664568422703408 0.7760478942454635 0.34304326864698337 -1.0963371570253828
Ni 8.537263437572067 1.775579896295869 9.473179006398851 -0.19641145558663592 0.23893313099893043 -0.35677990150678557
P 5.579667598425782 4.849031678964432 11.705656006415856 -0.13099899161909698 0.19383880976345327 -0.2508879893679615
P 3.0110839924071424 2.079170204374846 3.426779946239158 1.3442586075658527 0.049669856421301554 0.052939528311508825
P 2.9229917748722074 7.282235113864294 2.1379431591008164 -0.04352440564519601 0.27929482264542865 -0.15398748209447027
Ni 3.3299095993974865 8.255629883806533 5.6619199228726025 0.03799730517937972 0.6760746615839196 0.6432478448618857
