# total energy = -340858.70226957084 ev
CRYSTAL
PRIMVEC
9.39779848988119 0.00000000000000 0.00000000000000
0.00000000000000 9.39779848988119 0.00000000000000
0.00000000000000 0.00000000000000 13.75462803397232
PRIMCOORD
 96 1
Ni 1.0816020012807717 1.8261989564160719 13.323654261931896 -1.9740477558196712 -1.0507995776049 -0.34249562367362946
Ni 2.699517554525564 2.2421079168793736 11.523640390849765 1.1021082551812051 -0.6102027414814588 0.9804074010345823
Ni 4.6786186888776875 2.627990911853696 9.42010394931673 0.30739929419112866 1.0419228439405603 -0.4484289305733503
Ni 6.933770749762915 1.281624739768229 1.0743807330861765 -0.7047997974327539 1.1770314868526568 -0.6869614836997524
Ni 3.0104249148610527 0.5097027463682169 9.980288848679358 0.4166480386173276 -1.1455087336540273 0.07071382157579434
Ni 5.3830024651937896 2.9558800936723104 5.226401313856654 0.23417710437118378 -0.0159269556429016 0.723733144002147
Ni 6.967659210342965 8.448489080148715 -0.05997110991279176 -0.7575102404525922 -0.36011565074823787 -1.315643000711689
Ni 2.5598568743591428 4.87315311317248 5.463737070615611 0.7302089815344779 0.35347577683421705 0.026664396665063754
Ni 4.581746184257846 3.7651714921334727 3.031162096534912 -1.0768535943794746 -0.21929093128797073 -1.616174621248707
Ni 1.8345535990826454 5.3385884705456155 7.727240015048101 0.3017806624527706 0.676393478375919 0.4395622242113398
Ni 8.125533742424535 4.689341576709589 11.673346377592454 -0.0036157423757163533 -0.9433259228012528 0.0014727278907845605
Ni 2.6553479026325437 7.049786569469156 11.897615435629696 -1.092536295222054 -0.6198356365855325 0.025673236396388046
Ni 9.080801141492993 3.268037361178389 3.5417200425461646 3.666391051111156 -2.7424021380756187 -0.9788971350376431
Ni 5.3034313071984265 6.458730842552616 12.980544406026915 -2.25917692575869 0.9476428050090516 -0.2710174131279849
Ni 0.5652954220646346 6.446410329013947 5.53709064527216 3.3510521903579766 -1.0205047832761007 -0.08374674350035254
Ni 3.2123272130035323 7.992818035183421 0.7310387515637978 0.7048100818453991 -0.8698134554343987 -1.7031730389171378
Ni 2.6142137395823837 1.2581584374752774 5.797547805127372 -0.1695269724909661 1.154637692538489 -1.3204329659011647
Ni 8.459963791842625 9.029855677043617 1.9281509710036109 -0.13545651316981833 -1.732367915313539 0.5580803097546065
Ni 7.70717195661143 9.21841310163544 7.11672708658277 -1.1884690392656372 0.1818898649316932 -1.1394008209840765
Ni 8.873222573192347 1.581414504744262 8.382716709360698 -1.1009314612642844 2.209908675651181 0.9055268496756083
Ni 3.3991930339058345 5.9202276035904955 1.9991522767519 0.23893415944019497 0.8935722484168934 -0.6927503224673877
Ni 1.941265598496528 3.858660789374275 13.598072790904613 1.6769945807495572 -0.6493724697023848 -0.06518697822029419
Ni 5.718137349482514 0.6151310065377193 5.499980619443403 -0.23795842579048695 0.2674119551649137 1.3963820677339693
Ni 0.3647605035711837 6.8109039351141165 10.710577655940801 0.0456854178522568 -0.3658916340000666 0.4727448816108955
P 0.572631343398186 3.586838872064971 11.8536140043258 1.6256136551744196 -0.41055863789013813 -0.20528561814781418
P 2.60118839117308 7.330498803946716 6.925716836641145 -0.5794148095663247 -1.7728645898760047 -0.6114543545003728
P 7.345789021740321 6.377486876464284 12.70988123724493 0.6479089977829809 0.3100362175933435 0.11394872100502956
P 3.835344851853725 4.453889138724964 0.5291627672564887 1.8630545178985398 0.39417351166389536 -0.2877023299828335
P 6.722893554267705 7.128295776259433 8.103759043821103 0.06335121056313606 -0.1983428682813939 -1.138663685707736
P 7.461269166944882 4.933120463965962 1.757057474946427 1.6307514906216174 -0.6557071536711611 -0.43016304238462694
P 7.7847319857759185 4.463625257737979 9.397780419294032 0.06611848889562806 -1.9890925659679357 -0.6800241331499708
P 7.189926537347609 2.495378580393608 12.793894734484939 -0.8487090693556159 0.2887271717029221 -0.48656507532343946
Ni 4.111452165176479 2.2853941757345337 0.7798396384467929 0.28904701693618606 0.669921240388014 1.3572563053771012
Ni 8.533257220590215 5.278423765988356 4.06572999700841 0.46270009578038374 1.2868643859170998 1.4078913539251494
Ni 0.3911448222285572 4.332977066117389 9.541530081489952 0.5663435782046633 1.7972677013107177 0.001684072570642261
Ni 9.030551114115976 4.6946513327350265 6.7925989036338565 -0.6437569232878203 -0.7611033571204893 0.5855080669482562
Ni 7.866755969121085 8.866832070365271 9.333216605364193 0.21924439432075146 -1.9958131725212211 0.7335457592171948
Ni 1.1108573473111916 2.312431641372027 9.910112669619624 2.643696716382905 -1.396015685533486 -1.4893575289214414
Ni 0.6958891064552286 5.552613928462987 13.367146332569282 -1.9122911434371646 -0.3527900636211021 -1.1206276541416313
Ni 5.1697100355418755 7.551835748922124 6.079779663586016 0.21625497267512434 -0.45777823299873416 0.3419001561814757
Ni 8.689730561870809 1.9666960406289777 10.920940791870365 -3.137672225237803 -0.7328862712563249 1.9103556169773488
Ni 1.9480977978425336 0.2990492184719543 1.4470278689698333 -1.0476106383539572 0.7469144672146169 -0.10368899095023433
Ni 9.394546636907565 7.078158522461716 8.298510557256051 -1.0099501476887058 -2.603960831245864 -0.13392619256822094
Ni 3.149484135937867 8.443498849264632 4.949726373518082 -0.7906347909207028 -0.8543554690081157 0.7571302314053542
Ni 2.1425100507597494 4.573964807286055 3.2403429894414653 0.21495296603424918 -0.3875863453646809 1.8247257975216704
Ni 7.899798627856375 6.993287006239192 5.955781354024895 -1.4976377666523626 1.2617164258965625 1.2679215262660097
Ni 5.012494268197547 3.0670466494685953 12.29381721311009 0.029198475940827133 -2.4441850246043906 0.6989662214701123
Ni 4.986631527344443 -0.11001908462689407 1.651284315580228 -0.6078308988151725 0.01150182999201245 0.28134502030623804
Ni 4.915039100084649 0.4233914874499447 13.219517259245395 1.0654679782503522 -0.6810716005778787 -2.37020410224155
Ni 6.41782222666106 5.348606523506884 3.505875900145065 -0.9510780559428459 1.9664997682690843 -0.36796574292027595
Ni 0.8985366500009243 0.43196885793563833 3.458697073244353 -0.6709545667485348 0.5971029708747071 1.2085858646201701
Ni 3.2664209398750703 4.495558976276805 11.628973733256691 -1.1626258529502882 1.352163464235226 0.7352354882147919
Ni 5.550480628254538 4.819604458600899 11.141647144581512 1.2271718551524735 0.9657510845739885 0.1318299721608246
Ni 0.9141745863307086 8.726532339916142 5.818469183647424 0.15703706755407149 -1.2156545985414935 -0.07630597095159115
Ni 5.085806492541687 8.502620398213354 8.424475825996153 0.5403530676781726 1.0037710154611874 0.17107631925595695
Ni 6.93804674797809 3.0373026179278697 3.221305869475573 -1.0513248539807507 -0.23622833047325767 -0.49069118167667103
P 9.064383187906374 1.448294692177318 1.360330360542454 2.304853601860198 1.9380199156618363 -0.12577836665010594
P 7.751914874199231 9.079598223313779 4.949341063788804 0.5118804141597765 0.060320137046296116 0.25705529452093795
P 4.270556889974104 8.236164623719139 11.454234831248591 1.0463870503595012 2.2749899815315464 0.569249953218181
P 1.0542919994933 7.498371674535019 13.355027871693528 0.9945518108557647 2.250576071463556 -0.3673527919266254
P 1.8869933134577632 2.476357436684784 4.128176486986866 -0.32532451121098166 -0.2079801342608418 -0.31048333243309106
P 1.1933230271752884 3.232748628655348 7.488638374861487 -0.710498647589744 -0.39461599851795265 0.6926734464828651
P 5.311118706187467 1.6756556258470725 2.874070380127816 0.00474651354604989 -0.0570869748209791 0.08703544155395333
P 7.956730489806996 3.412641283237518 5.297512573844761 -1.084622953912248 -0.0025358790479762775 1.1729832849252122
Ni 8.44198580374234 6.794720926484376 1.0541547916384832 -1.6812962934487041 0.3346013085272173 -1.2146783506711532
Ni 9.149461455690952 9.13391749734392 12.913958185908271 0.38634681653062497 0.701834544156843 2.426750374067711
Ni 4.049041386831468 4.217299567149051 7.246873435775471 0.48112384970321004 -0.7448267314476527 0.4020452011024882
Ni 0.07833158840287564 1.3013601161459616 6.148470050738455 -0.46980893891102316 2.3098127456376867 -0.8403570978464947
Ni 1.1523392288975305 7.355722494517113 1.7961476168717503 0.5471253534049996 1.0218019048209694 0.6564175494746244
Ni 4.478689928372981 6.796938806877303 9.98634103076853 0.7162998276525534 -1.0701317022746086 -0.29164845911477516
Ni 6.293094647953789 4.422077591563714 0.027076936390249103 0.30974979670117625 -0.41913352404334264 -0.15137524128260382
Ni 8.795390007877879 3.4936784977637982 0.42897941830432557 -0.8893983195448617 -0.49131081753854094 0.1411687330632472
Ni 6.479612750319913 5.220288985858521 6.023563913863958 0.053136731923979455 -1.07567705757287 0.8945040162025435
Ni 5.466680461035375 1.0767151461777142 10.778291611852458 0.1338565156725501 -1.8603188641349317 1.489622866767686
Ni 3.3923044477701785 0.7229566450472026 3.395824863004035 0.0991471372158228 1.0155027020758187 -0.1101296043692555
Ni 4.589950462152018 7.282673408524677 3.6042492331494413 -2.8572867406313565 -4.649244856803703 -1.0468174530287004
Ni 1.629437253930078 2.866469440882906 1.9319890318191661 -0.7952671474863917 -1.9191832425713076 -0.389128235930504
Ni 7.3713980220399975 6.324483294192659 10.083159967938203 -0.18757508824192856 2.8901474959151194 0.6251768462927878
Ni 0.3615163836066155 5.174709664224234 2.036097841110843 -0.7424996259763729 -0.7992772970870493 -0.5253236841488759
Ni 5.886442518791473 4.898339212549777 8.819040507017023 -0.8036291462978418 0.4020943091728688 -2.245494800285907
Ni 0.736399255699921 -0.2074150466106594 10.877461878150564 0.28082077237165187 0.19178604099948263 -1.3701059076462598
Ni 2.8818066476678874 1.9882263964772564 8.088587238285765 -1.9779175231877226 1.950103843409564 1.1703273353596038
Ni 5.894186304570163 8.7334209260518 3.716046381209986 3.896836713464366 3.134746052729943 0.594835257886453
Ni 7.022373191900659 2.8243861002069606 7.239542213341056 -0.6652197211472867 0.00436907560197312 0.15175550744015798
Ni 0.4809323267287928 9.11356186628003 8.138806252928473 3.2117966151570427 0.7273170046986636 0.12269509973909191
Ni 2.2809678127469564 7.391669072919411 9.257332203632156 -0.2930844202303533 0.4551783334820419 -0.24278130110042706
Ni 8.878410157840207 7.6315008849002375 3.848104242571843 0.4783460298477568 0.3677675108665408 -0.920220704242357
Ni 2.9112875408569097 9.222905249210942 7.586750449073815 0.5903232289487124 -0.7886013054304419 0.31574843748677234
P 6.476718228451178 7.736831407967679 1.8763098963786176 0.34606817151623626 -0.5490994464122348 0.6313642060504224
P 2.0229324655072403 6.79803834927549 3.670986757820313 0.38975327110901264 -0.09771863229941234 1.092726813966305
P 6.765324613479829 1.218650093526712 9.114834328166479 -0.3371269031625484 1.7330279174950411 -1.2691628548722789
P 2.926446189474663 0.870347014294902 13.432645227427495 -0.033278045326839464 -0.25554991362000506 -0.7743440241804792
P 7.778989931029826 9.115168889785073 11.364155995001827 -0.4465450832870761 0.09985007682011834 1.2193785843603
P 3.841791741470451 4.662980752547903 9.627455090899117 -0.4620197818839075 0.22663348769597097 -1.758488780770307
P 4.8012599563678835 5.043882914436417 4.7437783232181685 -3.0617105249995076 0.7329019549856087 1.7015642996691211
P 4.573833238110203 1.666182645185761 7.022109113769129 1.3488781086157349 0.4939644531113041 -0.9343401743628748
