# total energy = -381167.8092645 ev
CRYSTAL
PRIMVEC
9.22527978568321 0.00000000000000 0.00000000000000
0.00000000000000 9.22527978568321 0.00000000000000
0.00000000000000 0.00000000000000 13.50212947191537
PRIMCOORD
 96 1
Ni 3.6113740887465986 3.531547744143826 0.8614455411294774 -1.4524822531616468 0.670323360922439 0.10104101180442598
Ni 7.532081028628706 7.508325933592055 10.162323565963499 0.26981259418660625 0.007005484783555678 0.11745570571702352
Ni 6.657782827924448 6.703697044622472 3.449847745249037 2.029455800276331 1.169829569787579 1.0643906860257732
Ni 3.8508346719956643 0.4782015946873122 10.975840089324658 0.3206754424747445 0.03819553723311486 -0.746392790383192
Ni 6.1364530509861295 3.874654343989696 4.31733307694958 1.7245749016316814 -0.15952563830388009 -0.34271288189075816
Ni 7.213725854019082 1.7156252520256086 11.511631414604516 -1.4148119923043827 -2.148236909672997 1.3247704169342538
Ni 2.056563911159396 0.8786045612336212 9.28915453948545 -0.7833274586260123 -0.883492495583388 -0.04757132202106001
Ni 2.3994675548534965 2.714492403518176 10.746857578674673 3.1309796437089754 -0.47292640149408227 -1.110685455327255
Ni 2.471747620722296 1.0962768790622743 6.941174192751972 -0.04072164608907826 0.3377532238926377 -0.0254390088983949
Ni 6.605383239649428 4.200463544537033 0.03658376888440476 0.7659663416397454 1.248098835113128 0.8428765218342387
Ni 0.3359551630798848 6.355046051721445 2.670532101044915 0.3869289142863401 0.2673245376574299 -1.3648346319449913
Ni 9.08334869883957 4.9492887170496465 0.28533328618877274 -0.2053064440834206 -1.3874485126897653 -0.7427019717951661
Ni 6.536212093014551 1.3750832799157344 4.861265711499277 -1.3482137355588586 3.091774948485056 1.2870338216154287
Ni 3.336580684530398 1.3496122828686694 13.080227850064638 1.1576965339694707 -0.06307687385582685 1.9296617735051287
Ni 6.437031111756675 0.5837129628244704 0.5197264233393403 -1.6821306164245418 -0.3957130882368733 0.03516292105437815
Ni 2.469588905289839 5.501301774023656 6.252822573242952 0.581456779697018 1.3862904878259221 -2.232746242370987
Ni 4.347007111394198 6.027880735069102 0.08820566608696269 0.7449635141358332 1.492281644546772 2.1421413382982206
Ni 5.356630938930546 2.4940174457391793 2.1099773576653007 0.8452954156883765 -0.8531732757745566 0.38245262368254135
Ni 8.40748626288807 8.418593499557634 2.0232938627166086 -2.3498995863562433 0.47296419671055323 1.4750033170822985
Ni 2.4476880914579913 7.55011645029731 10.679981681610716 0.2994036775801618 0.5383987721652793 -1.8526850017387575
Ni 0.891805936378261 8.486463881765262 7.347102179266223 -0.24841073147206252 0.3136432182183115 -0.3897316738424579
Ni 8.158071602922677 7.036978721666776 7.762198248672677 1.4890929624061453 -1.8359568903507995 1.776346120666702
Ni 8.103522524494826 8.8436021319221 12.144679327812284 -0.43789023582555553 -0.7849500818310997 1.0177992114194794
Ni 0.4605730078502109 2.437881619215677 1.6861864622114509 -0.5422559411278403 2.507616710696475 -0.4408991978552084
P 7.905870908510266 2.113806771238005 6.92370243566851 -1.914161363876684 -0.6111890166541281 0.7430431571846687
Ni 0.3249623198776817 7.523289337145239 4.684429093934598 0.5835928522034143 -0.6756483726797783 1.0698781915029059
P 3.7959442582216556 8.813629198417605 8.524906544494282 0.217414025980232 0.4069207840272347 0.24552518239415133
Ni 8.509702361142862 3.878778043982466 8.535154907630677 -1.4130140198636953 2.1007686888887047 0.7527056199750972
P 8.757622525808864 3.221864332382533 12.098110116260823 1.5651559641089947 0.17731278708397202 3.480590024050515
P 4.108921094809389 6.3208756159871715 11.57251272496757 -0.5434846713286189 2.0590733660324476 -1.0681182713890056
P 5.029151962770923 2.7509783844385467 10.86278705509334 -0.49271232587175795 -1.2416268542355389 -0.15639223488122098
Ni 5.937343840820679 0.9278970753306436 7.592409744742174 -0.1643819379549169 0.6564725710822759 -0.7606942946075286
Ni 5.840459954189647 0.010247440608431715 2.9539151631207754 -0.814350646480404 -0.522404710729868 -0.43185482826475297
Ni 4.993616185652019 7.298838283847487 9.900044253559809 -0.38234103780534157 -0.2575070373463759 -1.4601935057629756
Ni 0.6018858411594987 2.4132870237330706 7.752801378845751 1.876133205459369 -2.264919484669422 -0.4355412759774048
Ni 1.0720512947647036 0.6762535878076359 0.6529228556337757 1.2405428771427407 -2.4006433925680137 -1.3047829180687336
Ni 2.003352498277298 5.449446477246563 -0.05716813531363927 1.416203730445587 0.3903214849076568 0.03159885785220365
Ni 1.0328530816343235 9.083736160583857 2.837324234152931 1.1736340311353337 0.20556818238523952 1.9000161827245539
Ni 4.002369115130431 2.2580071170701945 8.46005651883617 0.49520398194536003 -0.19197218886835968 1.0906323933311217
Ni 8.98699987842684 1.7082265777656498 5.078785812214104 0.47034115726540937 -1.1337071130334089 1.4013450681661994
Ni 6.730376553300528 7.5878478439671735 0.8063678541790634 -1.971800611656707 -0.23740152484575244 -0.6033777481398254
Ni 6.898885510946921 6.422261439075634 6.005544488038913 -0.38812293459444125 -0.43628972410765504 -1.6491379635486052
Ni 8.137370075442194 0.6328883158702439 9.021285630156436 -1.031582895467133 -0.7688079248535985 -2.428100974558334
Ni 4.097620127267681 4.357689985200971 12.081138369333086 -0.41792227734406084 -2.5969805432732884 -0.7541148416177981
Ni 5.99888568120495 0.3829016885680449 10.11988635715647 -0.3933335322611032 -0.9245357866779432 -0.7715116969380067
Ni 8.261883674552747 1.6793699030958855 0.21530049843683852 0.0603407058715864 1.0527448742567287 -1.415828092273723
Ni 2.4969603099398365 3.9616210550229027 7.773392202970724 0.18452293167916609 -0.6031743738797677 2.0877360240744625
Ni 2.6088998529203105 8.02792135796071 12.819231774056908 0.7443436211636472 0.253694348468505 1.3165292599713843
Ni 2.827391375579742 5.849565305180394 2.490345784448078 -0.10573970283167596 -2.5783135629914047 0.6839491792359897
Ni 5.27369567509385 4.4954141847357905 9.459780698805982 -0.3410676329778513 1.2829946185490486 0.20185936607508462
Ni 3.477247748265874 0.7274234463085254 4.142696688575675 0.24462658183928193 -0.22596577220498504 1.713238907793572
Ni 3.8113966015950105 3.2390510283255542 3.9388004808123536 -1.6731312411394088 -0.9517326588077093 -3.014905648830827
Ni 0.8284374906280652 6.345138101403246 9.442876296419513 -1.5632296936205594 -0.5703580986806952 -0.5549746742460893
Ni 9.059842686352818 2.2335232249430987 10.31115776975177 2.257639663178557 1.0372262097958396 -1.5947053956313375
Ni 1.9207032181090054 3.1950003181119593 5.636558211258551 0.32861218082331795 -0.9811777035417037 0.018904550213986796
Ni 2.8042635995576517 7.623789533389616 4.458632994867392 -1.0271145752831343 -1.3210366609234345 -1.7272462778162576
P 4.484823563725276 8.812079351440456 1.050812856009994 -0.37674760287796405 0.051645234980117506 -0.37730244694016957
Ni 2.9021069152697745 5.272072025879695 9.97814085823273 0.9000264886826694 0.05752817612345576 -0.5740226920164759
P 7.13488661433628 3.489129908424012 2.1318781714971484 0.9727347149806732 0.8547773870368827 -0.18495050613488792
Ni 8.744541079299362 3.44995937113251 3.6148308010224173 -0.9353948408796343 1.1213622183148106 -0.6531669037478106
P 8.527497925541194 5.488958349884223 4.462953193316193 -1.7505309593758112 1.5112463585747327 -0.13581081118544353
P 1.5289701693551019 4.2576418276582615 1.8025209284056958 0.17312034626917927 0.41711649361331393 -0.22160415280217963
P 0.16167118038768827 9.33985759883727 10.545554597014188 0.432122737214159 -1.7903249514442972 -0.16227980401024955
Ni 4.461363677636653 5.903385586517801 7.647552008649968 1.6509601043590083 -1.11167198761024 -0.7748266202438527
Ni 5.940092974149192 7.851109648651019 7.725256538938787 -0.9059839918176849 -0.09224809610314434 0.41257078322416046
Ni 7.746485752413871 8.927884286584176 6.690062081335416 0.3401566911278077 1.258282203404033 -0.17127095176526633
Ni 6.1872751164451225 4.076614165559544 7.050177329227527 -0.020698151779299838 -0.5226661919213709 -0.2314666474185562
Ni 3.4563248140743696 1.404880933107339 2.079800545481072 -1.5659149537622064 -1.250494331928498 -1.7584640981799586
Ni 0.5764794210698149 6.584598684652311 11.95517640132127 -0.0889390863345694 0.10977504924331417 -1.7936126210566337
Ni 5.391096583612848 2.5219515924463556 13.090881202976608 -0.6498710066053582 -1.8103348189073207 -1.1833512584230976
Ni 2.614785581321624 6.970713538114052 7.991127252700833 -0.8469938864367218 1.2421336186686285 1.4220447626073962
Ni 3.805049609212403 8.478659295201764 6.221079308578248 1.6805491308700347 -0.024093550614093993 1.412277141697671
Ni 5.005359966615769 4.877635970195407 2.118591923779951 1.5810937183851739 0.2768147365360523 0.5349303540007045
Ni 8.737022476404265 3.995837617155306 6.009784426554969 -0.38597657767539983 0.0849487342282537 0.11691808804599865
Ni 1.668290342265199 0.8197223689654927 11.798187972871679 -1.7962904249991127 -1.196168979013056 -0.35265302382260555
Ni 4.621994246482542 7.186465152724597 2.609813155603273 -0.4633657543888407 1.6245433049283762 -1.7944004070652515
Ni 7.74626434570285 1.2989378218836898 2.7584582411592136 0.5493197899531572 1.9285937372519302 -0.8085139851939688
Ni 4.407192835673464 2.1170909707848193 6.026891785093208 0.1775195037781394 -0.4334658815056148 0.2859544940537914
Ni 0.08992525820922743 7.536407684773246 0.3501224250013546 1.1163454818265097 -0.6880686007210022 -0.231432194636195
Ni 2.4011281051861553 7.752371480815185 1.6123842252043805 0.2457570958992993 1.4600394966836143 -0.7863891282704714
Ni 7.383664730007488 6.224923482598355 12.48594548437279 0.22963885018119806 0.35712005845502365 -0.6685675545735971
Ni 7.509202335156514 5.696481015068478 1.6633003885155584 -0.21481901155954616 -1.0200633248633075 0.2944843859016735
Ni 1.3725832291371198 1.994247147286551 3.5009945405508613 2.9324146321144466 0.149534074308807 2.038396040188754
Ni 1.108140588661161 4.346287539583379 11.038300767559669 -2.1698542308324567 1.824463544999219 0.5664459081104825
Ni 4.821278736960883 5.88469516999576 4.42163685598371 -1.8000750888525257 0.02326025607952123 1.6380040584189723
Ni 7.172913216954172 3.843131563508051 11.107540181263778 -2.066186837148777 4.233634772532587 -1.7306136516265935
Ni 5.537409518479365 8.068936951177387 12.015935937993264 0.24320707578393597 0.1251420186176877 1.4606349641757683
Ni 6.447538705250556 2.5479392051524705 9.15981704165852 0.7777713046944734 -0.3000066012714833 -0.2597606092672429
P 5.733861848112561 8.686532521011804 5.130458448454603 -0.35661355113225035 -1.4751357288951046 0.3789219848214635
Ni 7.89635964521598 8.979693456963139 4.479061454070949 0.5031011253052498 -2.6944340948367724 -2.0947916453696633
P 4.379064958094144 4.147159878858678 5.594607174687807 0.07699271260597063 2.086548431524265 3.4251511263559205
Ni 1.373745614369981 4.97938157918928 4.20760114338358 0.7312639051615535 -0.5117423459200154 -0.07699142705438998
P 1.5340901995474674 9.373991133453037 5.2576077099542715 -0.2778308365053925 -0.3061494809444276 -0.4696698422299976
P 0.5537058957853581 5.357590368011638 7.3289154630117554 0.730702890451761 0.9777208553413548 1.2408593799418952
P 7.398332924612643 5.475120430445397 9.439028432287557 -0.8783024667420164 0.6042295546171593 0.491850749202411
Ni 1.5132687434318477 2.9619605294825093 12.981163107330046 0.043921383973298554 0.16190313739712117 0.9706613773914121
