# total energy = -340856.80720022577 ev
CRYSTAL
PRIMVEC
9.42065497151243 0.00000000000000 0.00000000000000

0.00000000000000 9.42065497151243 0.00000000000000

0.00000000000000 0.00000000000000 13.78808080520598

PRIMCOORD
 96 1
Ni 8.844968218270763 1.73773402614598 3.649650311334698 -0.7713250348484973 -0.49202095623168807 -0.16658434492287438
Ni 0.06258894786354038 2.8097951474806124 9.226363437009352 1.0901729371961997 0.508706387307169 -1.3169678901706996
Ni 7.634772032285916 0.3241374195544147 13.165438880323164 -1.0125611029489916 0.6957132617504534 -0.9982464860985326
Ni 0.8303845793561748 0.04918806608866965 11.848014914698293 -0.9814813508250515 1.4097795720867978 1.2786088307765269
Ni 2.291272874179621 6.660308897023453 9.80664846672808 -2.5206419193115495 -1.6290257661797622 0.8855923155352102
Ni 6.7927256240727205 2.981995300705823 0.7695733090960918 -0.059430535352491196 -0.427064091744329 -0.21533760306717756
Ni 5.277686462092765 8.430845643970908 2.1620261975466937 -1.2065212687816576 -1.1420094622515171 2.627464313684442
Ni 8.86344212277728 3.3847659856990204 6.510772955660445 -1.6021507961657893 0.10691958207239005 0.9007605386352163
Ni 7.777965988685238 5.495152862719209 5.865394025906692 -0.4263398119837947 0.16119299870397397 0.43887702521885713
Ni 3.5048133926987943 6.376945014488244 4.358481120952398 1.5710892988742942 -0.7646689629845604 -0.8538327637354262
Ni 8.39547108434726 7.1614971650761055 7.864100921721441 -0.3687414447440359 0.5078692361178544 -1.4018574890262439
Ni 1.0779961340011837 7.345821701320128 3.3917853157590954 0.6813953024658845 -0.5577216408636072 -1.8431315537223678
Ni 0.21701326711968003 5.363894876238173 1.8862506526351446 0.8838290529872005 -0.10092196972805845 0.8366881336353397
Ni 8.56087894529853 7.7517012024719945 12.386908412428092 -0.2612266522898082 -1.0591299518474662 0.3112731753242381
Ni 1.3255803687466161 9.05441764146985 9.735143810947678 0.10832494706034891 0.1340179809510789 -1.5873751805185115
Ni 1.565222991304902 0.4182026599917323 3.920516752912057 0.42653110205899447 0.341194902584335 0.6141568410332003
Ni 3.058839583755117 5.649962486765923 12.982388016638692 0.6011642854282744 0.8811736176422245 0.39358318637806416
Ni 1.3542474219915592 2.2568121180935212 2.323581010592218 0.5213500442131086 1.1665665827655909 -0.4773088468324941
Ni 6.699442298002584 3.872058787587923 9.02607748495432 -0.883306347714511 -0.34296459289024805 1.0426928893373655
Ni 1.7013231944694418 4.109468714904983 11.400867292138342 -0.7989273699467982 1.6699546431836403 -0.12299823280180752
Ni 2.261908692462734 4.349940355105581 3.49042522627717 -0.9845805585756657 1.3316835991143194 -1.9316847174724283
Ni 1.0887451013861589 5.706627726748944 7.95248268098141 -1.3555136116543816 -2.802518900861857 0.7231217356703934
Ni 6.347364157705751 7.450739536347709 5.241870073748385 -0.10495911591190955 0.19482508493612255 -1.4983170521075744
Ni 7.9345372752218655 6.5548635053144 3.1237036198075017 -1.192751982911707 1.8180252455730432 -0.6772527410524207
P 8.751845043336074 7.673406138548654 1.2792542976549277 3.2040277698449016 -1.4807114232106693 0.26128527344188546
P 4.724571543535306 2.024574130385884 3.953428753311838 1.1759313118099426 -0.7912762811594437 -0.4463771902506442
P 0.9749435886688032 2.230622697120487 11.136605671799902 -0.5425752721404721 -1.8158966292658147 -0.001203790500114056
P 0.07796345686641494 7.163098676430572 5.805844181354627 0.3160500278875912 -2.9159996810915327 0.08361098925343664
P 5.114360565902302 1.771893321271239 8.90610732732576 0.3113163698573478 0.868612236037446 -0.5459480452674468
P 6.415466072890666 9.12844514866629 10.885703482354216 3.666080204738957 -2.3503739548895006 1.4489626700441625
P 8.761972247489314 2.4907269823958345 1.312619431561472 1.0057034565972098 -0.8429950496899739 1.6158943710041267
P 8.31005400522406 4.9202479690859855 8.113044556987164 0.10248828577391382 -0.6350678801542547 -0.23103907296283432
Ni 0.29662345448468713 0.13831970948872907 1.8973368794700605 -0.2721625824760216 -0.5532060123814408 -0.9777817904862774
Ni 2.8543077424797434 1.2110817275573162 8.670413843354487 0.8956908374217929 0.11974038798614214 -0.2768725863571812
Ni 4.198983778964611 4.699682172955898 5.957760722242773 0.27906548024344197 0.37937578452943055 0.23882437333520806
Ni 3.7175412038470235 4.076317429867534 9.67493075228176 0.03737072733897435 -0.7586196714666871 -0.23546574127562028
Ni 4.30120730665468 7.44525671512242 6.887959967798798 -2.9456606984910754 -0.08193283022006534 -1.1899631073126604
Ni 3.2186704169308338 1.4044218306614793 11.543381077244765 -5.269582372726318 -0.659561751530561 0.7195425029595672
Ni 6.347590253426382 0.6131028235682461 5.129097296559898 0.3511065052710921 0.868740276974878 2.7507425396205143
Ni 6.9076952980133335 8.233520603790634 0.877027184456746 -0.26211599687329695 0.0038466274395998266 -0.4322839453823716
Ni 3.7846351089441264 3.601799036194256 12.22267907542061 1.320971612013454 0.38771927139811935 -0.49786893037203284
Ni 0.9222595174998843 3.1233804913401007 4.901110850465618 -0.8498778928527363 -0.8486969851707576 -0.6704830264287549
Ni 4.193661108874768 0.016517234457561238 4.879464069346252 -0.07626380485974608 1.6240889909997769 2.420474825471644
Ni 4.66764252521155 4.181894710746955 3.58189507625475 0.47492466287103363 0.5908698454808018 -0.2872019933076473
Ni 6.89347952957869 5.608888430851381 11.741681155220263 0.6815943058505681 0.9802132827459054 -1.8547421413781024
Ni 3.0527444199531195 6.064047378445672 1.9539776257500132 1.1957666013683148 -1.584005235605014 0.8693450004384125
Ni 1.020690289476376 0.5991131508542333 6.521017918001515 0.03222466436166063 0.9261393837196372 0.15134078850024257
Ni 6.946206935760731 6.366375039548767 9.333952027736881 -1.7405766763765769 0.042704737957378065 1.136246591625811
Ni 4.265926953581294 0.04349987458380712 0.483016766572478 1.1582565202379989 0.783167021788748 -2.5834398284743765
Ni 5.407974121106095 8.764902071202485 9.117961843753054 -0.7097905657791259 0.2921418538114259 -1.1377882250813178
Ni 3.463993694469961 0.7263786637351358 2.4721061156709068 -0.5540963854061941 -0.20909727858442054 1.3473770985901763
Ni 1.1359991069979352 7.7760724370249585 7.526003033483595 1.7748713358933885 3.097602868020743 0.8482372719255199
Ni 4.437731439295401 6.431302193989827 9.070171802870284 0.6628908159037938 -0.3728672939869514 0.44644532448441826
Ni 9.06990519833304 5.731922185494483 10.193927826596076 -0.8731026677086319 -1.041396539123445 -1.3805978083165191
Ni 2.585385724099807 8.004796520407796 12.230689458389447 1.093370103977259 -1.0868348739619025 -1.9076441315834565
Ni 5.177403589338108 1.2089715008314317 11.164857274158186 3.1117650184537373 2.0585218644043515 -0.8087145312405492
P 3.0979258814591164 9.386156587564964 6.8095744655872075 0.011471748085025404 -0.08567867041574277 0.6313228112895256
P 6.148805011717034 4.556431692626418 1.9637402505537382 -1.050253989514075 0.9027135485965292 -1.2146107306580114
P 8.894963634495184 0.12963386555450704 8.108949398247244 0.5478745728661983 -0.2971539623140366 1.240639293511289
P 3.48077188107175 8.279926750450045 3.4574576440127345 -2.692623009769963 -2.4712872801378216 -1.9148301078089345
P 8.443714258736795 1.2263808713199806 5.832468836589874 -0.5470428209935224 1.1093371688294766 0.14290319925585065
P 3.4522743996172798 8.28837707800861 10.062899704097681 0.03334412267808451 1.9117962060786169 0.5247755249548898
P 0.7992907653764642 6.548740079547324 11.595886155968186 2.1431060162043347 0.9187343495048178 1.5213788190230444
P 2.3211080886478217 0.1586833973935168 13.616267152801877 -1.8462621289315495 0.5022009820884834 0.1602100659654144
Ni 6.480619323052357 3.192546940542984 12.33541040172698 -1.0345075253130958 0.44466354999364704 -1.3098384782147698
Ni 7.459086236700986 1.9407962452372547 8.007069724465635 -0.3955158846244027 -1.0958278214891322 -0.7792610018661225
Ni 8.594143278196293 4.175177783713224 12.31770616473611 1.1688913742440257 0.47214092947830943 0.42158378535604807
Ni 2.1707732757385862 7.885568710395308 5.385982544012768 0.18800112003575364 1.1390930599356706 0.6713479455322116
Ni 1.917254028326603 5.371535027464478 5.735000855557067 -1.108960245106032 -0.20370901768931368 0.17112157067159564
Ni 7.879379340043047 4.010853298089976 3.091329538809721 0.10216509810654018 -1.047630178737983 -0.6797811639012292
Ni 6.502107837167281 1.249216539103662 2.4610349618840326 -0.38869243394466607 0.4974228439735498 -0.11779766243747454
Ni 5.810141884177612 5.476622434282533 7.339809439282361 0.8051463542733166 -0.10295288411515817 -0.12291415772843349
Ni 2.1003821413822883 7.503777824145616 0.7039104014974791 -1.3934857200227806 2.0703548524835376 -0.5401682053608761
Ni 4.91025265410311 2.40602587305463 6.384253558657624 -0.6671681031229091 -0.8779607671318815 1.4908896492952517
Ni 5.525440268628671 5.207747519177728 13.399601507852667 -0.3686383435072684 -1.4847226012525916 1.1353143096195286
Ni 6.736418368980698 2.835409908497044 5.124271094989939 0.9388912840686667 1.7179964770832155 -0.8224797033454416
Ni 8.947983080983038 8.603733505013038 4.490226155298292 -0.9728396159896535 2.4413935779021827 -0.49164557517014035
Ni 7.7944050317060825 5.876651708663086 0.323661676475588 -0.09114072197157852 -0.25428775907812984 -0.03523902570795221
Ni 3.093611221457084 2.9299556023407014 4.938752961754089 0.4628062823409449 -1.6800248829354487 1.165081256469316
Ni 8.002695714336937 2.5829928777231337 10.821934126415883 -0.3741759854960459 -1.5981727853546475 0.05158507116614342
Ni 1.5064569452510226 3.2643888557733276 7.341725600514704 2.072615880603572 -0.06727677086978735 0.17259506989332857
Ni 9.173061370870709 1.9083515093267769 13.05520308553325 -0.06150387294175215 1.0802600489578622 -0.16910736845504423
Ni 5.773241178439708 8.128800602518604 12.70094594772884 -0.7087595534114504 -0.8754135752299956 -0.5324209573152895
Ni 1.9970940796742513 2.3424552929373523 13.598659948557776 0.653799652235803 0.24827343456324982 -0.024039814558023113
Ni 9.406297948011131 5.2695375954950405 4.221579220045123 2.0873637283367086 -0.14893037928653707 1.7714342851873814
Ni 3.983260199518028 2.719705423464381 1.7098460610717092 0.47521828285205253 1.4874559410233543 -1.359267165159543
Ni 0.7779181253183628 5.504309739404745 13.517848627676921 0.0022486868248606435 0.3468202191909124 -1.2328835608252702
Ni 8.336563728467988 8.380379194995175 9.984997481488938 -0.10557875177377946 0.34464146637203874 0.2855544304018953
P 6.269483602603567 5.521314021727164 4.105014629208561 0.0022268324479897132 -0.3597515825405998 1.4880704346789018
P 3.115288148672534 5.075472101953855 7.807556266122757 0.3819152631218326 -0.14871466373130518 -0.22911923023230218
P 6.225065214154698 7.661168707669529 7.322188104055721 2.396066057609977 0.1367196961529581 1.8401940683605984
P 4.907991696896805 2.1681354923312304 13.28061015628134 -0.6035106741732639 -1.3447406894085938 1.4260065754686215
P 4.620294313049511 6.761863558206657 0.5118326661668362 -0.9829643631284812 2.5936473651349976 0.6048669310908422
P 6.991878271328093 8.989952099125077 3.625686049078869 0.5903893062999573 -2.721211362930617 -2.7907949275567097
P 2.0742963476145433 4.189092091187026 1.048617821301757 -0.0721801217086757 0.4193476969366778 0.8272925513530526
P 4.819258547204358 5.394794624724343 11.028092914814295 0.2932014054241918 -0.5240872406386136 0.7871943977805862
