# total energy = -340876.4297204309 ev
CRYSTAL
PRIMVEC
9.22782868598333 0.00000000000000 0.00000000000000

0.00000000000000 9.22782868598333 0.00000000000000

0.00000000000000 0.00000000000000 13.50586004515288

PRIMCOORD
 96 1
Ni 3.4485687645133303 4.412498519813635 4.262895115809388 -0.568726219504227 -0.8327399476208691 0.6933337057746833
Ni 7.569172607758558 9.203448749143693 7.733833982590585 -0.5954348391436648 -0.6493740123642816 -0.1794966821091683
Ni 7.811117047722742 7.745064250085012 0.8899594806615732 -1.575795446100712 0.28947767671570146 -0.7173465237495129
Ni 5.806601964339705 0.9084169835723004 11.133407590767295 3.032018911472346 1.486533172098769 -2.474153803052339
Ni 5.798702942996048 3.089504723037822 13.36583158670365 1.5350357476848466 -0.8098041647603021 -0.6013645743645386
Ni 6.7621805346914 6.578482149308014 5.126122499589607 -0.8277777185195871 -0.09565172246805463 -0.006025894479105751
Ni 1.9543526067193462 7.756755909013066 10.682621700635773 0.9052208883994153 -0.8406304061125394 -1.0169124379391519
Ni 0.14944376256821243 5.4726468446820595 1.4259486812748556 -0.4718244266791552 -0.7875399540454631 -0.08429695957686772
Ni 5.899267819868915 7.088338139120787 2.5895861819224604 -0.10689258548919656 0.9561423578396308 -0.6320072389510599
Ni 7.769887109214029 2.030269953207974 4.621610345361076 -0.2625443426599672 0.6368015750159098 -1.5776360988538765
Ni 3.608726958953178 3.9022272777105997 12.884536649415121 -0.46770037720845253 -0.032395642721886136 -0.38597503501350305
Ni 0.1960018493524259 0.28302027373406724 0.07420742983561454 0.16613980118628807 -0.05873865149178917 -0.021800126594226973
Ni 3.9651979805717157 8.047986181917054 1.3976137105530881 -0.8710421856351774 -0.35232058018385126 -0.3631660075387874
Ni 5.036142864986961 9.107119445631502 12.745196436460423 -0.8652176085336002 -1.1172872769144886 2.8700280994574245
Ni 3.519217020829963 4.230193536559796 9.110701688722166 0.31228156198409446 -1.4020279531658373 0.29822405544976377
Ni 1.2669993323911048 3.6972772028944543 7.372673378440685 0.9150422453652112 0.32047361087658355 0.2842357115904718
Ni 6.155164736785913 5.242264874044514 9.246571315313137 -0.9893676955516637 -1.2413036665681654 2.335324516755546
Ni 0.5568588579390005 8.152297557230952 8.367717526458913 -1.714552998619305 -0.06850447262930137 1.95744202894219
Ni 4.228606350028127 6.643732125851237 4.694839625357407 0.5598404869788229 0.30422012513219865 0.1591199182250292
Ni 8.227891929716042 2.7818027759534285 6.8173795602445395 -0.23972914453766456 1.5089480494588594 0.5406759982352302
Ni 8.128351341825825 1.0908308552044754 2.177604234141654 -0.3139365810890142 -1.0674556981043424 -0.23834460548531206
Ni 2.375612213447481 5.907083790754519 0.46519145347215546 0.7342211880176646 1.1165686535809094 0.5302139223616418
Ni 9.403618808707487 3.2521082920758815 9.540161144008682 -0.059733411304890675 0.5544866788660774 0.1216103513153454
Ni 2.0454958705175934 5.810311551466048 6.003908628666422 0.10603126593016579 -0.015246641746425354 0.01510188863844496
P 6.6150981734804795 -0.2892915060998958 3.512455790761625 1.2394840968609233 0.6717166417255399 -0.5985949820392014
P 7.013814194761705 2.033758072446178 8.363382292548573 -0.6597844090643281 -1.0685453316240952 0.37423614931001997
P 4.019116183505112 8.739408928689866 10.656326080050627 -0.014866889809503429 -0.10477811024935503 -0.3169422006845574
P 5.055715089601326 3.613608480320929 11.053006442326701 -0.9396782987463363 -0.2894753627228563 -0.54750587667287
P 2.506758114541 0.09164710324376554 2.6432321639100187 -1.025794313809814 -0.7656678365627201 -0.39278691572901386
P 5.920814799819194 8.017294423752329 6.538119626694515 0.8354334352926321 -0.10186170793350843 0.2586398653992385
P 7.801215587557153 3.9809960232590296 12.215699013318241 0.4678086206515427 1.272020636036048 0.8359733669565022
P 0.6089075027833494 7.1836154701643125 0.32428896912320576 0.33695978145706484 2.0550727295134865 -1.06891891291343
Ni 1.0646607330892754 5.046358071327415 3.622649906854241 0.5652066363867427 0.22679623852608036 0.25311353626437055
Ni 1.4149583373259125 2.8380463917122944 5.113926078433169 0.4772553678867394 0.9562966240293079 -0.30988632227904045
Ni 8.835978155747542 4.915249081548585 5.624894021600976 -0.5429593949527681 0.2968629134361791 -0.4369001039981444
Ni 5.626899228771509 4.975008500031673 3.370738489140894 0.6610267661118615 -1.3684416325699593 1.1622766971409855
Ni 1.3836114033254419 0.9453264526965517 11.06470271516909 0.2918765159651812 -0.07223360065443044 -1.0968218099712852
Ni 4.010866504671901 6.280847763305314 10.052424674322108 -0.06853301187439165 1.049126046557219 0.19351125122070542
Ni 8.535879939489284 5.520474680691609 9.838775525416398 -0.6923600290075044 1.1520976997254546 1.2098184514756904
Ni 2.141871313173146 7.65071892973741 4.189018042240249 0.10748856720198263 -0.7204508737064496 -2.434007569850756
Ni 3.0297914436980977 1.93850842488867 7.247406526994412 0.7668541435613373 -0.10437701815619443 -1.2261971499440303
Ni 2.724073479778291 0.00042909403327108395 8.635011734569312 0.025405841667614313 0.4722645995403673 1.605365446448345
Ni 7.855032284375153 8.87733728385767 5.306141749681268 0.3553557674657493 -0.44179831263071007 -0.2652789679823109
Ni 5.891027368864376 7.3442719673524754 8.618251229351456 -0.1427283642408832 0.6841502395032024 -0.4284350039499267
Ni 3.744754381414448 1.7621738467859356 11.34189746066221 -0.3396584113351505 -0.1454640180044914 0.4185815081946146
Ni 6.00068165697965 1.503074873319581 6.220839193448071 -0.2212645100745738 -0.40104401353148356 0.831791981885303
Ni 2.458838000244726 8.874218277766365 12.748356967780753 -0.04783331743319504 0.22304911277882233 0.6442762861264
Ni 1.481574032512664 1.7839884337677172 1.6258086857952523 -1.7037281400896593 -0.8978780748810987 0.33780721705902467
Ni 8.749042781823952 2.940336872546917 0.7413379176280801 -0.809950203419863 0.10853629174020664 -1.386230324011948
Ni 3.697018823691624 1.4764525875994285 0.7526613861921005 0.07451854003386521 -0.1083894817496972 -0.6769825181101695
Ni 4.50163934478995 8.95248872056648 3.6793207710806435 -0.8352367459007938 -0.03236941746964103 -0.14024827813150686
Ni 7.0910049816071385 3.175775693296991 10.198220676216081 -0.8334871101995387 0.2667745786912309 0.8653227666528968
Ni 0.5682413846065248 1.0152272548907122 3.809449765454454 1.2449350926731655 -0.911612907968688 -0.25551803194080513
Ni 7.965923101532542 6.066429936271188 3.2163799850217094 0.029406221076259034 -1.0633984973158332 -1.2338700931082556
Ni 5.127627558446091 0.352042586638606 8.598478760854897 0.274166757390244 0.8016555675112387 0.2324963742346512
Ni 5.868529922560828 0.5528936599584288 1.5694211159090956 0.23009522099232632 0.20695606387170165 -0.5060244695996317
P 7.37263831269173 0.8509820551318155 13.183839426841807 -0.8125087081756588 -0.07170498184447006 0.4097240578039847
P 4.949096757119302 2.9599921476193343 1.8052742661665646 -1.1896034099803963 -0.12529602769704873 1.2251514822883351
P 9.14225901721637 7.0574710522112865 4.6186666680145505 1.1475440189165012 0.015677044415624612 1.1313599529574707
P 2.022758500668562 5.6149584184693 11.275624117919207 0.17774653218728098 -0.07001499573655684 0.5567736751280411
P 3.973761405579792 1.0590502132563977 5.265327063462816 -0.39491630336719086 1.525504925376276 0.5184706657827846
P 7.678282453982156 7.751080794379481 9.684066363807661 1.604407967631082 0.4050109685990315 -0.16213299401974013
P 3.4524998195278136 4.093335609518001 6.703336516812626 -0.41049693141426724 -0.13408277275074326 -0.7246232599165843
P 6.6557836700975175 3.926219632259091 5.122475661698235 -0.08306591538324404 0.12933111699837083 -0.15269498853529184
Ni 8.194551784722314 6.868540487970595 7.059526089656652 0.26104230419314395 0.6503206925482671 0.029146796767285287
Ni 3.8360637461288007 8.545938272742305 6.590116595698298 0.5015756897996588 0.027907782153861617 -0.6814271841450845
Ni 5.319271104316496 2.2580219926738585 3.9712763513182887 1.4063872585757973 0.7715960291216969 0.5727695363356652
Ni 4.245982351418436 6.017282520761471 7.4299652755367465 -0.7460703740467668 0.3793472452843402 -0.004290142734921644
Ni 0.04962818538355305 8.202579995667385 2.5730286889354006 1.2864324405860037 -0.6401992878435491 0.6070343710558062
Ni 3.245648812005134 2.0293840816554147 3.17975196467197 -0.5066291930631661 0.08809113651197731 0.9234278983257451
Ni 8.76126965481501 2.098989593332055 11.76380670652889 -0.44985306461438657 0.46421447554238116 1.2859583291630627
Ni 0.9269353901522662 4.352166975952853 12.938938390570955 0.06510855957387497 -0.07585551367773387 -0.7809941825071454
Ni 2.07986030449397 3.3674653783107593 11.09129547183749 -0.6446904908456832 0.8699445816956243 -1.1056162683344635
Ni 4.645288953734702 5.053841840380809 1.1948109514690326 -0.7085127275079669 0.948649134786379 0.22174530636573425
Ni 2.4443872205435966 3.8612834018907334 1.770415220573342 0.4820283637953505 1.0854084259280208 0.22412511945182045
Ni 5.255423757731494 3.212059515637247 7.98321974359627 0.16539212438698614 -0.09402395705664453 -0.4781359707194797
Ni 6.97257502842432 5.403327395694267 0.7705116979761776 0.7358080728888102 -0.7156012589236321 0.8031023272600943
Ni 6.676481689809926 7.553808273018852 11.614310345337243 -0.5057943558666966 0.5391258801392909 0.02964250545678121
Ni 1.3582625579620942 8.555719771135152 5.987958326806012 -1.6967229124164196 0.8226414257342866 1.4911570440240254
Ni 8.505455788356064 6.145549339309172 12.250584819614614 -0.03533852740029398 -1.1854703616486295 0.8911731520570975
Ni 7.997288491190358 0.8067752190933541 9.905211277944037 -0.03949497277082875 -0.5232400621469698 0.9781520293415025
Ni 5.793240068421931 5.326044330562109 12.208027919342795 0.07519319750338664 -0.432882498198319 -0.878717442792248
Ni 1.6356418600286644 5.546220322687874 9.085338078832942 -0.4511244751276425 1.2438099779297869 -0.2796637759490732
Ni 6.5569997641584425 5.0894612590566455 7.110078903473188 0.5624555560041669 -0.8696710163192636 -1.9314810861020542
Ni 3.9215872622654975 7.018991006646976 12.36077893570723 -0.6118618743514365 -0.6910924751489904 -0.43129149956211527
Ni 7.0060443630194635 3.106437788651853 2.455892477332465 -0.06478640034776585 1.2381746340208806 -0.1888804373169134
Ni 9.112000966999254 8.258113068618469 11.504008263649158 -0.6184366993554768 0.4849439947802487 -0.2829748426001772
Ni 0.46267594737603296 1.3453251421632544 8.347175457051069 1.0356380393731133 -0.9075657344825079 -1.6763831724178033
P -0.04542490942323092 3.3505507683540734 2.794646067899809 0.9337537057317855 -0.5240327332515943 0.769736607315455
P 0.1443500011409944 1.2476854869795697 5.9371757400555305 1.108106638856485 -0.9627495787435031 0.7206961569480362
P 8.769777712851052 4.907331604547583 7.885828317003875 0.07416527045950454 -0.6565545892731208 -0.7767613753727203
P 2.353908360409769 2.217041205539302 9.255512158513918 -0.7677956815390002 -0.027773056348210232 0.5998414528517928
P 3.141309753205217 6.0616130097041445 2.7620026239708526 0.15707717676338753 -0.4606262439704905 -0.5055940669304325
P 1.9295389754190033 2.266188621049018 13.05574978260462 -0.4019876083916754 -0.46914250897161786 -0.7104436259820927
P 5.615484404703632 7.079359461822448 0.1685222983485988 0.9465320884433763 0.0685929185780496 0.6254815220174001
P 2.2986428944901878 7.36354890144932 7.666047275945293 0.9723253953573965 -1.7689331160320827 -0.27141130613229386
