# total energy = -340882.5366767523 ev
CRYSTAL
PRIMVEC
9.11420952429989 0.00000000000000 0.00000000000000
0.00000000000000 9.11420952429989 0.00000000000000
0.00000000000000 0.00000000000000 13.33956691723350
PRIMCOORD
 96 1
Ni 6.729321689476389 1.9095545024385423 11.417895298376731 0.3003529288673085 1.1510918841687594 -0.7163918731457275
Ni 5.168513301766735 1.035255721662928 6.085136648912253 -1.0602067298514126 -1.624458972744686 0.5923785688158443
Ni 2.816482153450656 2.0784499198554625 5.083255339828101 -0.44726627772381683 -0.7031918295156857 0.9819078968395089
Ni 3.4803611780391006 4.701045493266717 4.9276757825831154 -1.2171851762534072 -0.8495752740106529 0.28383976170363373
Ni 3.432730318861462 2.7136100701100494 2.900555268146066 -0.9468367641679888 0.4731014936193659 0.4016016858071664
Ni 4.8793923460007464 4.594637096615562 2.899314824224505 0.7396050780373972 -0.32147248445474313 -0.5813462222610827
Ni 5.8598716681884335 3.274626125567451 13.082487190383317 0.5343415713767701 0.3988099819946422 1.8843957025784774
Ni 5.443771544786994 8.386439929641096 12.006784429520518 0.38703741483974635 -0.772847899250927 0.8641295176757441
Ni 2.473614703890075 5.549715116750422 11.722798419422475 0.1323835306714494 -1.0692819526798034 -1.4394416179276048
Ni 0.41549493988643854 8.63491151075491 0.04910462686401927 1.8419087370588603 0.4820746436522537 -0.39664871267726526
Ni 8.111755881823324 0.12482912559947552 6.8277906981769805 -0.24667215151440097 -0.3826765667678893 1.5354216702693557
Ni 8.264254836235924 2.705060941539704 0.9957802572025014 -0.6153526611135144 -0.18203487514998973 -1.140569644481197
Ni 0.9927561624694091 0.3188597101499764 4.330276713970104 -0.4546764541449589 1.5548869780828187 0.4595162987357635
Ni 2.227057106784548 6.72079078932517 0.26438772527414856 -0.3289793343547495 1.5351069672424142 2.6395562118519704
Ni 7.753749730178155 4.097055939718507 3.934958811214828 -0.17080429654149293 -0.24366833169107066 0.32747292501255215
Ni 7.696093240480921 4.7839756860828935 12.888369109421008 0.9863119394444755 0.08907664035369821 -0.09055656733333436
Ni 8.352161387473645 7.285516328074822 9.354438253252845 0.01815867318689776 0.3639550790989861 -0.15911400468775824
Ni 6.977237303806843 0.716938306981966 -0.014165304503231202 1.5367799840694631 -0.6542328831184798 1.5427380014251109
Ni 1.8144203830171504 6.894662565163634 9.220895943310882 0.6351355001673965 -0.3973801915266511 -1.8859093110095262
Ni 0.37099025458900065 4.616629684291728 1.7124934432082546 -1.3419068195042243 0.8136675043704503 -0.8347060702083043
Ni 6.829550652043649 2.2641701681261757 7.1694705662314675 0.22185766357388242 0.9324239311767685 -0.549289450935854
Ni 4.0828013159615555 4.789143442905266 0.575056495289616 -0.4785380912539049 0.3030980957126135 -0.5695692842308127
Ni 5.883978752483277 5.631743002819834 4.889591146502043 0.5151742544196999 1.0729046370340554 0.7555932259355375
Ni 5.606423728653075 3.124578893527369 9.603954322782608 0.3997335222501761 1.143229193591231 0.8563365039938865
P 0.38690639874933563 6.136497042643183 12.74850427230501 -0.7742074986026151 -0.6085279248821971 -0.21559934136899644
P 4.1534273258673196 6.662614789682831 12.623885684946446 0.3467847379672866 0.14798215644065482 0.1416191903371045
P 2.524508450091364 9.126878314560992 1.510852493672425 0.7676555564167102 -0.8193498994672083 0.45667908639728444
P 6.527514861326508 8.058765867422483 5.87555904568873 0.7760635779747473 0.3780516664013683 -1.0026109337148152
P 4.95607019105652 1.2664558756543485 12.780345674835244 0.72354699613327 0.39300905904214894 -1.603054024706349
P 3.9984310780343835 6.6848716894363305 8.321355359149798 -0.6271709939046812 0.17024739559675842 -0.9877826104527312
P 4.65590281329985 1.456979312364904 3.98925124616226 2.2599374580737983 -0.97300853746735 -0.2231074768205835
P -0.13810123756550646 6.076288574268234 3.414355160960957 1.368645006830017 -0.9234937185666742 -1.1569542564868074
Ni 1.13083643735292 7.863147587566061 2.5579822075543786 0.7951414205418048 -1.3036143516819292 -0.6766148503581056
Ni 1.762897756355996 7.04829168156208 4.777366061307611 2.1929856746435976 -0.22008231684101454 -0.23074211054770583
Ni 5.982676527843907 5.754137723044961 9.246854123568028 0.8244136871433607 2.32613076607142 1.2709739399390885
Ni 0.11240554654378486 2.6008855262315502 10.205835759658834 -0.38210912430019356 -0.15989664849005367 1.6419514731024945
Ni 2.454648033788914 5.717589742696256 6.835914193160722 -0.6972584947503863 0.23611854436827076 1.3003215398632704
Ni 0.7485308915911221 0.14023487402426751 9.264048991330089 -1.058781824479428 -0.521145127291154 -0.046844985377996744
Ni 2.1823974799245347 2.0421753657936557 11.851484678509125 -0.5698752455070056 -3.161120428958414 0.35841486600704725
Ni 4.221856811268336 7.04095474286365 1.8003480434514645 -0.20398129751409388 0.841823655089692 -0.28261231705443585
Ni 5.6529973395213755 8.22430725572012 7.922515725819276 0.6108789416128769 0.7328217365669766 1.125686042501145
Ni 7.322611160997323 1.0003118421973582 4.896260925060443 -0.9725521666562219 -0.40936847423677886 -1.6394752436478606
Ni 0.8344149997267531 7.792175237696893 6.927276852664833 0.2512055206083803 -1.5289103515133993 0.37117088012113497
Ni 4.900382370624953 4.899908431727662 7.335628075095582 0.383637645129578 0.18562850603851902 -0.973744130081794
Ni 0.9130615140481932 7.561002426334162 11.182639321129656 0.08260414525547709 0.23544774355349124 1.052443026745594
Ni 4.65564761543208 0.8964034732294083 10.487100266781287 -0.8750510496842543 0.3358009852622733 -1.0342018211472188
Ni 8.604779933938746 7.640204907438961 4.765680733226545 -2.317978312167614 1.0431747140697905 0.7118816439801998
Ni 7.207298181602856 6.48961797796244 7.419053169491044 1.1657060345375085 -0.6053942643492219 -2.313288105780797
Ni 2.314015780227688 5.543253142170065 2.585875334501804 0.9804500813470597 0.2940125884715775 0.770850409204924
Ni 3.9555031509913907 5.009534144354651 9.709430335795439 -2.4088182150693225 -1.366469339334937 0.03815517091348268
Ni 1.0884918197219766 3.6106123469077644 3.8234801797836275 0.9569933929860164 -0.09641636854822104 -0.7917372799562623
Ni 1.2069127445775185 1.6745081520114224 1.3957454954140875 0.6103552078989231 0.23374670170198453 0.6715142959067466
Ni 0.9888279381476406 3.8976826055220184 8.360293085245992 0.9361129499925812 -0.7374070419448139 -0.8782397318248811
Ni 5.294881817361447 3.2822364905527803 5.285176095597523 0.8269655070309371 -0.515312322659461 -0.1922642661874818
Ni 4.504616048759164 7.3228845872842205 6.100317276360833 -1.5809993588991547 0.036412220080446964 -1.1194626872992528
Ni 8.349500038281171 7.159758464520849 1.1120821283345832 -0.04936440936574079 -2.3653879117998295 0.05771586665422963
P 0.28775929285723684 5.863462666756361 7.989426783907052 -0.4409894435761695 1.1247277923529337 -0.2507697186225423
P 8.782406764117276 1.951844434812106 8.245573440894093 0.1975067455333437 -0.06482213868170772 -1.3119573243299856
P 2.1954216853904445 3.690352566376797 10.545487716085495 -1.2786844212094688 0.8669934694871004 -1.3503492938446229
P 4.0225655049579165 6.394028148062883 3.8602569267923705 -0.10787731799996904 1.813212140455116 -0.10263406732315872
P 7.470179328036195 4.553486440437408 10.66662467539089 -1.7415380118485815 -0.6045738253304556 0.8458134929753756
P 6.2912016357700935 8.175938145567857 9.990601877980348 0.5043373117051959 0.22325942901741552 0.14044625307492586
P 2.618521521736474 8.966358855732716 5.833379395250882 0.25295207098584177 -0.9535565993903254 -0.693540936689483
P 6.7904598072267905 4.11201235761183 1.7628366911519222 -0.7980588512989159 0.8990070462792195 -0.8105508131183395
Ni 3.743716263369731 2.3649824401054835 0.696654633598913 -0.7294057689068922 -1.0041463965227353 -1.296092332273271
Ni 1.2484006265095147 0.9482332487528446 7.008941993193628 0.25710157437784115 2.510908751184185 -0.0482745187356717
Ni 7.101928804841913 1.093367921838325 9.252590607067148 -0.7384226276935217 -0.7361394880862999 -0.3981420093933401
Ni 2.3909397089416706 1.8395391445735172 9.175900913538943 0.9387244194734994 0.31521493358080555 0.6337987836338439
Ni 6.775138820950938 2.1274023394197754 2.727434503175614 -2.6577251694515134 -0.5810322905650896 0.20540903109955594
Ni 3.7404260337173914 7.357226928918615 10.410091575918365 1.2129302576317949 1.0975062376328195 0.9809177650120977
Ni 7.224022756151451 6.900523001912816 11.474549225022004 1.2464692699295048 -1.2406068976114568 0.5511133915184702
Ni 7.47194748469147 4.193721246346527 8.531413281217306 2.198025293950034 -0.662706982027762 -0.48828540044865587
Ni 3.172893318422253 8.921152376298906 12.821938370177216 0.03667472971321426 -0.08506777630462124 -0.5467152624507745
Ni 0.3313243031487018 5.187315916095758 10.401660932072344 0.5328148503195985 0.2682946148801831 0.23739895374259115
Ni 8.964408414886176 2.497749130813609 5.525582512668801 0.14455050505128655 0.18246090694381478 1.0610850186913083
Ni 4.007463259711582 3.3602905812526074 11.581692226963957 1.384124590522855 -0.015173108196012577 0.1980127386354848
Ni 0.8593934024558457 3.744436285925229 12.599701129870315 -0.30553781550235765 0.8157590967921564 0.7900804610791297
Ni 3.407584214676405 8.980358281621895 7.867756643342205 -0.5881347059378258 0.13675003517026124 0.6453911164571337
Ni 5.927927470997356 8.089890893081042 3.396907829593993 -0.865073112535936 0.8899192250453384 2.3577077695467525
Ni 3.2783538372788277 8.698474008249141 3.635418491076111 0.9625438904906003 0.14881416542364695 0.17838365155064762
Ni 3.3148562465797164 3.221153058059757 7.38274307001194 -0.6997200689170014 0.1944936697386328 -0.621042255299124
Ni 5.523265680597818 5.202536646066415 11.587188095330609 -0.323173783416566 -0.41380362718999697 0.04757132202106001
Ni 8.256024705000293 8.905977217376066 2.6910441986523543 -1.3828840332475345 1.9373992513587022 -0.0682933850597598
Ni 5.078309969719071 0.5379680423138092 1.6187829633206452 -1.7414436523625618 0.7615571568284563 0.8173076722261988
Ni 6.060293136484697 6.242732269312635 0.4223451797941908 -0.11466914411082188 0.16737264515212466 -0.2849857023826189
Ni 8.084440595762208 -0.018170088185331182 11.101734305678438 0.8461371948633816 0.48963574382896324 0.9684427724735385
Ni 0.17747188861595548 5.447244058630599 5.478400072601675 -0.5317969505780454 -0.9018686840977307 1.5449846313674425
Ni 6.932021710163471 6.073399369836677 2.7544070949571497 -0.05049055255038402 -0.3220687232778453 -0.4868743790337421
P 8.79120197634583 2.00668463375429 3.1590096429945267 1.0006201285370315 -0.663021170834071 1.1774521193298433
P 2.315373797452615 3.7363428678330473 1.30977115660378 -1.6524351462426379 1.4474565178122814 -0.13273320070138434
P 4.7291263729311455 1.9031472131155647 8.243105312944362 -0.34258766916680355 -2.0798141981242244 -0.9102185987243228
P 9.275895640920426 1.4720268723538597 12.745555825511293 -1.2643908874049323 1.3177572188412143 -1.589775819540204
P 6.473677225436283 8.153444276365711 1.3511514908629296 0.8366459675434947 -1.051045375067119 -0.23820036659796395
P 1.634132203646145 3.779279909085603 5.96420020221725 0.4459863825701287 -0.0755480097396441 0.36593380009191173
P 6.91989069723476 4.441928515383006 6.426509368104458 0.2441660972630956 -0.6831547083591525 -1.186660011081356
P 2.4373674924569584 9.178100172306559 10.61041187648848 -0.169564767707437 0.14153922902878852 -0.2935410481517977
