# total energy = -340891.2240890138 ev
CRYSTAL
PRIMVEC
9.06622803125823 0.00000000000000 0.00000000000000
0.00000000000000 9.06622803125823 0.00000000000000
0.00000000000000 0.00000000000000 13.26934115211768
PRIMCOORD
 96 1
Ni 6.471328492056998 1.9505808233430266 11.466807431432938 -0.1537681669948126 0.2579433535528461 0.10194552589656637
Ni 4.320574420537875 0.4418807000998404 6.35789819358761 0.769054750757082 0.25703189748217026 -0.10131791961489646
Ni 2.7420443959358445 1.5383757007571135 4.921598247343376 -0.6238365302148094 -0.24686884090623934 -0.8481251718276878
Ni 3.481857667570321 4.400239366039182 4.62567928504919 0.32259348543306376 0.008615252472836777 0.2537280299199179
Ni 5.262147530249749 4.203465953365873 2.7631542012283496 -0.7377554264231682 1.0030457072593888 0.7394950348220942
Ni 6.9758640806706005 6.316359456725959 2.5255800426531936 0.6575475493140096 -0.5500201584542914 -0.013810680630847184
Ni 5.175320264622569 4.049630196535763 11.827401237840943 2.1754188694044276 1.7402486036131966 -1.094630458746921
Ni 5.496545789153901 7.829839295374664 12.554442007458547 0.08572392183138139 0.11273773141606391 0.1264406828244532
Ni 1.9194745950495267 6.583142282072659 0.14875685590034635 -0.34873980481112843 -0.7327541165538348 0.1771109554858111
Ni 2.7824435079369625 1.64950045744421 0.32654105401208844 -0.1035717486460797 -0.7711599700255428 0.3851610237526399
Ni 0.6647122653121109 9.030679327415076 4.514336032267115 -0.16661674082270658 -0.07504767306445785 0.4744330679465958
Ni 8.659798072087039 2.3650706353868127 1.3602669316827054 -1.058987769842647 -0.7089554714723403 0.949200893524791
Ni 7.02243729394478 1.1683104059497453 4.878526411325667 -1.436870771876635 -1.4127196285517285 0.012505331555862335
Ni 0.6804231318261902 7.48553115433641 2.483688629522052 0.7016465965157529 -1.1663351834810753 -0.31518819410792814
Ni 7.517652800166742 3.9118597957348236 3.895958538432588 1.145707994149027 0.02623373688554837 -0.009023800765165103
Ni 7.6984515190909555 3.7647965112262654 12.847416258895919 -0.03046911512313462 0.23457279714770568 -1.7560421190020274
Ni 8.262515960801359 8.8743231591989 6.67788889786433 -0.93855369822359 0.12840474852935949 0.034697037161553146
Ni 6.876969665565531 0.866766755799749 0.2914547516233257 -1.4986127289711222 -0.5535430840058854 1.3294647370861297
Ni 1.8281686127866767 6.258353729934408 9.199554143263914 0.5233825012621051 0.767585108190091 -0.2608615556409056
Ni 0.0031713665569997897 4.928709796592406 1.2507351112565146 0.21741042643580624 0.4006812308754261 1.4561471036077438
Ni 6.562779533967967 1.7994649349151464 7.044865328789566 -0.29858041034791805 0.6677967378458434 1.3450435653609931
Ni 3.1394625006416357 4.334554544125336 0.49173679453551083 0.36772097389932157 -0.6936777193776634 0.22765575831289825
Ni 6.011761394360258 5.920890591041765 4.8115297062191456 0.6947020468771197 -1.266507933747935 -0.4260973569556855
Ni 5.717127116574727 3.042118410525836 9.452256209892271 -0.9400840188251873 -0.36071883154987555 -0.8602461234609379
P 0.09447372232864668 5.728822550704313 12.536236114996825 0.18789416214424412 -0.6730613286788925 -1.0513590496527958
P 4.107907910167538 5.774951518806129 12.541902507501469 -0.7196587168224574 1.9857971830461154 -0.8298227739740741
P 2.3980263741938286 8.414783260186184 1.099941073922898 -0.3899761857530961 1.7977173872536263 1.3161245683337979
P 6.325035836929072 8.001399527959302 5.759438296062611 0.9664871914090645 0.05342263859551444 1.3058944059653574
P 4.704239057356392 1.0605764185374282 12.530650411921446 0.2819564286379918 0.5495270208679567 0.16844170984658732
P 3.943310540692606 6.098298540691199 8.298261377966261 0.43452851844217427 0.3919122264335444 -0.6428608938361122
P 4.62791048376182 1.3642859905584002 3.9509198258592435 1.5109236851279915 -0.5720781666955954 -0.05307888210285052
P 0.23587514744656324 5.6001727752788515 3.6980192088375237 -0.10876280592871591 -0.3563297013432444 -0.8997241269509022
Ni 1.5413312910875363 0.9932868742662663 2.4824810079514625 -0.6629661492264195 0.1936961135380019 -0.4619485623263399
Ni 1.8814599010143633 6.327257062790892 5.025683077982702 0.03826701390099861 0.5617626437022003 -1.903284311952864
Ni 6.080800720636855 5.664742451147783 9.036156235754365 -1.3482998675147617 -0.05309173761865695 1.5932326677405528
Ni 8.659526085246815 2.216375429836917 10.299702833808183 0.7341846783527742 1.0376123894906648 -0.015467499507979815
Ni 2.522433154911814 5.0891910985519635 6.900720463076601 0.22641957191295198 0.47021877275493207 1.3429784553018482
Ni 0.2628752810754971 -0.12835693626082312 9.207993894916033 1.4888636200041585 1.2315324461140147 -0.2733985117656518
Ni 1.4361449137453077 0.9428514478609209 11.49629171153591 -0.4903803353044716 0.7148047311642658 -0.7133114344481909
Ni 4.066312056069439 7.069826467739628 1.437693425488977 1.073043733715081 -0.6342160736769206 -0.9395250609979238
Ni 5.557869755396172 7.843991677294265 7.840707889509973 0.35382313287130673 0.3297498939721869 0.5654105248674327
Ni 5.528567706476151 3.1140226648527807 5.209185346098731 -0.8426903739653616 -0.39145791250494516 -0.6477292776720069
Ni 1.0133685693027286 7.460925411524239 7.029552469685013 0.19518606781996706 0.19918361901513437 0.37538851774690835
Ni 5.06304409697853 4.834348495491051 6.835475353221114 0.02919384795513682 -0.007073104796697496 0.5381496322689505
Ni 8.281491576020915 6.991485191527406 9.303732356051716 -1.0780612415343303 -0.5661193780089993 0.2445790164307981
Ni 4.762018128447758 0.28380285518505294 10.313966730332275 -0.16482056815423227 -0.6075416497095278 1.2909966629179186
Ni 8.131037522237577 7.2314863793401525 4.512876369557918 -0.18201816297944134 0.4386582243398317 0.703530186691711
Ni 7.394596887421865 6.197537472460552 7.2649380408191755 0.017997979239317393 0.24439415411350168 -2.7945963035806707
Ni 2.270790930337525 5.312465095690997 2.4933088040607383 -0.49045232619298756 0.24798778500203095 0.6271712510149974
Ni 2.232404520954057 5.189935024170551 11.325807640215752 0.02501580531804724 0.5257620572378752 1.228834330456561
Ni 1.2029887280781735 3.395882627375841 3.7931339134862956 -0.9517388294552964 -0.3168676386928801 -0.2802044789438916
Ni 3.3763177073358026 2.62127317264884 2.7205601554266323 0.30117722454081675 0.8487486643442996 -0.9463050600342346
Ni 1.008364011442626 3.233615278498819 8.179023253835314 0.7160712565815152 0.42596417381193097 0.14950579217403281
Ni 3.545357528534376 2.7055074970658928 7.2580241353407065 0.9765255494816731 0.35830533701237643 0.21857307928533973
Ni 4.243901330279021 7.092492037758209 5.719470736514648 -1.2026139633074515 -0.024882107953660373 0.2491751204419128
Ni 0.519678909254417 7.43204040909256 11.23069293556698 0.6753282703361982 -0.5542696777592648 0.6719812082408362
P 0.2968627566297591 5.574062038617447 7.797038589066574 0.45226578782093724 -0.6735691215532464 1.3869887994445274
P 8.572979872687867 1.6159644800447184 7.987466548757482 0.031149429019610868 -0.6928400539677164 0.6630394256665162
P 1.8166817019012602 3.229054965811081 10.318624051659693 -0.7359952491989519 -0.3848311512170469 -0.6847629333865368
P 4.150800234870699 6.164971581457856 3.4179434799863255 0.2955444517350716 -0.1704271157077323 1.187179373919936
P 7.1849947621180394 4.168651637817334 10.55727346487653 -1.0752543682131546 -1.866074535671786 -0.28462163417498076
P 6.2542829935590705 7.663528408806327 10.199717751473818 0.6911112442020678 0.00261018392933744 -0.011208210010993602
P 2.402142441709203 8.368971610064628 5.537176996592009 0.9526759965575852 1.0295416966673883 1.2706227272472568
P 7.042364863105116 3.9676805615765836 1.6137505071653035 -0.6954091002464733 0.11553971964123327 0.7086551666231022
Ni 5.27061538720869 2.949461560289879 0.5837272770129218 -0.2268821133716673 -1.047338101418861 0.29098022940315693
Ni 1.6642149455002726 1.0206850153047264 7.099110384203634 -0.4254309270162802 -0.7825270742119039 -0.09972255010331858
Ni 6.965691772846261 0.6792309228432127 9.321287293342506 -0.1995518009878305 -0.47427211688869936 -0.495577820345011
Ni 2.788708271490098 1.3632433743375454 9.372932154564044 -0.8306298432564018 0.9187304928500759 0.03347216361551655
Ni 6.351137507362469 1.8851498558133883 2.599039155083413 0.6237018044091581 0.38824891864934424 0.39645536571953655
Ni 4.045523195248396 6.931920073518577 10.47549427500389 0.32995583933540595 -0.9430700980367047 -0.20732861671977196
Ni 7.845813989123759 7.232257008720784 0.1798803100270604 0.051793073411891453 -0.19812818116742653 0.5523408361676682
Ni 7.724489725928301 3.89192316034648 8.425182223710708 0.40537503680666953 -0.2019889496744134 -1.3015052757587264
Ni 3.1659449526513455 8.4573763993651 12.212185553818378 0.07345127511161545 0.03607000624967981 0.8456389150707243
Ni 0.11248469088821152 4.858238006290636 10.199014212180442 0.2681233794096414 -0.24074421606574026 0.5240070222199814
Ni 8.937224649114464 2.382233005004882 5.934367538974814 -0.8264363740003444 -1.068601124562695 -0.6030365627503227
Ni 3.4559282554690647 2.8687811972517396 11.625587909018304 -0.8829669620972214 -2.2393953722563884 -0.2694176727410328
Ni 1.2419100449140799 3.2279126210821443 12.588411350556795 -1.690701388812688 0.35231543797752873 -0.1937259383346728
Ni 3.139607560289755 8.267185068225185 8.226818594644895 0.00528593098928767 -0.42883172516771306 -0.07043177155900128
Ni 5.626292578168264 8.22508150535867 3.7772770807012965 -0.44110925698348546 0.6347135821386294 -1.2829090008137776
Ni 3.1296437757095865 8.287212365893604 3.277885669859111 -0.614538135632019 -0.0843182997331064 1.3221671749834518
Ni 3.665693572877024 4.320057645541452 9.560374605372104 -0.07253776215841055 -0.0645925391694049 -0.5755478704117507
Ni 6.797286587608208 5.893836966667587 11.566525966663884 0.7444276962370212 1.661906318957867 0.2332705333965144
Ni 0.482651527449263 8.952818561287248 0.17460739181793783 -0.037175837719348875 -0.11279583834750898 0.7893878058874791
Ni 4.54020379401792 0.5905332943781012 1.6294486809601725 0.17125038293997602 -0.8096666107411734 -0.21272407670373045
Ni 5.818832062362101 5.516709080242429 0.543815021455803 0.3354487441291771 -0.029815540699535743 0.05353576713461103
Ni 7.73335649691957 8.801412553563129 11.595957662644413 -0.20782226852673885 0.049360038490366596 -1.1144444081490548
Ni 0.37986044754659803 4.611872326416672 5.809490221023243 -2.1098182006854826 2.2728865620352985 -0.17743722847697826
Ni 7.99353910827686 8.974450581312981 2.4046302146744427 -0.08045238901979694 -0.08591804012005848 0.010114976946814838
P 8.568600884560277 1.55590071949548 3.60273224585661 1.063390784006349 1.735319541742695 -0.4078093572797751
P 1.4684388179077814 3.168311238161285 1.5691392256319325 2.978771107891799 0.5388479438875559 0.11060680111599015
P 4.812517018449155 1.2800244674573251 8.466291221364807 0.24834362567955295 -0.40558406749368214 -1.8008302218509953
P 8.538782060643832 1.6437071377474608 12.54374657827818 0.9699962330035874 0.03214650282555754 -1.6210003247721245
P 6.259713664135522 8.116921405230004 1.4872140694883726 -0.9389619894056023 -0.6703619274698585 -0.30838556936379796
P 1.9270992928037771 3.2466253156894846 5.952878963320389 1.0495135118036247 -1.2467582619248336 0.16934930926252126
P 7.164187768840982 4.212631909881387 6.167045934425956 -0.6994112794273311 -0.3140206561623882 -0.2213750675105091
P 2.2346620117279077 8.323885258183667 10.246850351016056 0.12459900163002412 0.5518754664954754 -0.6690465510925445
