# total energy = -340855.1320471625 ev
CRYSTAL
PRIMVEC
9.39621072647745 0.00000000000000 0.00000000000000
0.00000000000000 9.39621072647745 0.00000000000000
0.00000000000000 0.00000000000000 13.75230418173145
PRIMCOORD
 96 1
Ni 8.002846652334199 7.480811975847621 3.645612315838155 -0.5257702847679913 -0.33573953589671857 1.576181111574905
Ni 4.887251094009213 2.467858374512056 8.346053585571832 1.214784023011082 0.47245254718145724 -1.0863031698281485
Ni 4.939832289329759 5.579873976543774 11.241642507064547 -0.05569446534882666 3.756643714050827 2.3156545491304446
Ni 9.50896527240752 0.6108767886873098 13.251583128340348 0.3558874715995032 -2.0014896540807077 0.9450786438263014
Ni 7.518847836937251 -0.024816332194620063 2.531922678982216 -1.4408343845100733 0.2958961786475356 -1.1304371840328855
Ni 0.2261122945733884 5.008509193653897 11.08888173166018 -0.3700416516126982 -0.625663041900587 0.15898390686779715
Ni 4.116808794097103 1.7153910257522351 1.7972883985924564 0.45834798945927513 0.3479808151579169 -0.6033641212930705
Ni 1.197049060087847 5.896291373330655 0.8082160067219961 -0.3348499342029136 -1.5792430383296803 -1.357989841109016
Ni 2.11266281598681 6.1648256801687324 6.834056696057386 -0.013808109527685896 1.4827338529573366 -0.1682794732371102
Ni 6.034143181148334 9.36525962529665 8.505098546721443 -1.12959077687219 -1.2856125157878695 -0.14329169294352095
Ni -0.15215002170604078 1.3553940035370675 11.167132435110853 -0.14129343156656957 1.0148707249187747 -1.4851085238371002
Ni 6.481214888323382 5.1457220591410175 13.126683997032563 -0.6283012508543825 0.17512914916909192 0.12571151796791252
Ni 2.532992907385899 6.366590513463601 12.190592139439248 -0.6987080827127192 0.06061221436541819 -1.2405217940968183
Ni 1.9335616430052291 2.8133194587070514 7.28531065663436 -0.5877878641213683 -1.027764035941675 0.3810212905526535
Ni 6.175593737680767 0.675058545791763 0.4755356483802905 0.12939616590835135 -1.4074056725379827 -0.3932314594656002
Ni -0.20559848727821045 0.9986104853961724 3.6977471911483857 0.8352909961774969 -0.9161730165355447 -0.8541531231893225
Ni 8.256065135660394 2.2719473805103796 0.9116842605660376 -1.756037491016337 -2.204109552470901 1.5784981897438557
Ni 9.339062989743812 6.697092830154967 12.751246181702626 -0.11506895065240182 0.9825797260955529 0.08980606232055502
Ni 5.26493178484362 7.950002363112835 0.7634317870763947 -0.11044405028588077 0.07712306753624783 -0.9382202261435714
Ni 3.274175407042794 0.8228769143450569 7.775263850779455 -1.5142306380140373 -2.0137108787372484 1.446144226758761
Ni 2.2399532829288105 0.6352684121563242 11.640610313338321 0.22635066634822953 -0.2924465295360383 -0.7665803210746606
Ni 9.294374611447795 7.442606982964608 1.6743568338143586 -0.7918429522961911 1.06743127262431 0.5989536509302008
Ni 4.560403903297064 8.085420552347951 12.202721707888015 -0.35794049747379003 -0.15646114044594342 -0.8105202169907202
Ni 5.244137970468287 4.543293403533176 9.458600643201363 0.2122707912163957 -1.8415192149299253 -2.238920746612815
P 2.182138398224143 8.503908986441317 6.6515493966812915 -0.07506849900006426 -0.6542264553605766 -0.17327127002474677
P 7.937101365762031 7.886493374697617 8.632155987637004 -0.04679716285919682 1.059307615075911 -1.3703378211514077
P 3.6994103204499824 5.137810449695002 4.688091829953514 0.3105573802041361 -1.0195773863658248 -0.13846856052326476
P 3.2089093272185423 4.637255510968033 10.456880381979364 -0.5760577201686338 0.17088348651886054 1.219956054130325
P 6.485725069480256 1.929380329224378 2.28692588005657 -0.96111538557419 -0.16685816740955134 0.939709151984272
P 1.0040884762596245 1.032230127436364 1.4396601611057216 0.07045953947314317 0.2989956435084657 0.010091322797731008
P 7.332624336212108 8.418929656477232 5.42467864293577 -0.638737615696358 -0.23421541380828692 1.1547423364371534
P 0.15208048974653898 4.9195082854916 8.234178541975593 2.7182779913339052 -0.39685362959921977 -0.5421114451301761
Ni 2.7046334890371524 5.494575175414411 2.336805664788364 1.0234391833140761 0.6485692570747992 5.750726791254819
Ni 1.6371487788912296 2.347117066458265 13.235176404761148 0.5698389929524316 0.6349102715304679 1.3648827115741073
Ni 4.866598222795031 3.2420591587215597 3.613830572619389 0.10185116641054716 0.41474876471208566 -0.07363510898764737
Ni 2.253014015862256 1.1785103362909495 3.343968581203257 0.08990633534384515 0.6561259863761345 -1.8907866937064857
Ni 8.399695613085317 4.9145188975868095 0.5022584717347638 -0.5489912029691448 0.12868731276678483 1.3637647959195802
Ni 8.312536362228744 3.3475692091601603 9.68477119428136 0.5987032254822915 0.47534966622359426 0.5377254002473384
Ni 3.3278277703880974 6.5879558423693805 0.5922544386147953 2.099629175967623 1.4185809724285117 -1.3051940374642232
Ni 7.686861481241518 5.384695886980089 5.9879730204180674 -0.8914857982015099 -1.6244877691000927 -0.5133875948329222
Ni -0.20978168030121028 6.868564280012837 6.563603682985488 -0.04774615703602745 0.5884244692641029 1.0482382446356269
Ni 3.972482997077164 7.112311382909599 3.983973623195372 -0.6169860829518794 -0.18575500431405428 0.7891198969380732
Ni 7.694500600575973 0.8938906562810988 6.479013356146184 -0.9201304585213961 -0.4126610289451215 0.19174156091479236
Ni 4.844413769229662 8.68565989085256 5.900151336704078 0.45291422003821347 0.8567689635456148 0.1216237210517841
Ni 6.185271834746557 7.058799962725448 6.960343647691983 1.1281154778782443 -0.0017092693816228629 -0.4208996148048299
Ni 1.5030178705279713 3.3004002312278624 11.092223963821636 1.7205575529421724 -1.885962789955281 -0.9112233858397533
Ni 0.4499394306939611 6.326750579911221 4.376340591421848 0.7828582322990775 -0.40717095236482775 -0.6243378953312602
Ni 6.86593334100466 2.2794455566836813 4.974291012989344 -2.4339134674750533 1.1250548366750495 -1.833592246773365
Ni 1.66882340530752 1.045300256580553 5.489108460003851 -0.777512651716448 -0.12488130875713334 2.151439732881011
Ni 8.338300772087381 3.1492152003651777 7.260048004429425 0.448798398097627 0.4458560276398515 -0.6586965753167882
Ni 0.3070418577070307 3.1078436844616104 2.3000458091176994 -0.6587048028469042 0.3264282857981217 -0.8029133511777398
Ni 1.3007550380636983 4.38935528292265 5.830853342849797 -2.264315532536836 0.3300124036049542 -0.7562324021814331
Ni 6.201386336171636 5.392522930529412 4.122252958601879 -0.7825450719340329 -0.22423619110838802 0.32571711866371006
Ni 2.875146525399187 3.7451980554029882 1.1971853051436274 0.5461853580892335 -1.7155912100758326 -2.1716097800709826
Ni 6.555717443308481 6.509704199297631 2.0263060015277303 -0.45067247519188836 -0.6208777046968017 -1.785209741704919
Ni 5.7600745061823435 2.817369225537494 13.883913345397184 -0.15940351090371901 -0.13075936480446512 -1.637105200753787
P 1.8387350841819716 1.975168064177384 9.261998088088966 -0.29620111148246403 -1.1369233059778612 0.9192089751483911
P 4.322322715478623 8.058791691100913 9.750933672610541 2.6518687106707364 0.688652241138614 1.018590596972523
P 3.871887164857406 1.8704003143875185 12.59183007022865 -0.18503586675984263 -0.8203886251443677 1.0870426190973344
P 6.511498875549638 1.7081277548475207 9.752776269537339 -3.2948260208753966 0.3413566249731798 0.8788691378787639
P 5.703622072035481 4.888801468781888 7.417043652015881 -0.20247000307589 0.16024194764461436 -1.0277105569959204
P 5.4729075134399325 8.067050960344437 2.9098091468319054 1.8439345092396373 1.4871198978401743 0.7610570772635861
P 4.517463220199334 1.6393099073622315 6.406455816784988 1.0561472150700584 0.03453531477270826 -3.1066053286296693
P 8.330943539075232 5.533719789371772 2.4860456800271473 1.3723368538593075 -0.5400422213059731 1.756055488738466
Ni 4.310915715636032 3.9715903570565323 12.57719735123782 -2.052915316850852 0.006020752272783179 0.479545963693129
Ni 7.862166585082731 8.29411039296077 0.21257893223954594 -1.5208777110169098 0.011684635426779878 -1.3706566379434073
Ni 3.6452223730923006 8.887537478676352 2.2991512898549193 -1.0372118116181364 -0.40120496458938 -0.03191176110693214
Ni 6.270580032086663 3.138766614018422 11.168259980400073 -0.8755567856760792 -0.3137907995397693 1.6466095406997965
Ni 0.10563220117826616 9.164312262336466 7.030576564515241 1.0188327948903164 -0.5273635973970401 0.6324127019195948
Ni 5.919509410077808 6.765158980780776 9.314242899064896 0.3743454211943747 1.2091239965118272 0.48776423783786316
Ni 1.8032361999930828 8.353203162326551 4.26641902003918 -0.10768371393192423 0.9061796527682588 2.701613386194031
Ni 8.744696282953882 4.19799205492082 4.162904724762496 -0.31350309309602137 0.35436177898359617 0.30982667268569863
Ni 2.970940893929024 3.038114404534203 5.088999014124743 1.4488459419606403 -0.4822217107530792 0.28110333660907716
Ni 6.90757734701979 8.92737741222873 11.004951018815067 0.14647137622308323 0.4212310300023197 -0.07203536860069529
Ni 3.8912433589889868 2.2099511820248607 10.381944661678991 -0.6823463535252443 0.4773299298784166 0.8038489756181317
Ni 7.567435642691815 5.382807248620648 8.367411172591776 -0.17569504897489097 0.5460714582191886 1.0992232203239263
Ni 8.207373971587652 3.169567392835568 12.73302504982886 0.32309639321141126 2.0661719247504418 -3.3705262399221887
Ni 8.069099334286516 1.1832930075593837 8.79682646015874 3.158324611380831 -1.1511936998539465 -2.0118583989095415
Ni 7.29677779222571 5.155832381901009 11.006258031729487 0.0417292614179862 -1.1656168172578119 -2.153409197902556
Ni 4.484783199233491 0.9069025289186777 4.199156245431938 0.26286135967975377 0.20382574577283605 0.018922805046431925
Ni 6.278313113528553 4.072345924858929 1.8755804453704021 3.339751677743493 -0.19400207481419493 2.5470178382019166
Ni 1.671877173799153 6.119366812591749 9.64149318721794 -0.738368891637451 -1.1398222247922112 -0.5705969541643786
Ni 0.5382262268397526 9.338743518578534 9.434809437598856 -0.43369111014254347 0.16635088875582965 0.04369538400542152
Ni 2.403870179348919 8.930525142827799 0.1745881729614846 -0.18602702702851834 -0.08416789019817117 0.2174230248412965
Ni 2.8936852491960843 4.560995864573903 8.4136048238489 0.9588391879455035 -0.4638758612560398 -1.0309396054561795
Ni 2.370250537308727 8.186241893625553 9.71267512132629 -0.11404873691800359 0.7392962885477268 0.09354444631706471
Ni 8.772696990969468 6.850504762963857 10.337593607348666 -0.2929964885022373 3.115128792719648 -0.9398847583301878
Ni 3.9156641107113055 7.41935136137448 7.678448114141801 -0.185198617589952 0.22759430894734353 0.7150183898369686
P 7.1947443397622 6.937814353192326 11.973719138889928 -0.4753782054686844 2.2300265294469788 1.5066749371539665
P 1.8603087840490147 7.524335224011447 2.4769135028055533 0.948614682004018 -1.3334383770218972 -2.312916581373991
P 4.9732921957873115 5.100977303580539 0.847153904043001 -3.6055566934326033 1.6267472545582309 -0.8448189902725902
P 7.554243362807962 1.2485778798051224 12.55347473797374 -1.7649016262751864 -2.3727260973324555 0.037977764795353953
P 1.008485902887576 8.159866730068588 11.452409849872748 0.18413495221212803 -0.22131541791716725 0.44531018243871057
P 0.6189800808324918 4.369689013836535 13.074219314725237 2.280319107053944 -0.2503118051495173 0.10541445828177329
P 8.897788744597493 2.329283058467129 5.215863832720063 1.8410453606173003 0.6399370353210979 1.9671399729562447
P 2.0355950954687403 3.3612031109489586 3.190699470797667 2.616998381156112 1.120422737219677 0.9233821326894741
