# total energy = -381172.3642845778 ev
CRYSTAL
PRIMVEC
9.22326350946011 0.00000000000000 0.00000000000000
0.00000000000000 9.22326350946011 0.00000000000000
0.00000000000000 0.00000000000000 13.49917844785640
PRIMCOORD
 96 1
Ni 2.7948425171308244 0.0390061035017308 5.822060545522758 0.8456042051780469 0.134957976266845 0.19462453888954223
Ni 1.8131921404794773 9.215414463514891 3.4940055474862786 -0.3842403117105834 -0.3475707242036917 1.9230221567014236
Ni 2.7303257892230883 3.624189144255303 -0.03251845998346038 0.6090372604184479 -0.7543971487449073 -0.13962812804900468
Ni 7.84451469903078 6.8447682794695 6.5137859362234884 -1.5633520781310366 -1.223901411931318 -1.2144996590014439
Ni 3.1344707475449156 9.253976928044162 1.776923501572888 0.49863074823872183 0.13840479716486487 -1.6201009528863064
Ni 7.521848050120952 7.01885737729059 10.155661610491068 -0.5700189701737216 -0.6049420073031517 -1.5958323101469292
Ni 0.82949419933985 0.8219689386822486 11.937593344123126 -0.41681336055059826 1.1021740754221343 -0.33544643013633196
Ni 8.338853950734988 2.869919881701085 2.816616797508892 0.4456025168681487 0.49671861881767365 -0.6113445683953859
Ni 8.857496501658192 0.7196654227022888 5.26403189264324 1.2704154963324572 1.1107309638532097 -1.108958445333819
Ni 5.070525980584643 3.283361889591318 4.614761183652205 0.11958792156867791 -0.16028719906025296 1.2487377542487075
Ni 1.767638442246981 8.383789690315615 13.421827647686218 -0.48478047261919094 0.30330738350994213 -0.6188784148785859
Ni 4.303270363077732 3.0528356426540832 2.326232481176641 1.298991251087621 -0.6358687787889953 0.9026379581635874
Ni 7.494279715636861 7.595652604333634 2.0216637198294385 1.8250039908837214 2.0348420042889086 0.36006345735406375
Ni 6.378541534793567 4.348971633525599 2.987341248819511 -1.1573815738322133 -0.9926322252355486 -1.1507275588508052
Ni 2.674884752560701 6.165281237054799 13.568429575741671 0.9288249009716003 -0.5689630181053813 -0.7433378056069521
Ni 2.1853877141733706 6.643968610666166 4.503055472900387 0.8840758788906838 0.8868030480138598 0.06758453191819327
Ni 4.93046150167015 1.510484633698648 0.6054270038041574 -0.16678437674882246 -0.7003965261587357 -0.9511317919989168
Ni 6.403213764550993 8.553506961256323 0.07287577158218665 -1.9810247013581366 -0.6599469027841215 1.9866772716582237
Ni 0.408701250471423 4.586313872160306 7.799568813860346 0.11119712640182139 -0.8673277128980676 0.2677400279282937
Ni 0.23829039011846886 6.288992869853436 -0.18260770395341028 1.6156586008442368 0.28647359978205506 2.964611014341333
Ni 4.185369386259349 7.674954223568904 4.254009835260373 -0.2658824058942647 0.6477922696994586 -1.0012132820363402
Ni 7.839211322540866 9.148315221838155 7.100797772201972 -0.7684605688165088 -0.20188867665112326 1.4139851255277132
Ni 6.507657999980186 3.807667524279405 7.186207036500931 -1.470945602073157 1.0361108652444737 0.21755646509536725
Ni 5.672297805079317 6.580623237217941 1.687491972078709 -2.8577045448950655 -1.1435315553229985 0.28015691353540784
P 8.574130178354494 9.051000569064097 0.5758387746221677 0.36069132074604976 -0.2781591663790887 -0.11936860646902021
Ni 0.2866285915897561 5.725562151564976 4.8176545332611225 -1.5783315822590043 -1.8218549037317784 0.9157104750768295
P 8.007628113333613 6.0310550839109425 12.027713851397822 -2.748478940397318 -0.6925685454738846 -0.7459276778213154
Ni 5.675479830973266 8.212467571532741 5.841256923763555 0.31574046706697234 0.03980864735650563 0.6304985156160173
P 0.7346366239517295 0.4886881581818248 7.467057253532546 0.606778032070626 -1.1212424049074947 -1.0611850346042822
P -0.16648728407676391 3.1611167556829356 4.726588641481704 1.9715057061241077 -0.3837626007432165 1.1400353692442817
P 5.11724181001319 2.369161238628216 11.888253496240004 0.42020310295843766 0.17330983657216603 -0.5637465069014485
Ni 2.9493045103075017 2.0997589362040463 4.360247995432675 1.4519639187643316 -1.5383920657515893 -0.035013025740075185
Ni 7.817647332569703 8.579885494753983 11.948703687287908 2.913880577866001 0.26548748444869114 -1.0097547438484482
Ni 7.2921150038413405 5.427355597352977 0.7010242849218277 0.23443138647383496 -0.4905559416503874 -2.2736931170969936
Ni 7.441264397264642 4.5371815477050506 5.0955081119943495 0.16941692927566307 -0.5943709166555248 0.1488149367545953
Ni 4.19166887520302 2.820732217665065 6.914806052884823 0.15431375508563747 -1.1641533453384079 0.16426572409202678
Ni 9.166669516124987 5.123070912520365 10.381638021563129 -1.878037107350301 -0.6769979447291372 -2.3013533020164236
Ni 1.9558114633725898 3.9793124572834038 3.819227962701072 -1.5267657943665707 1.1621424855559663 -1.2315149626125177
Ni 2.9004396604926077 4.602675941539623 5.817538379447967 -0.25168708823048913 -0.3207428053775702 1.315696993878076
Ni 4.249867667640163 4.920989210095991 8.116056798577837 0.3459812682293848 0.8529922701120021 -0.805958822872283
Ni 6.589920286786347 1.7978815231346819 5.753525241725185 -0.5075658459448226 -0.8614072336485744 0.14542108058169795
Ni 7.174748976303678 8.69051853996532 4.2853412612364385 1.1267839035510143 -0.16399652959104014 -0.7247561859500228
Ni 3.784710821525673 6.765807920982276 6.469710727123745 -0.026203912088877453 0.4068539353450413 0.4528599697615104
Ni 5.307010455717503 6.460388774743995 12.761853341449019 0.21293927803833002 1.4389986168529154 -0.9583409081528462
Ni 5.23316900845098 8.595758731169882 2.333022647736423 0.5597520410300747 1.9230815491844493 0.5158437696828986
Ni 5.0028087802560375 4.710173077174314 0.6147793929533275 -0.8419082443836984 -2.1220931613980936 0.26214710722154855
Ni 1.4795036917340896 2.174448923708957 6.158095392492553 0.557123345157976 0.7435692048914678 0.4282953930482688
Ni 0.43036300703527003 7.223742951807023 11.133312780105847 2.6494439032793276 0.969085291153544 0.3509370695727634
Ni 2.7930624272829054 2.575310400238768 10.721546639186425 -1.107186955255693 -0.5551353681936697 1.4418985641085298
Ni 8.88141242381184 0.5912259450536869 2.7444097125276077 -0.8294041983794168 -0.5770982456180062 -0.014163693094891737
Ni 5.766587227438258 6.925434941696957 8.075100897180508 1.5448550477681136 -0.3134197893535957 -0.6202765807776931
Ni 2.2025429842103095 2.1920653569189317 1.8003856391642674 -0.19356010218076988 -0.06262564525102118 1.5999432469915091
Ni 5.780938625383137 8.237766983205498 11.120042348638561 -1.0764231917102751 0.7038644301026781 -0.8185333171031838
Ni 6.385412866071803 6.410656938163794 3.997957284369249 0.4208433076455978 1.3769275585537835 -0.10249497064213316
Ni 6.347874183786673 1.5015472914052101 3.3140891918107065 -0.13494512075103857 0.595381103087594 -1.0216676932359503
Ni 6.477553268044395 4.354431805494345 12.098179584237723 0.7615802967569077 -0.8792422049474663 -0.11713740314565632
P 2.761325177714568 1.3815803035716256 -0.14938827594693518 -0.7247852394157452 -1.2225474690065847 -0.27192989763992526
Ni 4.193882458433593 4.604880301506735 11.763373275960895 -1.4207365853189338 -0.6280266570367571 -0.2676958049539196
P 9.322229077653489 7.673644520157482 4.0672488957706 -0.6017029315405636 1.442841387637773 -0.2444625454575919
Ni 6.745120141039881 2.9530583785360145 1.0806888573662121 0.13832457874623275 0.7342286442168323 -0.005290816085294114
P 0.24016916888541753 3.0217071284741537 10.720291353029422 0.07368858793340212 -0.8618268376844963 1.0705297090439756
P 5.607283020944703 5.572714229493924 5.760329243180159 -1.210319302371509 -0.21994244882904057 1.287960447194756
P 1.9242310092830848 6.022422109311708 7.520000630449771 1.080917737146519 -0.5167248867362714 -3.353955480047701
Ni 0.7503060262451466 7.921750307250849 6.294815516076189 0.6722604300441518 -0.5245603236202901 -1.341716043649657
Ni 0.3753757549351497 2.0292747568372245 8.76158747423555 -0.08101031840579596 1.909038440827822 1.7118641389332325
Ni 4.078914479395719 7.21076582011779 9.638643276263295 0.7569628525895543 1.2640473880225842 0.44764885787421616
Ni 4.703227959788393 -0.16872945942406495 7.69346531333457 -0.9224254252031598 0.3104997874933233 0.8521939425804226
Ni 9.24613715410255 -0.2959782137598879 9.590234977989706 -0.5516623220434047 0.8982660543481369 -0.35714525526600427
Ni 8.549319599645157 2.7588994594243985 6.87706169182452 -1.4563237383949241 -0.47196378047049686 -0.9614393445725121
Ni 0.7577593454477545 4.20909161988032 1.2942738139787966 0.8020633444726186 0.6118737014259785 1.2943290697252612
Ni 2.1770591072683403 7.956337545228549 8.395624981988412 0.87382669035885 2.074015074943944 -0.7138125424543255
Ni 8.75228673536176 3.8673420388702633 12.956120172743123 -0.47634159782321833 -0.8489026734236607 -1.3966484340214784
Ni 2.638379075783171 1.1589030538394636 8.323472314261545 0.22291412986285483 0.20307138410531475 -0.5658159878359675
Ni 2.640362077427226 3.5226594600796974 8.698573215945565 -1.233225003325089 -0.17427580002986115 -0.7085893463821732
Ni 1.534096188158091 4.7992144626241044 11.853534365594818 1.4287694829257394 -0.4571868792716384 0.17979030209018712
Ni 4.210041616016774 0.7647515014773263 9.956642953861998 2.4697014237079404 -0.038006046930128094 0.329164196672046
Ni 6.318433526820055 1.5318457118736755 8.284189512855992 -0.02627513164644507 1.2102087449355738 -0.38106397086513083
Ni 7.283933969151681 1.7434458221895128 10.615564885738332 -0.13000371758536322 -1.6354041589022803 0.8074053255108223
Ni 0.25816928985535864 1.8012480142978446 0.791447315238034 -1.223851532529989 0.21404279551515396 -1.2509545593943683
Ni 5.48183741461545 5.403928508162749 10.002608009644842 1.438194118673749 -0.04776132654467903 0.20226560037456778
Ni 2.47464770282847 8.855513500014139 10.624932954435383 -1.323711122431804 -0.925747290487541 1.0861237068274907
Ni 7.223687612226258 1.407746702009688 12.957253711822446 0.3615631818280418 0.9809509322428783 0.07095139150789716
Ni 4.191465963406884 5.3160584771724695 3.8134772579333127 -0.4835283453796448 0.004295284941244215 -0.6251724754174136
Ni 2.753725208622935 6.909727724023351 2.188932214321325 1.8137168480056765 -0.15709414604425204 1.1316232339211865
Ni 7.479162786824741 3.5184075356243056 9.368686655705137 0.7226622795354716 1.345544673367128 -0.8876304290111615
Ni 0.692176408283959 7.655216439762963 1.9306799150948202 -1.0562582867266261 -0.033486047572587496 -0.10033138733191108
Ni 0.09018783709795804 6.907255889415878 8.331490097187949 -0.5467785115885422 0.1327594259536294 1.278850514473688
Ni 8.294849760763894 5.489806314245512 2.5868477805017824 2.216418965965873 0.08868660400413113 1.803422922278836
P 6.704002832531992 -0.39172675639831406 9.022054279018974 -0.4141165304447255 -0.3501035179278744 0.8336686300827256
Ni 4.947681334551314 3.013664442736405 9.709284251108949 0.43906857240437286 0.5789499541147642 -0.1440378270809261
P 3.1710963267474344 4.718750712192784 1.8936106969198405 -1.631823126419241 0.9906254792181649 -0.20315931583343078
Ni 2.2465287276544834 5.929912776800687 9.524615147772067 -1.3435163300831894 -2.4379138468836983 1.454952054858378
P 2.887932915239871 6.584109630806093 11.445399423499882 0.6635932412874571 1.338402920116024 0.9758280091940164
P 4.607693396862254 0.6116287261551455 4.257816276090612 -0.10288012189569377 0.03294945834282712 0.484206602393592
P 7.650328110128782 5.513021268376145 8.356747081848786 -0.9770847644192528 -0.3071974625929677 0.3853942228093685
Ni 4.0932382075502165 -0.479312710874003 12.667871976089666 -0.6792561446356947 0.1430284119798053 0.36890008180908723
