# total energy = -340856.49889892014 ev
CRYSTAL
PRIMVEC
9.42587974314002 0.00000000000000 0.00000000000000
0.00000000000000 9.42587974314002 0.00000000000000
0.00000000000000 0.00000000000000 13.79572778660678
PRIMCOORD
 96 1
Ni 6.403443023763355 2.7634982307907268 2.0632204156112186 -3.363173141991228 -2.626505292205283 -1.5912786293379755
Ni 0.24797415515275933 3.701580619630269 12.311500462232885 -1.396477198550937 -1.8587237517336699 -1.8079143823912864
Ni 1.1077199438720502 7.0752254623457205 12.208059916992998 0.8678537606048667 -0.8033427254056745 0.20245354801565776
Ni 6.330741214463709 5.660353806061085 7.334333466473553 0.3875938015638486 2.7204369466584373 -0.8082651024079565
Ni 3.505560027617377 3.708442659973864 9.545925710167852 -1.6558464859170323 1.276965124525517 -0.8080475870805116
Ni 8.929522199369394 8.615367058419324 11.820676060074039 -0.20846787253053775 0.18025798575522506 0.26275671578108944
Ni 1.1867276666193127 6.22792371986491 1.5192962633540161 0.07352429444139597 -0.45794021249789524 -1.1806451723458442
Ni 1.3315280289246627 2.4440928749074375 0.7276345455218345 -0.2986434023753695 -0.37382220170105296 -0.6148980900745991
Ni 1.5614158063146628 2.829074075118179 10.524580855126855 -0.8469640616400509 -0.7197895859733668 -0.3221705389630322
Ni 5.064732474588941 7.578209249179342 10.656371618418156 0.10441404204171695 -0.9153150394106236 -0.34874211880397354
Ni 6.494563001787429 0.4105385301387931 0.8805081736984599 1.6459616227031524 0.7174498820965967 2.2812297917936712
Ni 2.441547887417368 4.508266246945493 3.0709562842900797 1.1446127042023189 -0.9992404745806855 0.024415709840203113
Ni 3.229796494248979 8.515933454594355 12.641163060289113 0.6238969511390996 -0.8783921982423454 -1.045108954978026
Ni 0.3190669668059062 7.867875954947191 9.682476542653541 -0.9589808557296904 -0.30417795904035355 1.8203376957563036
Ni 6.935807277287887 7.070738743659524 5.317576981727326 -1.1207636654988633 0.35025058502870005 -1.1576278855150641
Ni 1.8202127564159318 5.849983651710026 5.862012016658461 -1.4281886707216047 -1.4587914832091262 1.9009782895275067
Ni 7.034609347180133 7.105473109959174 11.522908753384094 1.191945942070644 -0.06637817031491794 0.5446293264560234
Ni 6.418976873332371 1.524579468865808 7.1836287331912425 -0.09223524058733792 -1.6005405142558757 0.5392410655609166
Ni 1.9220028301391108 0.2965164924679736 9.975649675629933 -0.8406869703820876 0.6800452161958933 -0.32545692302378787
Ni 8.137625777135352 2.872791304669814 0.1379534033691044 -0.8474625985430243 0.679208579227211 1.492227908490701
Ni 1.5578151203101944 9.392097240388471 0.12600892874904585 -0.7310597595705474 0.728353673493294 -0.7118767588841933
Ni 7.92394108676546 6.055665770305589 9.535952186970658 0.008302349218108282 0.03070025729733423 -1.0565547349211224
Ni 1.356082445264035 3.4954272070550636 6.926379512519119 1.222389346162166 -0.1977440583551304 1.340843925457349
Ni 1.4648947992838866 7.409165524561184 7.793068404146504 1.077440834341512 -0.06101742022363685 -0.1640896035254787
P 4.063845450022244 3.0693963012174637 3.882158793106197 0.9513331093764454 0.4929848628068542 -1.721018294628675
P 2.9826782089632506 5.0549107080531925 7.493714721921082 -1.641334408343786 0.5485944817513584 1.0578400293914492
P 0.21770200025236472 3.969398136501895 1.6128028740909992 -0.8073860422371127 1.6016298906653126 -1.002702464987357
P 3.259940457186911 3.5326311538080395 11.612235929109607 0.20660716517271513 -0.7354782003532172 1.6249235710859302
P -0.1027637670851203 7.3922743483307976 4.617126672951269 0.014496136733646003 0.6093429645843248 -0.8193362726204534
P 4.34340761286656 0.4206411878864089 0.38981856161779194 -0.9455560976833521 0.7810399481434162 1.2820733922863596
P 6.959390828029196 7.600821934322588 13.60363585516311 2.1013024499049875 0.5369620397187527 0.22654838418133239
P 3.36361570682866 6.3097592064900265 12.828536350363526 -0.06116937242046884 0.0740994502185756 0.1981196965269943
Ni 9.350962701845278 0.06530720675905598 8.032576234248966 0.24391541470487027 1.7676185109857172 -0.34339679533166023
Ni 0.9575562560783689 5.346735940247805 9.535110455923018 0.2850931744947606 -0.09658400447433689 -0.22623882336071358
Ni 5.637401789252497 5.859550919496768 13.364183637750246 0.32747523900539727 -1.78451168719663 -0.691685371537983
Ni 2.6069532225126864 0.7638770525563399 2.0518660010536727 0.775908797564438 0.3798653225713393 0.5959176923173544
Ni 4.69602976843505 0.8030660895515698 3.2514326582664053 0.19782967609040122 1.7852385380603253 0.17908890514778833
Ni 0.8836696137139015 2.6624622274349763 3.1978908344151433 0.11566518947550403 0.8804866188775288 0.31286134574696445
Ni 6.4195895555059055 8.524671244976927 7.420763126812225 0.7357060000933072 -1.7470005776250495 -0.05464725503123492
Ni 1.1481192638070021 8.381614670396255 2.449555172131493 0.9133558588017238 1.1582423791706116 0.18545007147912576
Ni 8.582791218546436 0.5611499472131347 2.963501256931599 -1.1161076547840907 0.32641800138547655 0.36293435114395556
Ni 2.4408786499662756 0.59060393576487 7.40169740015977 -1.2715449819512101 1.4137640106558427 0.24847655171299138
Ni 1.0157987660825845 9.054217160503198 5.921706112119976 -0.0018326823333645855 -2.6515159553170076 -1.5037896451863715
Ni 8.519854620504981 7.453712231516989 2.5405931450031094 -1.8725881684205878 -1.1836446212938003 1.0744339291943883
Ni 6.580366783721136 9.19773560318392 9.724787430969924 0.31865404116934154 0.9310982703868095 0.4086539646682575
Ni 0.19288460187235193 1.6777688640087938 5.764682269158618 -1.1257042973335902 1.9243475603810662 0.2188178483062941
Ni 6.913364257977314 4.861067494226248 1.9399685566430813 0.32391297557543575 2.169605348046444 -1.489346216067532
Ni 6.209552680538446 2.9759010015359917 5.515173580808143 -0.9842859101533822 -1.7114067396808395 -1.700208299861859
Ni 3.7247117281511213 6.47422195362606 4.912576155849331 2.9388015094773965 0.3147505923498773 1.0647311000843278
Ni 8.858290827286233 0.9794902778909291 10.306360431496884 -0.16210702587781115 0.4120074545215227 -1.325484155171827
Ni 2.641593330016408 7.418921309939782 10.158097943617081 -0.674038347880181 -1.1176472313570687 0.47107880676238223
Ni 8.536896610808853 3.5892806901610634 9.852329007740765 -0.38156353620936867 -0.5037112480854228 0.11734797649456565
Ni 6.2364729926556235 3.604314968111658 8.105486355487614 0.5192738784103702 -1.2165084619013564 0.7999997770753706
Ni 4.08437501577547 6.955394255081829 8.290929225421412 -0.16781153246175615 0.33799079382474045 -0.8685507866718912
Ni 8.774956625805853 5.264268919689966 -0.04235896030230522 -1.1377779406686725 1.6426765241939774 0.5548767152156444
Ni 7.4673043498898775 4.721309977503072 5.375809123263989 0.4096389542893461 1.1488879345389054 -0.6625025793264396
P 6.946392540070657 2.135197374770175 10.47911041197095 0.14322433004069526 -0.9560114886887214 -1.1177901846928362
P 0.046390409004166834 4.154249061197262 5.482753267948539 0.17237652612461926 0.17419043940490644 -1.2920898959820974
P 1.1589213218204073 0.7581093568334754 3.842178924813127 0.5051145561908527 -2.6511701419418143 0.7111838465822268
P 6.692808101384234 0.7362262347707167 4.3185317740330715 0.05364761012212696 1.1485585762239445 0.2722937087372472
P 0.5465247524368698 1.4844252218002705 12.069950986610612 0.9828442926108493 -0.3571748229523591 0.24914015343891935
P 8.201674628968762 7.7245177522195485 8.080488922807378 0.30907102546659676 -0.6902473535398758 1.2906109974437259
P 3.8720476520669482 2.0922624932247467 6.5845763815473015 0.9133239771225239 -0.5437754630961603 1.3440783732342467
P 6.245031691325931 6.558046300845268 2.9861818084079124 0.6762983475589514 -1.9312517437000674 0.32945473132927133
Ni 8.536849481410888 4.558949201516244 7.625409341240535 0.16749400122133734 -0.7046848691214443 0.14017551591204244
Ni 6.581177409366121 3.9777211881823806 11.725141000048675 -0.08292527604032171 -0.5300437153323646 -1.3123525028858753
Ni 4.627070033333765 1.91942013913067 9.1657300290264 1.1163889334699355 -2.562884372920528 -0.5091645578905102
Ni 3.93140241586312 5.375286929534545 1.4384533218500257 0.8056898854816124 -0.29165154443856867 -1.1246326615359663
Ni 4.584163429427115 5.380970734929034 11.175808278081096 -0.6495632455569523 -0.6860752244400571 -0.4923094340063844
Ni 9.201194900994496 8.079091064863759 0.4056955132039871 -2.071302818219104 -1.155977494395835 -0.5988868022480073
Ni 2.9774845493075905 1.596121894975534 13.026174423314552 0.2394944028190391 1.160042665604144 -1.6515992806049038
Ni 7.7057979553481495 1.1588270630244788 12.493424651314673 -0.10649483583014563 -0.2614374827490336 -0.4239926519078569
Ni 4.445659554689788 4.292913175887667 6.154867497492572 -0.4556113072544024 -0.1714730404737434 -0.0059022244170479
Ni 7.876962502874699 9.254649064165545 5.91593935898507 1.1026551288236106 0.6038282054136828 -1.3946185480756432
Ni 3.7973381304140252 2.6624245239166044 1.3932439755588433 0.9241807173313696 0.44111877006518224 0.28825511716251
Ni 1.6164535172573096 4.8956981758503755 13.336509255265643 3.5051854540016922 0.9384999621675192 1.0224338819780134
Ni 2.456619868886334 2.1443027744568672 4.915859189711521 0.7831384825436577 -0.2995687424031163 1.0547050833068932
Ni 1.9484895517950171 6.644368506156582 3.854498549440981 -2.6509122602947377 1.6189033330337796 -1.8762887572006266
Ni 5.060971548631395 7.6966265745043065 0.7353402020889888 -1.9945253069477327 0.8713142083496414 1.923003387648346
Ni 5.741793405743302 9.256534240084113 12.706251586641613 -0.34753421453880146 -1.8117715513538473 -3.0160099376385996
Ni 3.152749354457029 9.000942089044415 4.74145402478095 0.08725758486708843 -0.26730396883213964 -0.08462014724424137
Ni 4.449703257035122 9.198112638367634 7.675239253708132 -1.4413501478042272 1.7124346667247217 1.2375871369485267
Ni 5.179850742056409 5.035012676232688 4.015591544622572 1.017508676762254 -1.588817826502309 -1.056831642731593
Ni 0.10894337374619227 5.202840462383368 3.360998140065725 -0.6035991201220121 0.16547517101909567 1.8447667753329455
Ni 6.151998259744508 8.50588546694838 2.996873583630081 0.41190332484349057 1.8501977165405294 -0.1934829690859313
Ni 8.092155333979447 3.3398719161342725 3.140955693910456 1.1325028083126625 -0.43421021587080705 2.132097580908973
Ni 9.019237721334134 6.520060006086085 6.533422132996909 -0.28468256931990327 0.03987163938395714 -0.3583387613534732
Ni 5.302094974496071 1.8945169652463623 11.716062935412802 -1.5759044608747506 0.7171084395967778 0.5807612962918902
P 5.8276914464729375 3.6834358014140345 -0.2276001164128157 -0.727911957970185 -1.0468969001163841 3.523793041800551
P 8.201297593785048 5.171226062228952 11.48097018731163 2.3998754040537382 1.5618618667387552 0.13917175723787645
P 4.730896097049 7.887613746814618 6.045797816959836 0.6119469778660751 0.054329466680499976 0.18729843754177422
P 3.8777503092206214 -0.28974871092030785 10.367020679616665 0.4511005638682425 2.707499926881795 -0.3492661096282436
P 8.38034217665122 2.3837672455132024 7.682812947960986 0.4840196831937664 -0.6681415227797719 0.4301779547829624
P 4.871907255758025 5.097063241592414 8.804060914224694 1.305551677913958 0.4055100197226371 1.4555223255395513
P 3.1745419880756964 7.162028387516269 2.206337315821286 -0.589370635227456 0.9582367784748144 0.012994869597771169
P 8.988141744557325 0.8314785184082952 0.8496195662726931 -0.30725428397283217 -0.05000230006005582 -0.3530325186492113
