# total energy = -381166.5173667714 ev
CRYSTAL
PRIMVEC
9.23753464251785 0.00000000000000 0.00000000000000

0.00000000000000 9.23753464251785 0.00000000000000

0.00000000000000 0.00000000000000 13.52006569364305

PRIMCOORD
 96 1
Ni 9.02613385601915 9.079111118331436 4.977047056735439 1.0751944615094966 0.9002344909284172 0.5883766467453028
Ni 2.655865167023691 3.642369225282804 6.198206670035813 1.011744263474651 -1.9747198421860312 -2.734053251890291
Ni 5.362693813764363 4.445933143553683 0.418537923583261 0.21405025171432168 0.41864629999427894 1.3995920900308347
Ni 7.217507671993887 0.9591979052695543 9.016086189372755 0.686794619104585 0.1410553474138345 -0.24916175070547414
Ni 1.729174146859095 0.551552882770626 11.152918291279557 -2.355555756200756 2.3408055944747748 1.6082486815334107
Ni 2.3540102410291683 8.405196001551916 1.7517950221773737 0.4482648941916602 -0.49662245955944145 -0.4598145467024727
Ni 8.30657607959098 2.1018440149435893 2.7653807613294124 -0.519481366435486 -0.5347058966947242 0.4693857353306755
Ni 3.8017167012875017 6.323850076420178 1.0688760801884747 -0.6051356113711965 -1.1845421934074052 1.496118758904675
Ni 5.356005838539586 5.62818056509045 2.7951524123679943 0.37022599970936243 -0.3510977635203437 -0.3815519662451429
Ni 7.545578721866747 8.264277407554719 3.576516686909338 -1.8438190667076955 0.8930225465610104 -1.919197897859327
Ni 1.0838769130165342 7.977368812932694 6.912945224537511 1.6857157626726387 -0.1743565326691255 -1.3806425455115254
Ni 2.038456050865663 6.971041004905112 13.24982669135768 -3.4456556740671753 -0.6057632176528663 0.2516451792489601
Ni 4.757561381409826 6.487345205568419 6.6513585604212295 1.5136513684717996 1.69432407316694 0.8796854631324721
Ni 8.121797670169416 7.693296141506812 12.263537867660357 0.06673272544085927 0.7292378758704603 -1.1556604773760484
Ni 7.386730072743456 6.427643017891992 1.6114426890659197 0.4590036207654031 1.0227444712398968 1.5147348313439655
Ni 4.1138437660250515 5.206376249187464 4.874226827682368 0.12536724725461634 -0.8820171965894421 -0.15773383651077993
Ni 8.230310991944906 3.5317035578893967 12.079854106117436 1.5224185731414683 -0.08217682791007137 1.521943947497895
Ni 2.6287252896612676 3.1688347142710462 11.661881519666434 0.04025319109309197 0.7159272748044833 -1.893954035690874
Ni 0.7205120137772305 0.024700244410954295 0.15781681648156867 0.5233128243664342 0.6584919155051497 -2.7464477688999023
Ni 5.799897100247049 2.982199560346471 2.5454359805222095 0.07453062421872325 -0.6918859175845632 -0.5890104236745597
Ni 3.7545775609946337 1.063295685391116 1.822302354357145 1.3719519597160632 0.8166106461591742 0.23204977361553583
Ni 6.907597615618141 1.6155709433862966 4.508266181152784 -1.0376861801513935 -0.8251950453940757 -0.691451658260622
Ni 0.27975689514823615 0.2405685010928895 2.370027202689722 0.12790492607480553 -0.2785844268419653 1.6737832729011108
Ni 3.9048168276462514 1.2031889130209794 7.544981053362544 -1.2151486054393523 0.24713674985564532 0.322857794838044
P 7.6679206332989915 4.33390032100383 1.5432345793080364 -0.7985435042448183 -1.864294046732596 0.1667182993975774
Ni 8.195707186431074 4.052802135796702 3.785064197229898 -0.7783330907352143 1.6164052492022745 -0.16061527182363305
P 2.774798428099661 4.704879720212448 2.422579538399329 0.4616631698754372 -0.130061310296176 -0.42059853862464336
Ni 6.40247997298551 5.013838310499586 11.968651737949774 0.007439229886864607 -1.5949807607799111 1.011772031388793
P 0.15110020489878515 7.508083567947728 1.1543842451963058 -0.5003706137479641 -0.651344248716775 -1.8488939101274418
P 8.56504230443802 9.116652459924659 10.312930773131198 0.8746982943305258 -1.0816420169070533 0.6968823423578901
P 5.396549378956085 2.164058812096728 11.93848841543394 -0.543173310735787 -0.4041447639439943 -1.1885070915924243
Ni 3.281403313841669 3.2920634290480124 0.24478174073380213 1.7206215734108885 0.018033460462943136 2.4339625755454337
Ni 7.739382202827823 5.858001194396009 10.355951820392015 0.9725254271833444 0.32297400870093407 0.17576164054676827
Ni 2.555296125211335 5.5292650420146074 10.405124142103354 -1.734271302983839 1.7770351763139267 0.5769771466591096
Ni 5.662230118513832 0.012964880149135851 12.818590852382181 0.1866554046411366 1.6593197891776132 -1.0876915655352428
Ni 0.5998753512766071 4.952796680271234 1.9759576613929097 -0.35480580849955023 -0.12007463139710932 1.0786549092542712
Ni 0.957775324904063 3.393352998577955 4.232024168011493 2.093569600037104 -0.591436002396917 0.17368958850908797
Ni 1.197406216210606 7.593844841410199 11.012012629831135 -0.3463407084513326 -0.3332892745840131 -0.528377126263219
Ni 4.837253594481857 2.2005932623922977 5.664664208944396 0.17057264014666107 0.7171320937458617 0.46656060717705455
Ni 5.073300322270151 8.288553649116478 1.5648661146448597 0.8056047819669738 0.18328237440384565 -0.6422032056474553
Ni 6.858629443426784 3.3526524200691608 10.381733780132832 -2.165986520346934 -1.0707472243714204 -0.4201591370943796
Ni 1.301226870286942 4.457461587035066 13.418219561478539 0.46748106210879486 -0.2255435970659019 -1.3044026519111793
Ni 8.73719300373214 0.2684935689167853 7.328295274847193 -0.14525035933178854 0.8095372842521606 0.35274198399198603
Ni 9.246125748254043 7.208344037431762 8.871339560937509 0.4912308562302249 2.085544158629466 1.7417444714324326
Ni 1.364365420924166 2.4598354401659694 7.8145036836606 -0.2706695428702629 -0.6126972257685384 -0.346909436470609
Ni 1.776461087709417 1.102629108743464 5.9627954846445705 0.3354870535662803 -0.27533738065957747 -0.8542793643545417
Ni 7.40596262028211 8.872532126685462 0.6753885035866363 1.3108314382556585 0.17070890861420923 1.7414742484901815
Ni 3.6271088177257167 5.426866968303762 12.404687400028577 0.6839849175699317 -0.1534056414490713 0.8202361587269035
Ni 7.971133476915119 4.49869794256463 6.500988120774873 0.6580918518532537 -0.6648921626045389 -1.9075657129370371
Ni 2.1404199604389875 6.009857029644776 4.12920393895842 1.1763030933270644 -1.1615228496940964 -1.7540659691122629
Ni 6.981784257925024 8.438866816046822 5.918800801211529 -1.098904917752559 0.7505163256332623 -0.5602922298042609
Ni 3.4660801103799836 3.048543535573471 3.718423697134507 0.3607404288164303 0.3535932762486878 -0.24087842765075934
Ni 7.2188563520806515 6.0935121451635315 4.4213991747698635 1.270535052629457 -0.07529964117426387 0.43139845745362476
Ni 4.205941988388346 9.126028557788123 5.57695935815141 -0.22767272759376272 -1.2193199632082226 -0.3078767480481795
Ni 0.4019953461902631 6.212371505960775 5.2811808825752 -2.540371536529993 0.15599628499438295 0.14550387010349133
Ni 8.97474544969949 2.0605614717398217 10.551343233592233 1.6371964749160126 -0.8543328433002965 -0.9401740074358325
P 6.822529157268734 1.4332404806975587 6.707453490742305 -0.08937437409977511 -0.33665639128403313 0.4359706502053395
Ni 1.8119147464286067 8.300349981108246 4.094322083645879 1.159332526910997 2.047651497348751 1.5732132871958326
P 2.406442488785845 1.1816377442372716 3.4392478429277604 -1.1656836659400054 -1.0914214648913203 1.3747984280259227
Ni 5.917804994955685 6.7883318032879005 13.426764281206326 0.11938094776419439 0.3573931096107522 -0.9122543982074289
P 5.271787233395537 4.4740891497485995 6.81261266361708 -0.2706194063586178 -1.9489666444813272 -1.3109080571298648
P 5.182414083810294 6.310206237460239 11.096877862414043 -0.9606549009980035 2.0304137933142257 -0.5853430021253015
P 8.84693491764146 5.181481092791368 8.514599821686064 0.4068901878996154 -1.252058591091824 0.2007838736227187
Ni 8.221175069987302 6.74952491942148 6.982640577404771 -0.6624966657891688 0.5025275121899668 -0.9733998593684978
Ni 2.894858668426215 2.113862047771538 9.664535270103014 0.9330170846760771 0.20196838084912314 -0.9136854742270006
Ni 6.039361715926456 8.308571387116604 10.463219922470955 0.6875690353767642 -0.9758169534504225 0.6354319483618928
Ni 6.511141095318453 2.431938084946596 0.17699393881117753 -0.2624116737368449 -0.2335898644091461 0.9269953039620292
Ni 5.311240744700817 3.065189573356686 8.446742738252134 0.11749092983033313 -0.13718660848704758 -0.584236142214368
Ni 6.687402497616751 5.211734019395158 8.236640550817857 -0.9957692282026335 0.3892429071314974 0.9604702957910234
Ni 7.792802866812471 1.0088773676436567 12.207199990172969 -0.1504714985214118 -0.6713543732901147 -0.6063658842338718
Ni 1.9075694197056299 0.16395792964376713 8.838310755114042 -0.38716339889464935 -0.8008186734322401 -0.8067962311719138
Ni 6.068884877277821 4.019759473670974 4.5758526048158785 -0.16157557885437335 -0.45601111379598236 1.6809718202297503
Ni 4.64733911568878 6.203826786232987 9.007014006405555 0.8395942515385412 -0.7268107544862062 1.4127905909989797
Ni 0.27429289328987216 6.995271058792668 3.112859871902903 -1.2235311730760927 -0.09862417483281724 0.3084765864157074
Ni 3.1579806108330453 4.398110425682592 8.16406493458722 1.7560344056925434 -0.03360740364180018 1.699636486518789
Ni 8.425324589970133 5.54480257561692 13.214606742269961 -0.5696065652266513 0.5154074534764286 1.2431494615276528
Ni 8.65816589316865 2.369732525328299 5.834801125643209 0.7823434974461881 -0.3021791834427699 0.5227811202326802
Ni 4.2729233535193645 4.2594088400471986 10.387493383106102 2.9385667677587715 -2.035005012229334 0.10159328476347021
Ni 8.230689730873381 3.0581875219473202 8.619190886168127 0.41977167184797387 0.6944799035639846 -1.9311594410965776
Ni 3.3284962664603333 0.9514938012122837 13.063587827677777 -0.2542206532856202 0.06988721190944093 -0.8652122092169614
Ni 3.938709342977338 7.90240621769918 12.837248825253734 -0.2983109587366153 -0.28317333176422843 -1.1556861884076612
Ni 3.9526580205870245 7.550188251752332 3.315093527159741 -0.34669012137095134 -0.34915760907483734 1.2137041596833418
Ni 2.489349363982492 6.894175477494383 8.582821787746209 -1.3495869617573015 0.32830673376775715 -0.6737966641830202
Ni 4.308487862656645 8.186756015170287 8.124883930559745 -0.41518945179393013 3.0198005150292833 0.2747496264769075
Ni 6.601244010156124 7.9739324499718975 8.120503491538214 0.03791323010600567 -0.43556775833996597 0.9944312261175002
Ni 8.776018362668239 2.096329206643601 0.630609553445606 0.6081371172016816 0.6125115921202935 -1.535337852306298
Ni 1.3205517931740047 5.173287399387532 7.0366127222194175 -1.3267190560201925 0.3899165361597543 1.2074293824182238
Ni 5.135875383282082 1.0034918848314398 9.559200584066263 -1.5200711559552142 0.8808619999390764 0.7207496358937909
P 2.7542079629394016 6.7339689107494864 6.183091291775726 -1.748153717392886 0.3808634248185505 -0.3325963622820466
Ni 3.6397827155273657 9.00824075103242 10.688693367880408 1.0871734882482438 -1.6212687479421626 -0.38035794593704175
P 6.223964612186044 0.7446201322048861 2.1298697718972504 0.2657255686014262 1.4389402528111541 0.8874563653271427
Ni 1.2913611830769123 3.9031355963052166 9.545990909243846 -1.9534938429277198 0.24146438206121643 0.5483900790500362
P 5.541560200887781 7.266189480605177 4.7394862969867315 -0.7430413574124558 0.8986396356374717 -0.7188837863296458
P 0.5522309178279445 5.591969428514311 11.642723796159991 0.9051434981942605 0.032251403834538006 -1.1253433144497458
P 1.3365973911925646 2.229479033839642 12.894465192304489 -1.1969421097336548 -1.6129648560621574 1.0354405786503265
Ni 1.5479614258861005 2.435513010930006 1.824979391954024 0.5125198475159882 0.33742823645305114 0.3516173834692396
