# total energy = -340897.449861666 ev
CRYSTAL
PRIMVEC
9.04344173111857 0.00000000000000 0.00000000000000

0.00000000000000 9.04344173111857 0.00000000000000

0.00000000000000 0.00000000000000 13.23599109859693

PRIMCOORD
 96 1
Ni 6.244984796086764 2.0282540468689536 11.492307962927248 0.7277908590112886 0.3633675820266323 0.3126500010671067
Ni 4.754146311928695 0.4848776885216594 6.171479702462524 -0.17486561109506016 -0.8421386152269498 -0.766249420097803
Ni 2.777286143881906 1.382552313998541 4.803592233422284 -0.19959808084473366 -0.36641691037591734 0.7154295092324583
Ni 3.465284053287822 4.319871201085976 4.954389814028272 -0.08636849739391578 0.27401454808309583 -0.9718759665248038
Ni 5.218852603879382 4.480672636830638 2.8042039479139618 -0.3114171571012701 0.06621439104354403 -0.2753687481181451
Ni 7.124595146894057 6.105010406431747 2.4608353210930916 0.3510501981118599 -0.28160341617394724 0.5141121317037727
Ni 5.057698473910883 4.533404945015055 11.391105520601856 0.6507845195585631 -0.06346253933001973 -0.4642527849794843
Ni 5.6031717431201935 8.049938182058852 12.366902821002748 -0.2681802007895059 -0.7143277915278472 0.2414813513420809
Ni 1.7835204292927758 6.33198270463317 0.2268764377200727 0.14209741552510366 -0.0620520321357383 -0.24641118454353048
Ni 2.6313521261882107 1.387544293782077 0.4425444338754453 0.09534267586806805 1.1446589840592223 0.013664127750653888
Ni 0.4826638540089609 8.892814072937298 4.8837759086953305 1.0144529206550659 1.398830786384778 -0.4809366733930685
Ni 8.711845762342483 2.3627890398989577 1.407316874576865 0.36301534089353604 0.26666042171086984 0.1497137944197809
Ni 7.069620065183703 0.5636587259968319 4.889414494555901 -0.5508663085046706 0.40505956244877983 -0.5063250315591861
Ni 0.6385547009448176 7.272193157848931 2.2328582965258157 0.5370900806561847 -0.4228683084954266 0.5510527134838639
Ni 7.7314100807260555 3.704474041140617 3.8557635849716494 -0.00953493607362874 0.5844778259115289 -1.2787839229018105
Ni 7.691908327656336 3.784987802033408 12.543430801753875 -0.26680877436327594 -0.09921475722896461 0.26206637458228416
Ni 7.886179540898944 8.942625349473015 7.214184001469417 0.06269403659511137 0.6015404378207704 -0.5342754940255251
Ni 6.760804620168874 0.7134497715486398 0.3917284309738748 0.44555315168745196 0.0029824796670916377 0.48324166737716134
Ni 1.8429991449382759 6.4703564051184665 9.227523604390894 0.32068367000486064 0.22850036570138066 -0.7849156290487386
Ni -0.08084655954502683 4.956032103029522 1.3114048456090255 0.32072943564113154 -0.6868334427623204 0.16673089780306768
Ni 6.405026582733931 2.150584681890495 6.926010211990676 0.447388662234294 -0.16843579630931635 1.171127719773712
Ni 3.577160469777176 4.371228906141594 0.6017370413529125 -0.9330469094727479 0.23668727238754722 -0.08331634083115329
Ni 6.150191440849402 5.665444882231476 4.801938187946906 -0.9689541648923183 0.2401847440178444 -0.3851664230692786
Ni 5.1684625470789065 2.819935014641246 9.464501566419317 0.6667634114853227 0.6510755684364207 -0.3482039869123164
P 0.012939356293991408 5.53886382964062 12.3035679818433 1.0211514157211639 1.0709248875998654 0.9370989680549345
P 4.090701346566801 6.131100735554032 12.551332961056147 -1.1895779560590996 0.6497241966148487 -0.14018631454531985
P 2.2339742572238017 8.464037374609779 1.2576189764739165 0.8939550856776088 -0.7847431080266163 0.9468984706438596
P 6.385112924249609 7.806769079885847 5.886111188579531 -0.29686908408376617 -0.4177369008061321 0.050805255577325396
P 4.706478331060908 1.1087078577933733 12.729819751265813 -0.9101818319491163 -0.8635949853285126 -0.8994796150402637
P 4.016038692413046 6.113601675986746 8.319297091212148 -0.4108597140703246 0.6504857573712216 -0.5075031110276872
P 4.676752538400614 1.060090315553719 3.7732503191329525 0.5093519913109679 -0.7743417101876342 0.4964787348927256
P 0.11917537823444797 5.554065855032149 3.6298647432925186 0.3854934673913942 -0.2854132768383407 -0.5138285390250827
Ni 1.5336682237501458 0.9504385857070274 2.7805508263128056 -0.5381578597990667 -0.11262665975949636 -1.1098652734188048
Ni 1.7700999619037043 6.602227871066875 4.762110870978261 0.741246213185246 -0.13662867910104856 -0.014247253947633529
Ni 5.961689943371098 5.527631875127664 9.173084798769604 -0.01616478268532055 0.5138511647329022 0.2848951995513416
Ni 8.523072961615075 2.214277641338763 10.396394766361675 0.5850910340154956 1.094486219859573 -0.11134753593675661
Ni 2.577426083707731 5.197609559474444 6.968101102401023 -0.8785233245035707 0.4784434746575696 0.2220461254356047
Ni 0.6244921491995307 0.07833338711414885 9.15213204884121 -0.32342652285732043 0.35024724259459034 0.42112175811796504
Ni 1.546889735423207 1.2577256890852313 11.431356070639106 -0.38224744965027074 -0.461926707949469 -0.12478257839573992
Ni 3.850317624417944 6.80913277227615 1.54122492358189 1.1328889880074875 0.544188639374179 -0.2939681083868873
Ni 5.600675753228425 7.796568077719491 8.014961767184207 -0.002955483083898136 0.38739814061327477 0.3359634789820665
Ni 5.283359473074965 2.8400747591664897 4.868395727503556 0.17646560859232835 -0.1991406815923409 -0.3317370996055448
Ni 0.6635977995255564 7.292459510557091 6.8623452872114825 0.2670381167652627 0.7549535354690095 0.20370156149014593
Ni 5.141540221326032 4.770071812651171 6.968167119524972 -0.12027029234768319 -0.9631424433065477 -0.2252489486436185
Ni 8.154869235371113 7.2872143144077235 8.921362409496476 -0.10309789433345469 -0.23609489021918695 1.006837055981021
Ni 4.616667912165446 0.4162026970756562 10.448834971381224 -0.45357396510939946 -0.30545656864246107 0.19396916469373046
Ni 8.201994609740687 7.120805944848221 4.7731366350218964 -0.8179764161584493 -0.4201851052363086 -0.42237491379877584
Ni 7.326345286370332 6.070437329054106 6.926949825576744 -0.2676554386342874 -0.3040218930784635 0.12441542486430829
Ni 2.23770015517818 5.350850678010706 2.6072920497133967 -0.5121966598486146 -0.963288996186741 0.16924389403290852
Ni 2.5389643264262483 5.243595460197778 11.217912761126396 -0.6772368002128207 -0.4091350180697341 0.9134926414899042
Ni 1.2037815597214778 3.1841053659151766 3.8007414773647836 -0.36438188222375956 0.8215975578508043 -0.41411730177567385
Ni 3.596423000463646 2.6626243473684053 2.720406513362834 -0.3074674284249027 0.3708980860757225 -0.3583451891113764
Ni 1.1453518833058511 3.4799163418562298 7.983208434908934 -0.7136960714811192 -0.36161486100158363 0.622529895588244
Ni 3.677624062920837 2.666277897789689 6.969556192160391 0.18926815967363533 0.2609687706427312 0.1703715798794485
Ni 4.163772354992473 6.980388426552999 5.944707264321276 0.13708813523597035 0.22755497106897588 -0.0354439426299067
Ni 0.9341061301108935 7.388428513207242 11.33256280116577 -0.6269663340930428 0.034750516107307894 -0.0002069738044835145
P 0.1615836934462479 5.5843613845155655 7.988013215450586 0.81613807739813 -0.6760924021957324 0.52976243664652
P 8.37799807087688 1.9263073292968507 8.151384797308438 0.5630582225851722 -1.6704174417526716 -0.76738327659193
P 1.7775155840459136 3.1820615481052505 10.333748133110792 -0.177460625515746 0.27873612192848124 0.41613973152234135
P 3.924410541748578 6.160075922558469 3.8455978522276766 0.5561172724909648 -0.07841993197080042 -0.47404765958271905
P 7.058143937746554 4.030291156432707 10.413257167637727 -1.6476397817365238 -0.4435417776843781 0.6602222679326951
P 6.431632388029516 7.851669767612761 10.158185991926478 -0.9002530028711786 0.7624441874190998 -0.10778321562426599
P 2.417610383101485 8.418973904933402 6.003792590255573 -0.06070965917523094 0.43380603845385296 -1.2242197145026852
P 6.984711191655408 3.8501005818186593 1.6246515770259073 -0.4876945609421924 0.6175188155268978 -0.2692428377260653
Ni 5.3277989452784 2.8638047500215595 0.5139179883058818 0.37941203708400467 0.49522635054286324 0.492614623951629
Ni 1.3024545514210446 1.0312236498489238 6.963944736624731 0.23824253268980905 0.5674337259450486 0.3787988289800379
Ni 6.758236282744011 0.8585725925275105 9.377117502915018 0.200336501672655 -0.5496072392865889 -0.9468912715550081
Ni 2.7800896107893265 1.5767421362664173 9.086375376011414 -0.5459809553879112 0.25363547020611155 0.48643549172411066
Ni 6.454412817512718 1.7880692804361065 2.667621753216923 0.24523824728135185 0.6696283917379434 0.016305679138559015
Ni 4.222889332972499 6.950852546167077 10.406652742210344 0.15413146387150228 0.32424696187608676 -0.272041483517125
Ni 7.9682578171949086 7.121041074330778 0.2874656879985768 -0.02044926899328736 0.14990199917118702 -0.03614533957230549
Ni 7.630322490109452 3.98382595330262 8.35209584534064 0.3713526571146379 -0.49077037165403864 -1.1617267381747864
Ni 3.0785412716883376 8.284561231885043 12.367260036947403 0.3617089633772867 -0.07084623338860056 0.13940367074302445
Ni 0.05906723905102382 4.982963472224034 10.203705251061352 0.5047926540750597 -0.8206164248844576 -0.2531526170324221
Ni 8.651137138634374 2.2783323384525045 5.68562622658825 0.34794327705176203 0.45522307067704826 0.5176173166435537
Ni 3.5786616810888914 2.7716068625339703 11.67877649472559 -0.18545315680291932 -0.38084208466231184 -0.08235346269725172
Ni 1.1914101315622798 3.541212789270735 12.697100579423724 -0.008187678017114931 -0.10599424204464326 -0.4108969950661633
Ni 3.0957690280065187 8.341290741272942 8.095965682613716 0.675477651429869 -0.28388167068516273 -0.20319505416737266
Ni 5.721785523628994 7.847853435242014 3.601737831113617 -0.6528629993541466 0.44355360475892003 0.5051099282051624
Ni 3.226311108034311 8.284163320453022 3.469814817547879 -0.35555502796074895 0.022329516735135738 0.4878652821921017
Ni 3.3340727585789027 4.206981919133297 9.176009447794959 0.04817347438143316 0.08319292787941156 -0.4022951123297652
Ni 7.148524093465137 6.245328446868964 11.276441915400028 0.387570661635397 -1.227070553687919 0.7143959257616213
Ni 0.42280621815887715 0.014230759759732235 0.24371984776868816 0.4057375623524109 -0.8545153916247477 0.5340865179431704
Ni 4.607561166437146 0.4377758271003393 1.6573047317440472 -0.42645191208162686 -0.6912464842283516 -0.24751264513782534
Ni 5.914989610758454 5.520939728316402 0.2195403978642677 0.6883969305946983 0.2718692196053189 1.166557069683894
Ni 7.962506188313878 8.787204761502275 11.528878736562467 -0.1643505704963492 -0.014943765794025876 -0.7257997967231887
Ni 0.21876085319517202 4.8128653784767 5.841651820804496 -0.08457052495322855 -0.40402417920572997 -0.28180730465463727
Ni 7.981307503476869 8.72851282527918 2.444396152885643 -0.7454846767466258 0.7377543979819036 0.4621370241880622
P 8.578228912158165 1.6072185345825698 3.4834749361403268 -0.16323059795929307 -1.1887505750617977 1.2719676713109256
P 1.7838731235166123 3.316320482645785 1.5750302127645635 0.5571308013571438 -0.06378161323233532 0.020233039217423216
P 4.74488582769257 1.0924296628470604 8.2536064355063 0.4219717648230862 -0.12971344003845403 -0.39048654973061137
P 8.47583002250422 1.608068618096433 12.564979514486138 -0.10857485828762592 1.0806467428733197 -1.1856310555962097
P 6.100452511846779 7.82439474763605 1.4446418712445968 0.9518810114601154 -0.7637968447922523 -0.7001090768253039
P 1.8480363419299959 3.1307219299329074 5.887236192719155 -0.27692760796483273 -0.18000961718984482 0.5997051843842446
P 6.9750256656623515 3.9489544423509635 5.856687446869906 0.07297125015140336 0.598040395087312 1.0986532067530692
P 2.4793318722729216 8.596098752832562 10.192308705910605 -0.43729631099529853 -0.12458846010706287 0.5923343458414702
