# total energy = -381174.6267469255 ev
CRYSTAL
PRIMVEC
9.20636439257494 0.00000000000000 0.00000000000000
0.00000000000000 9.20636439257494 0.00000000000000
0.00000000000000 0.00000000000000 13.47444488210700
PRIMCOORD
 96 1
Ni 4.302999382618257 0.2881960244964247 2.921111229304059 -0.2577160680333884 0.008940239912423311 -1.4433172988329273
Ni 3.5226587478002958 2.357234311786435 6.056371695951952 1.7925978066388741 1.2208860221437616 -1.2618418957308333
Ni 3.643289737736938 2.201665169761755 13.286907429440076 1.3155704956025407 0.10237618567608174 -0.7631661531867889
Ni 4.868021571840691 8.152898345430227 11.256672125923625 0.48138275979155165 0.5659280879337996 -0.05503780560143425
Ni 6.39074500193538 5.902577540942442 4.325809070526906 -0.8172541932804442 1.706930449077041 0.7299498143358203
Ni 5.683235914197383 5.415376748189095 13.065373767382194 -0.617565095383801 0.4291713678953189 0.2375884440455779
Ni 4.659635518477653 3.976329962186151 4.572162169795364 0.035610807225074155 1.4131135215560375 -0.5280125438349488
Ni 0.14140146817796564 0.10351267636813188 5.435280907560462 1.8120695422102404 -1.0172119714574417 1.915862919948823
Ni 7.954261831740766 0.4753494401359745 9.866554403663052 1.1388079245950837 -1.9568087662335654 -0.7476965967962801
Ni 4.137653081827438 7.474113113954331 4.050822337365374 0.4710754643282725 -1.5521333265970816 0.8535134327227946
Ni 0.14855020996883816 7.9952117396426345 13.2247092329956 0.529198850833566 0.5848745471293153 -0.2783399149313271
Ni 0.9342065994681253 5.836475846082861 11.610807813269947 -0.8634391764769387 -1.4324906405310682 0.4905119757863294
Ni 1.3314980395754188 0.10246775403295606 9.667118777562198 -0.5685174459275305 -0.9579531857961243 0.692795059662394
Ni 7.896703642846322 3.4083525300598283 7.734425823238888 0.24238020900726645 -0.6958181627594339 0.22888088896925096
Ni 8.268263295052149 1.9848829122605631 5.415675955025158 -2.167273100368842 1.6644627668311334 0.5824096305285904
Ni 7.113343320575166 3.7887594982489494 3.978532124499579 -0.7833336292735994 -1.8595645024674103 -1.5909189320057116
Ni 7.957088185546044 4.648560262361206 5.781142835412312 0.6322543219648595 0.9833651981113259 1.2163241138046923
Ni 5.799631976608204 1.9110018396633293 11.790799598208766 -1.2383489548152158 -1.5861395083391971 -0.02420102272623574
Ni 3.7495587995425295 5.480143520241623 1.113670859739051 0.1733759139234111 -1.6128524988540096 0.33791648894337933
Ni 4.173244885772722 3.3859902714506465 10.447168491271864 0.23641550678339926 -1.334046185809225 0.13216781511621753
Ni 7.38395518947524 7.491826158649295 9.691453960016563 2.455124811445346 -2.7582915556123657 1.871177147005674
Ni 2.70842028004738 0.14018438683250092 4.659583962838207 -0.10844501757798096 0.9633499313316635 -0.3574252484002683
Ni 4.461063449337498 5.774673523298409 6.454555232748924 0.7181561641350019 -0.6784542175596896 -1.512714201369511
Ni 1.0930808262357845 7.460395631316341 4.054810534330996 1.3108108694303684 1.235566249863756 -1.196910999385403
P -0.3075588496536212 3.54445021182991 11.471212633745386 0.863353558741668 0.08312685052816651 1.2148842960343722
Ni 1.4606449163846393 1.3776495432427 0.16223086715008297 -1.914666842758193 1.3389945309534361 0.8462649786904973
P 0.6217508847036669 7.27980359143256 1.9429608123005924 -0.09530899441665522 0.46465310574169655 -0.022249812537135875
Ni 3.8585713578757193 7.3942663173642 13.259863734642023 0.7787899757669748 -0.08402339420050692 -1.4179883331498353
P 3.197370281996176 0.12724576260469378 0.6832447942878692 0.17175149094611064 0.7889170368986478 0.3439056166472787
P 2.8813802440204928 5.3358982061664255 4.001896956168678 0.44972913744201254 0.7320953999239134 -1.1374750647162732
P 4.198442704551368 0.9935968548356962 10.562334583427356 -0.5886281006344766 0.18381150743443828 -0.33121799387728124
Ni 1.5958219617360643 4.707913692272032 2.099979036048239 0.03785435184361222 -0.6092648030482217 2.3861128030520065
Ni 8.702684001923885 7.077309611148927 5.727932812323187 -1.1138278576109786 -0.22980648610731388 0.19371925346645347
Ni 9.072337936743091 2.178004813802267 2.144673172264786 0.9767957724239241 2.236351443223742 -1.7283140569591395
Ni 7.979754254173382 9.30846276540027 1.293598200128561 -0.23933345176114262 0.04994316468734624 -1.8560102094572488
Ni 5.349864260637454 6.85270194408915 8.399982430015099 -0.01977821106819174 -1.1054396335472834 0.45615638112459506
Ni 1.075312543355702 2.5317133258503324 6.474173994830507 0.37597550059862994 -0.17614036404242567 -1.2645261274312158
Ni 7.98695363096728 6.4216507665097 1.065271161937409 -0.5410490653039327 -0.6513110814859944 0.36646833243914306
Ni 7.537370042280263 7.740158626217867 3.078020817954304 0.24939083599714468 -0.7165363691433918 0.3384847027420235
Ni 1.9561682623626475 4.361782017949514 10.031656735802928 0.2184254979638819 0.5776147802431084 -0.033370862150961876
Ni 7.408784753686422 9.274583345193687 12.202200712068397 -1.6308790173384173 -2.287515367692067 0.27758195371938
Ni 9.212992768785526 1.1727250828138118 7.950232206136303 -1.3611096176849204 -1.29880536032906 -2.243605296572678
Ni 6.813933944499499 3.9828940998511766 11.630439464261391 0.22094852149605174 0.1267535860791817 -0.5245443827806902
Ni 2.0727300393288255 2.012621687554702 8.568682609279085 1.9315337937168604 1.2320883186174847 1.3334658878257226
Ni 3.3981518785411073 3.915632403104087 7.8579190718011365 0.498165121456213 -0.1690405197728508 0.4542280537536307
Ni 8.575424429772912 0.5539211552862664 3.424341222742646 -1.1324768401707335 -1.0805798941911262 1.0973594276423102
Ni 2.57339053652294 7.286284871819906 5.820569090041304 -0.7323255136568485 -0.09463845071219185 -0.018691919982548454
Ni 2.0063613599078334 2.380682921369632 11.268637637456912 0.5163970710832073 -0.5306013876080475 0.33037492915069555
Ni 6.963997680740609 2.290617060532406 9.80290068104068 -1.16757214121197 1.9511551674922138 -0.4497129394920965
Ni 3.094489162211243 7.586973932517508 1.8829859528071742 -1.5001654181702226 -0.8665352989037592 1.7502815623691663
Ni 8.375535850554076 4.811374813000718 9.723887060409433 -0.8772022916993022 -0.47010230178172585 1.719411355152871
Ni 0.7193217736257858 6.573215140113221 9.393385951202877 0.1356791707035857 -0.21106005873774616 -0.6587320565404139
Ni 3.4564189574779163 8.796137804781768 8.930740373007952 0.6003872980529337 0.36498711990792626 0.08836213078517685
Ni 0.4129017512220435 3.808718895805436 4.464582121729605 1.1320590359070246 -1.3499145203000493 -1.2328876745903283
Ni 8.84046644834011 5.8369914024773095 3.747688066339818 -1.0700028900062282 -1.1997831787268756 -1.8511834774925666
Ni 7.87026296490249 6.22814219767216 12.14583750924537 -0.3176307421111497 0.2739405003120508 -0.7733510641395908
P 6.403523435426341 1.0438543969301883 2.4056192794053786 -0.13798365046704625 -0.23178674976213628 0.9372195527931988
Ni 0.6646092719014118 8.120280197117204 7.701952214843596 0.911410819260211 0.05703632408870177 -1.1786391976594088
P 6.138242051390291 7.123976671210656 6.381982384502601 0.39665642598674916 -0.505616949748568 -1.696759164970994
Ni 2.4101524931308465 9.140455825359531 12.179213341330948 0.7926006563978221 -0.4425950975003926 -1.66164843731079
P 0.9389202579316498 6.00794437905775 6.936442112093783 -0.05764696108950716 1.4124743453101416 -0.4539683723343408
P 9.282961136603468 7.852688015670326 11.044207653225936 -0.20955982004313584 0.5730999230918904 -0.305732448011667
P 1.1805965241933303 1.7063719828884114 3.9737890056706577 -0.7559009869839434 -0.4448373565673501 1.083747236175514
Ni 5.399937675448214 0.26564043223932526 0.6165124634815079 0.30563371765027364 0.05284748281833479 -0.9402441985521355
Ni 6.7698354600458215 1.295335441050567 7.415606669548671 0.30995522784376295 0.23083595581309277 -0.7171421210481908
Ni 5.872574000058407 5.963459227308238 10.682768557170407 -1.2636480957016367 -0.3417204360705018 -0.47399880862265464
Ni 5.457808880725001 1.7799676581958614 4.181686201095389 0.8058032711310252 0.4258407608601891 1.2612808810210405
Ni 2.3094809007506902 4.5253330777239515 5.85752988034113 -0.13454711398167152 0.6137416078726526 0.0795455609348114
Ni 6.009656762796452 4.700428918188349 1.80408004663691 0.6765220335339833 0.08996675626813538 0.8255501147406491
Ni 6.661725125402917 8.828608651267805 4.962126264646566 0.1150607231222857 0.1639268526953693 0.5218087290170821
Ni 4.556413763217816 2.769191490042936 2.0153053427150875 1.0149244609748456 -0.4126857115354699 -0.28820395220960043
Ni 2.9564673503261676 6.655335908657436 7.92632880216229 -1.2501351488168664 -0.18861689924288164 1.9087260517937257
Ni 4.771502049708679 1.8147677148211003 8.449500701065409 -1.0809424197368673 0.08672305251985711 0.12990601566523435
Ni 7.458821343040437 8.291463332802309 7.531716414033289 0.5912519114105688 0.7934051545769883 -0.7926595346602155
Ni 3.4566491165825806 5.091892729765543 11.948787252105255 -0.4192029438286974 0.18592315446080238 0.5274075632610981
Ni 1.512375476748983 6.083482597208566 0.3106245689277494 1.1900268706710602 1.1740559491641005 -0.07526724527443167
Ni 5.850543170559941 4.104860012594871 8.93459415705645 0.14706478683270802 1.4168367360438954 -0.5909312948463564
Ni 5.888988947403064 3.6723542294739437 6.566837891641184 -0.6060887193130852 -0.6678954682072368 -0.25703858235038957
Ni 1.7280069387268535 0.2635027144752034 2.356424151738017 -0.943096580399266 0.006363737434498718 0.2627767703857474
Ni 9.26574523557458 4.236731973203318 0.2941203198504832 -0.8586324991169147 -0.7570466705526123 -1.73844060387018
Ni 2.5750568884407095 0.7051053060488826 6.878420843080754 -1.425325490241197 -3.395498336486494 1.0703759570749307
Ni 5.481947967622191 7.373386283389056 2.0233903717437345 0.6533479094103651 -0.7664329968635187 -0.7736498263269321
Ni 7.8944572899848 2.1251786960997214 13.021864490236458 0.3996864710623245 1.213786177874187 0.8722678305121623
Ni 0.1147950756787749 2.533600630508579 9.629673732506157 0.12199241724511248 0.7429151162472367 1.6539466977911579
Ni 4.671944427395097 8.841184544746662 6.503063565647967 0.16611357593404294 -0.12176873127008062 0.23365671309133954
Ni 0.2045580471342627 0.8815001645000053 11.587173235130182 0.6394287282261116 0.4270484080150451 0.813584971958973
Ni 7.898084597474309 5.8925702230716395 7.803589554826924 -0.3527995767027989 0.41615130148656715 -0.6521469471237284
Ni 5.8759435293506925 8.863408707893045 9.145348087288276 -2.0167807759118235 3.5768973778246975 0.2400065665687673
P 8.235000701246069 4.1800115634498525 2.150561562798517 -0.45560153706238954 0.9455738382951651 0.8194967094577178
Ni 2.570048626323215 7.177125011659732 10.833574326364953 1.1492887695217495 0.20397384131492616 -0.7511490741212546
P 3.8916958562190023 5.3314239131717525 9.377593354077232 0.8047989982362269 0.5701855776585728 1.477039887896353
Ni 2.794103911531798 3.003990602257248 3.564246656740294 -0.14411650283766148 -0.1233029085264199 0.46434688735518737
P 2.1270475880295954 3.6715440694255257 0.1760910484329659 0.8797754517431171 0.7497069423580895 -0.13665490435329367
P 6.282100698169653 7.483153763585545 13.140857667984312 -0.28678624592646734 1.136265103568572 0.1601329328705758
P 5.749263958143473 3.2110969709983537 13.494252243013614 -0.2005822991348739 0.41775335586636436 0.9420277728151195
Ni 0.8894885267046931 4.252677395974459 7.993916404201584 -0.25018453554303366 0.005936162978776874 0.01670908522456477
