# total energy = -381170.5206559049 ev
CRYSTAL
PRIMVEC
9.28567472774017 0.00000000000000 0.00000000000000
0.00000000000000 9.28567472774017 0.00000000000000
0.00000000000000 0.00000000000000 13.59052357443127
PRIMCOORD
 96 1
Ni 1.604555288777705 5.7290569561136975 11.255372349694541 -1.2690101313444984 1.1452914754368984 -0.7819406055808146
Ni 1.12225734897994 7.136375230273684 9.093581869795315 1.3443349693297428 -1.2574882467478279 -1.5855437837367274
Ni 8.678540071275085 6.428296112074251 12.398376681479451 1.0397186372003901 0.004283714977018429 0.17131851717375013
Ni 3.1863885317586225 3.577705431623032 8.784723617697408 -0.3552313260727431 0.10410011034572393 -0.7026449558732801
Ni 8.572079811749068 3.8676784786774134 1.4694069375111172 0.919568415370339 0.25758211355868543 -0.05329048389302435
Ni 1.4037711464548888 0.8885926328253201 11.29076191280885 -0.327856533604216 -0.1444353196296609 0.6181333091824451
Ni 5.218753421659983 5.727849818413009 11.771227789003957 0.7380089371948709 -0.4654694309954048 -2.1702388678653852
Ni 1.1507086560176827 4.495046513073956 13.39506478113149 -0.7494544600276513 -0.24551978307751265 0.1222785810269636
Ni 3.823237239942872 3.826310798242315 0.9446103221094552 1.229861743279811 -0.2639947019532486 -0.12152601913165521
Ni 2.3661848925145605 8.566118408642595 5.629439310215654 0.09762041615865123 0.23881845979793706 -0.29202538283821966
Ni 3.076678286115369 2.307471571888044 6.03332251354422 1.1190669945227307 -0.3427874438824354 -0.36542137923186746
Ni 7.023749282799539 8.886539182778165 4.369597977516123 0.6732117382138276 0.8577218143771873 -0.5401334954681989
Ni 2.8217215180555457 7.106698214186013 12.752899095659442 0.9848487246353879 -0.20296416910348913 -1.5384643137504213
Ni 1.3226329216194466 3.5691904679958744 7.2947544823062715 1.64352910200226 1.9140418075796843 0.12285090859066586
Ni 1.9178632361538388 3.1394587322257403 1.9549557919935796 -0.7152477322389552 0.09483308322150119 1.039038323303914
Ni 8.130759554052332 5.5897996938274614 7.479803120416895 0.4670542589840214 1.3195112254178438 1.2553614302128122
Ni 5.862529243111254 6.859049272052658 6.824793489809533 0.7929205016310861 -0.27953573501164114 -0.8803274675918451
Ni 3.8595349420350837 6.70597492593086 5.52196598358852 0.8986771737436265 -0.37724691111188574 0.32024632535712594
Ni 8.125578147613998 6.594955400166093 5.196241232109623 -0.0624037590482022 0.4984654263054512 1.2358979221715618
Ni 4.4984636413343635 4.3155915653548265 6.656216709908521 0.3156381371611532 0.5153287777196931 -0.32258474368231543
Ni 7.7871710217381835 4.89415409394511 3.465488053832196 -1.2890169134837284 0.4160592559933931 1.029881082284678
Ni 6.173599342903805 3.8791741438578073 2.1768351299196413 -1.31654082993561 0.3185925918037868 -1.7488905955589107
Ni 4.525113527495695 5.693827106602863 3.1689834632496328 1.0716234563287865 -0.09998557395671812 -0.06659594275267887
Ni 2.477204418279329 0.5435378924885667 3.6176616895157885 1.1510137226326564 1.4208980505974627 -0.8572034799798721
P 0.6843449338689928 7.262233264082288 4.299267349371683 0.5075074819030615 0.2102769007148185 0.20614230972115463
Ni 8.58398404661277 7.9494846141075515 0.5131458794551034 -0.7084425363916638 2.026328567501259 0.7552448414571832
P 0.9605937538340199 8.024689292860383 11.085953359105435 -0.3159001325732882 -1.0652484060403784 1.6794600115709142
Ni 8.460326717689266 0.8184180040145066 7.88526210272859 -2.113598493663521 2.344124374435363 -2.1234481327640915
P 3.4180568278697976 2.4750501417673325 11.992210130761661 0.5176718240305729 -0.089474132902433 -0.3422032892441913
P 7.294203841801266 0.4405569752429149 1.6472805348423465 0.820387082482471 -1.7908908512500963 1.0164740648501527
P 8.649670908879413 7.80034739402492 7.688281372730401 0.039561564342706065 -0.8003473902227765 0.8851488002398886
Ni 0.22052827226875357 1.3628306070523408 1.8669034538355844 -0.8913940098186519 -0.36275900190835586 -0.8616471175735224
Ni 8.237600526237799 7.432541822300054 2.87613557133269 0.5795587913433566 -0.5945868893210727 -0.5238139323725689
Ni 7.125483133943634 3.7591010853378823 6.594638758661527 -1.3358824676870154 0.9913579865088151 -1.917321249661904
Ni 1.271561711205744 8.369921389582391 2.1571151427277178 0.04054783951537533 -0.6418455651977205 -1.1147763375671769
Ni 7.220271300471466 2.2174283850913765 0.4365483495091703 0.6967391319118065 0.8942746738005566 -0.9591189239694515
Ni 0.30634740568047714 9.339067249742051 9.393389374840451 1.4410362161082344 -2.134425457711201 2.0892522036086727
Ni 6.657847274371912 3.1003938990965683 9.24642128834921 1.9619787404702789 -0.8131584259445157 -1.4214888901039262
Ni 5.6245652596072615 2.2188583789829597 7.1140543256205095 -0.9730445329116081 -1.15097695585745 0.3571748229523591
Ni 2.4430981353975967 0.22621667654137795 7.856518296940296 0.2595412941675853 0.21307966027093625 0.07248479743328806
Ni 8.738330530157599 2.212544120240902 10.282291220630642 -0.3990712060758288 0.4756114045254131 -0.7104094303100476
Ni 5.917045438809226 7.5990803966218285 2.0736424992926383 0.0008438360575340306 0.5277546621878717 0.07080843817212967
Ni 3.4555152392895936 0.17669153095201756 12.661542914471411 1.80414257405368 1.568531565449447 -0.08288593816195403
Ni 0.5381652011530452 4.5527848378653015 9.44084752925925 -0.6054058343134477 -0.11366178589223007 -0.581736772831282
Ni -0.056885899861168036 8.921128320740172 5.967788864908819 -0.673854256893833 -2.200143111623985 1.3406256387989557
Ni 0.08812012358272642 4.6389187556466664 5.59481117242024 -0.7196114085242897 -1.5201076656201047 -0.9118268237517071
Ni 5.0810097243369166 1.6004510205953675 1.3313493843858724 -0.6111566207542958 0.282182685716185 0.8279954909573481
Ni 2.421100372221222 4.916151857121484 5.13117001007033 0.4088941057035216 -1.496852551746906 -0.6409248531556639
Ni 4.879046301337274 3.7209091056230537 10.203140130164021 -0.9715800325509397 0.13624018541337826 2.211236136213353
Ni 0.8533293548858516 1.6697685816386927 6.29430104159555 0.30237304462113085 -0.28843895103854195 -0.7943037551318579
Ni 8.200857111763796 4.1836978430427845 12.344027627924651 -0.03681074107044628 -2.2170537713363947 0.7914261764737466
Ni 6.473350205333756 7.363753544710108 12.493822273770427 0.6248423457715045 -0.056025880546316416 -0.46746692104140786
Ni 7.294575268786092 6.0175257238795306 0.8260090430169069 -0.38686155138351436 -1.4241924050780184 0.3119930842093982
Ni 0.2153784371241282 0.16028002962743976 3.917183195782609 -1.0890264822965825 1.0999197321703187 -0.8933051107984357
Ni 7.981789476112874 1.6680600175084888 5.614218232377445 -2.0040718129855875 -0.15543398473300973 -0.18766687662478648
Ni 4.072334747317051 3.1796192749601517 3.4544938150813196 -0.6295058126854449 0.0510022020794799 -0.07278741627537141
P 5.985471575088967 7.188792863507384 9.810781377607173 -0.06990520963156992 0.5874834455070721 1.191977823749844
Ni 5.010791452855386 9.117538910316652 10.947003452649144 2.7093302952223146 -1.2816085368347991 1.0419786368791604
P 8.641146659577634 3.240096873764596 7.851231962378747 0.05640203293881254 -0.8246486859723025 1.6528467798587598
Ni 7.245194051153353 9.334331555685507 9.809748810589353 -1.347462459215131 -0.4265730110405234 -0.5103585781986113
P 4.202557048197372 0.20560062174855936 6.3828167349171165 0.6545727829564016 0.4413524833425431 0.22340263946349914
P 3.0265077861398715 0.8551261329249519 1.3752251255360153 -0.8899644764609769 0.6014159964277642 0.30080390036179805
P 8.909419085043503 1.9558880737254953 12.429756690292553 0.265107218291137 1.2245220762344524 0.8149985644770481
Ni 6.204641353160715 -0.014189439387850687 13.543758145967253 -0.8930827103749844 0.34220868856083 -0.6949982379612999
Ni 7.482860893069482 5.204917766475179 10.500677287764404 -1.5522467122464945 -1.2190939632403455 -0.6188514182953923
Ni 6.412909749227794 9.151478051055213 6.690723205366405 0.02626536145443218 0.28165098158243107 0.09407872155397991
Ni 1.1709142839922673 6.52361356205546 6.429078894444772 0.004598932224592079 0.8336298064249901 1.0865422824221482
Ni 6.72609698283386 1.7709452923055478 11.430377602135444 -0.3752360513294441 -0.16389265702332417 0.10787731799996904
Ni 1.4480731000701206 8.794165291651709 13.336367246151829 -2.2178215027403545 -0.1707755001860865 0.4578185993183663
Ni 5.449753149198469 3.2563003759776707 12.568815239141907 -0.8936964326995835 0.6985743853483324 0.8321285392891153
Ni 1.722687641301909 1.9064789990688933 13.47103552804053 0.031915617761674064 0.8112576093773771 -0.1537583968027997
Ni 8.37513065304459 7.132698103123897 10.216689786570507 -0.32834298632233133 1.7799016992284442 -0.9418459958216167
Ni 5.4465588771289575 1.4904064906657697 4.743650022558315 -0.322991749312747 -0.10553812834383114 0.8903894798135374
Ni 5.790082409720762 5.422648264980724 8.600327762512617 -0.17644786798051548 -0.6333475550290383 0.45169346025723495
Ni 2.588335372139546 5.847792877488246 1.0492097324414902 -0.9356200695165628 0.06371656432235479 1.9740914645734133
Ni 1.5022735828309899 3.325859364561134 11.212725103296714 0.25687197486553826 -0.054113236904635834 0.4040524613405041
Ni 3.633373050973968 7.39854696751377 7.92800499157501 0.479518195778987 0.863915344782409 -0.11161930154090455
Ni 3.579432567102477 5.8379593480649525 9.796769294604577 -0.022978463173044295 0.08053517854159034 0.3278632184724354
Ni 7.18225574857443 1.968655876328921 3.0946163523475856 -0.9948094353925254 -0.8303490787911894 -0.12974609304860235
Ni 3.3078080130985454 4.744896160092409 12.343144560268225 0.3339811584447151 -1.263039258473044 0.33000803272958007
Ni 3.621468816110265 8.117713181210288 1.1571361999901124 0.4123864351274962 -0.27706619042522607 0.8553065200674753
Ni 2.6366858798893906 6.9812858927592005 3.4804649184278804 -0.06481005449684968 0.2652242034849755 -0.17854537393949252
Ni 4.7947788041546655 6.1126388890190855 0.39472752815258244 0.8523741769120288 -0.05694710680900515 0.569767773394864
Ni 9.031423563884529 2.7729995833208734 3.876180442360102 2.760565953468839 1.2560456007640304 0.15627422124611798
Ni 8.221322738627759 9.25188405072855 12.037670008002092 0.813148912862819 -0.9341843655113008 -0.2769576898718198
Ni 5.01470072187069 0.4420092547535882 8.724844016338533 0.49216648067061686 -0.6379680845201852 -1.617868721121678
Ni 4.671288617374333 8.568727683211005 4.008960018030956 -0.9265163074430817 -0.32717184883236555 0.27209264847003467
Ni 1.4765244071078631 1.956008787495564 9.118792476390443 -0.14800298237626122 1.3758584938593208 -1.2385531004062218
P 2.8568770821694143 5.473171620591806 7.597238118777087 -0.4277642031351472 -0.5679302059654928 -0.30029379349459895
Ni 0.7337326514739672 5.224194826987697 3.1350619652928517 0.9766304504906534 0.2651434708457111 -0.28185204184964363
P 6.048586305485682 3.6042717467127776 4.355300824302673 0.23232051077841925 -0.05191005860572996 0.7479670768488472
Ni 2.985307247847945 8.345945777711814 10.32719395739383 -0.8265662147099894 -1.6654683252775127 -0.6065183506513361
P 0.2872644157675317 6.152223719927016 1.0894055607394604 0.2546968215910904 -0.8125524169294007 0.22942930527355326
P 1.9271210537506498 2.7323004714584624 4.150478342087326 0.06007562513565783 0.5545743534838771 0.7205951125937977
P 6.165232950070578 6.8997205268912065 4.514772071670651 -1.9052175244198348 -0.21372937803979322 -0.8756470313970403
Ni 3.4532123919836666 1.227185472193547 10.075619960598317 -0.29578896364570995 2.8597341737305846 0.9069188449271284
