# total energy = -340859.7556777515 ev
CRYSTAL
PRIMVEC
9.35813433003590 0.00000000000000 0.00000000000000
0.00000000000000 9.35813433003590 0.00000000000000
0.00000000000000 0.00000000000000 13.69657552672333
PRIMCOORD
 96 1
Ni 7.632372701057931 1.0533328835374751 10.409630208404979 -2.054672665861591 -0.6337874707799342 0.47748959538473246
Ni 3.0969061089822465 4.580441785649497 0.9611094055619117 -0.7822141709571755 -1.4381306124256652 0.49316535424877644
Ni 7.986372206365912 4.966071784981506 0.13284246002032618 -0.8983367596850722 0.04638167258833303 -0.1710251543030474
Ni 5.260993388285434 2.0810899859602543 1.4621364309025324 0.8926499937129402 -0.15499072654800403 -0.6129299106046348
Ni 2.7462755320318553 0.8407712846288363 8.497793311503127 -1.5915863903863814 0.9134077950855818 1.409088459557044
Ni 9.453587296767509 4.601020323033769 4.3268990448976545 -0.6923579721249754 2.1742808991452427 -1.2087702127168345
Ni 3.0133660438483685 7.931795566972971 3.147350196256544 1.0658006789994223 -0.10110554649377426 -0.5081307173093571
Ni 7.144664172490979 5.733916064616302 9.046067685432067 1.7036882879906594 0.38642420673577965 -0.18962400035115728
Ni 7.803102503713076 4.241939350786426 6.782749557169531 0.4873286929623414 1.365309257588565 -1.2313013039398149
Ni 4.44390660582388 9.109928529890462 9.861164928535777 -0.48935883601849267 -0.36176269943335765 0.19160426400597969
Ni 3.4801591421952898 0.6232199284972354 11.994009140576058 0.1000483088738535 0.3212436562733887 -0.603127322691916
Ni 1.378013354000105 0.8154425582603638 1.4606166698878866 -0.870523594127546 1.0019879554188356 0.6658378143472597
Ni 0.7206839616957147 7.365787528495058 4.691789546934973 -0.18854979345037207 -0.26176761239494273 -0.023346902256056564
Ni 4.94478202938841 5.597034633820599 13.139001206589201 0.17612596586472248 -0.5328135647680178 -0.7937663945711491
Ni 1.626574759849879 4.198929365421208 7.711609896028422 0.4085405790188448 -0.585731752923288 -1.2017171625247949
Ni 0.06107492786935604 0.5137166554875389 7.502012018261029 0.9474929096947489 1.0289212894745698 -0.7124902240984762
Ni 1.3308015663222272 5.690157428504953 9.492576091812573 -2.2808179010672336 -3.159518374578617 -1.706400801825816
Ni 9.149990702942791 0.23982933070959023 5.182592810523745 -1.0624782994944089 0.310513157229762 -0.08268179257094793
Ni 3.6384894168676416 7.541748528238791 11.945413284831272 0.658264372875376 0.1579896612753279 -0.6082641296978493
Ni 1.855942632195723 8.213213382443564 13.412426239531413 -0.6915491030704348 -1.4060918388225656 -0.5521071228903073
Ni 7.398250896474156 0.2247898730332538 1.1945031472950745 0.21381293889253503 -0.056331584712193315 -1.9525096246375793
Ni 0.4365579021509938 0.08305531377575827 9.589822080481241 0.42534762327385456 1.15612327594508 2.78456077372154
Ni 5.895128644661257 2.9885857041514368 6.751630953093169 -1.2910087471027767 -1.2742248427762184 -0.6321381081019694
Ni 4.039232803137168 5.123934152937525 6.1309704743342675 0.3843359567481832 -1.2929257616198313 0.8140236021582883
P 8.261473281166026 1.7833796586269888 2.4618771507782298 0.922825745965372 2.198024522619085 -1.5183014656493012
P 5.74493994685308 8.11247306641733 8.143586991426528 -0.041974030438940615 -0.32412354892434503 0.3500744644621519
P 2.057591710666072 2.158425608035573 6.7937481724436255 0.05254409264530306 -0.5640100449754802 -0.1778087528837841
P 6.483624279926078 4.008921806053194 4.331008201680481 -0.6522431063819606 -0.618608963267283 0.4196986525181933
P 0.7527000108540012 4.450391792912239 13.812311484883187 0.4668092328527509 0.02657029428936069 -0.3289399964763819
P 7.44884097064395 7.272337199109272 0.5780472782891315 -0.44959878251173535 -0.5641252303971058 -0.013898355248647033
P 4.308821936818893 2.1340944587863198 9.158735879471031 0.6419831192168491 0.33646073033345925 -0.021518847908382294
P 3.6606869114904215 4.817445895605876 11.425436973292646 0.9041682787651847 -1.1527852127107825 -0.4537503427862637
Ni 4.357446802780092 3.5988296435913587 3.1394332146162105 1.03265633103697 -0.8974960089513317 0.01822037966276862
Ni 2.8925057390198665 2.5887406987772676 10.715556977677032 -0.7333308149929112 0.14423940156877094 0.20469914951672485
Ni 3.8223206075800755 2.958003321171991 13.002008413995013 0.7051106438049535 0.10187379211836647 -0.47113742791445956
Ni 8.23670229960342 2.1353297325174356 13.480361615675626 0.6510945945998141 0.7720282315631092 0.9618895447360531
Ni 7.4013577970706 5.811410774975173 4.872077747991343 1.3885710563299827 0.9612760795217703 0.6685202462754294
Ni 9.458827851990426 6.831625221130684 12.825747018139394 -2.254476692069543 -1.092302581944693 0.6462524360161644
Ni 8.435057314790793 5.729012402229144 2.4985703954729686 -0.8374355533243254 0.386590814220631 -0.44563799809177446
Ni 2.079358731109827 2.8847291293944326 3.317584953605809 -0.21201908021690583 1.360174764575477 -0.7217580225536473
Ni 7.357926695660683 0.29439006127417505 3.40222927859023 -0.2685625238295891 -3.0080042937253038 2.141846689875937
Ni 3.349032964010469 9.487276580343398 0.48551311025392385 3.126376597719325 0.8215263382932367 1.7809483953254037
Ni 7.602595117630577 8.549628953351794 6.988554583094338 -1.637693469157089 0.5770691921522836 -0.3856798723705874
Ni 3.130529885617849 7.69351875074817 8.033890940849702 0.7107470161551243 -1.3261670401714643 0.7979521505177225
Ni 8.048931334339471 9.205840048604152 12.546090403549073 0.9339591368743722 -0.38934523703731655 -0.10337814457803486
Ni 3.8748665318241358 0.9637006729569572 3.2340355303376045 -1.2204746456379563 1.4703539912357453 -0.8871583744707496
Ni -0.12490582629790632 3.669652004175339 1.9966318878489333 0.7948907379835795 -1.23273083729749 -0.3900684883565863
Ni 1.0644035564458851 7.425061951319968 10.860466751911556 -0.49166871509859195 2.483117954224162 1.2439372475362707
Ni 5.225198524486053 6.839935244412737 10.009443631127889 -0.7477392771087573 0.5841070728356714 -0.7165412542393983
Ni 8.856444745384877 7.505878799364795 8.64688055690106 2.886055071013301 -2.15326084525015 -2.4829467187536207
Ni 3.7572160670696704 2.249976236153051 5.246116762146381 -0.10833137481825213 0.8943371516073758 0.7007659936830124
Ni 6.096815155668913 1.3859490519090922 12.908118252295873 -0.6435658903229369 2.3645381622050246 1.764925023313954
Ni 1.2452682185767758 6.34339263704144 2.4101042084295496 0.017140773445344672 0.5266033221922479 -0.4908595889337353
Ni 0.3452000516006443 2.764636191580715 5.37087940898909 -0.37274130993204835 -1.750271020846205 1.9723652259109257
Ni 7.767204700436101 3.595666594188956 11.476826232133932 0.7406276057646406 -0.7833984210732637 0.6285601609427239
Ni 5.222306860979122 5.6988792096973775 4.033791983839661 0.45521690002946125 0.7950822851690952 1.0478911457088533
P 1.1236592630021434 9.625683387034341 11.948481817076976 -0.36289192794179437 -0.8122503123079495 -1.1548981452887273
P 2.029311428730978 4.563887246025678 5.023287418254558 1.7513961355895837 0.18897325414103586 0.2819569428586241
P 1.383899620491559 8.261969262285337 6.795816320129813 -0.08910749359163364 -0.4593352930732089 -0.6304704905915592
P 3.1078551261444103 6.640316881091268 1.0998830511184596 -0.5889029515624181 1.8347574707260594 -0.6801498600945577
P 5.821433336839 9.384056358720605 11.544542627934904 -0.24829426049885625 -2.7547004958269974 -2.4021279475333404
P 7.752306550588097 1.7559228925126393 6.370359036917074 0.31474210770944505 -0.32523992191697537 0.11242354260975478
P 6.141359875063699 3.622926839482446 13.456132470090534 0.1880952224114567 -0.07260589639218464 0.02755734079297835
P 4.421961780827919 8.909608306494496 4.606582798077521 -0.8828813443619504 -0.4153339477915943 -0.44921774502323286
Ni 5.334772919316631 9.040163638485392 2.073168325252757 -0.2853873086964117 -1.1707633944557578 0.02083082070242219
Ni 7.555888669206337 8.13235910186143 10.123440680241236 -2.3777626313150986 1.0277630075004107 0.7118736735603999
Ni 5.440903520715008 7.722323088205555 5.909045126218397 1.049344076105296 -1.8355848517233613 0.9499750526866542
Ni 5.051998174368676 6.169930259162919 1.7615443238026496 0.6141599263569939 0.4673278243603823 -0.28305531812912543
Ni 1.3141347290864889 2.02791706671631 13.092460397142544 1.2502418495980596 -0.011734514828108823 0.9499048615703511
Ni 5.31969696491642 3.0641713551076744 10.977791553591453 -1.4194494910763942 -2.663830768128619 0.8430657550269093
Ni 5.6569454097797225 0.8544014072755814 5.821524110741969 0.47229056768229627 -1.8377767171683572 2.4916298483499153
Ni 5.954346918680209 0.9284775911649326 8.524638991445947 0.5888792974133342 -0.6392083846851895 -1.342442123182404
Ni 5.5945360119553875 8.329207457422216 13.450721596822873 -0.150009985503961 -0.319018880707928 0.26500900215037587
Ni 6.093212273953157 1.9317341621071467 4.06741763210213 -0.5685518987098919 3.0222595180927367 -2.056939864629212
Ni 8.781851056667263 2.8139535594820857 8.147325566090018 2.0911774456558434 -1.12208881206819 0.8337359929855512
Ni 6.854337413141429 7.244253437995038 2.939052163347121 -0.1785787982805892 1.0869513449351087 -0.2390190058445174
Ni 3.3921833213905868 9.339960829773498 6.6132821668350505 0.39319417846976157 0.9065604331464452 -2.972580662810371
Ni 3.8410930250393074 4.333854946142643 9.199565419538143 0.238890193576137 0.7364464778037575 -0.09892936477806188
Ni 7.16644055106906 6.981804560804536 12.01855365528796 -0.7468419621054686 -1.3471037903241316 0.6821483785818251
Ni 3.0349739760085703 7.085342958994435 5.576150085443847 -0.3054288007283191 0.5733189810812319 -0.7845070807564103
Ni 1.7445434011714502 1.0807990077861511 4.591215805699753 1.4759502543765999 -1.5660062279244322 -0.17272928147834768
Ni 9.398935792299955 8.029092089567003 1.1505985242882297 -1.1368973378359322 0.5506819604080064 0.10156166019458637
Ni 2.149582171096902 5.836668379522764 12.567429757254102 0.32100197257622776 -1.0896209213474717 0.8118258231760211
Ni 6.180523667220671 4.972229437368433 10.949768620350342 -0.6588474990723556 2.6771148868320345 0.9366577667524579
Ni 6.801192568300464 2.9370223840116734 9.157475338777234 -0.5133048053111289 1.931149156683932 -0.04229387567220458
Ni 6.737351375924154 3.9943605490409486 2.179440234479466 -0.08478881161162172 -0.3435171229596084 -0.3716843294224438
Ni 0.8450647966578968 3.686187827530504 11.696587979593485 0.030850923942585574 1.892485164454831 -0.8731332638362511
Ni 3.1571257033741476 5.490239604885032 3.2873563081039103 -1.2990164478986015 -0.08472273426037667 0.9958887844996334
P 2.839024001343143 6.83992588627841 9.93646796383535 3.950981574937886 1.6084091183706752 0.9248841711562975
P 8.808783767259321 5.8090805995278405 10.76060516469859 -0.8906959553103628 -0.18757277424908342 0.4644366188555163
P 9.323293992537758 5.614702791429288 7.375920516343938 0.07401691780709833 0.49864488930610895 0.7274823266319342
P 7.842406667884946 7.963893967713332 4.872228413954002 -1.0761349710458952 -0.8661177517503664 -0.2743043114093728
P 5.888746397050491 4.864900994776247 7.639977121011756 -1.8942342859354537 0.6537253473544419 -0.1036841058542279
P 3.139878661810158 2.17448416654008 1.2046819900021564 -1.0419791510997924 0.87788980468463 0.966684137911219
P 1.0397729468981798 8.678677625716103 2.885553581028609 -0.1123708349949484 -0.43267655283510004 2.2170013208319044
P -0.15060700641257896 2.255329088987887 10.444871070652225 1.7782425663584664 1.2716064313167648 -1.168970050000761
