# total energy = -340897.321794145 ev
CRYSTAL
PRIMVEC
9.03187729409456 0.00000000000000 0.00000000000000
0.00000000000000 9.03187729409456 0.00000000000000
0.00000000000000 0.00000000000000 13.21906537606291
PRIMCOORD
 96 1
Ni 6.434236918451226 1.8206277015288788 11.378468831142486 0.23405086320596463 0.612104843600178 0.5222936390733005
Ni 4.733931882291423 0.2414058147813957 6.076315374455463 -0.7699435811199385 0.4160348305133609 -0.40398715532020746
Ni 2.755083759509317 1.7057151304816816 4.749650057831267 -0.06982936208831199 -1.3198490683732367 0.008423705287320974
Ni 3.306145670796172 4.107679594995143 4.722788352451131 -0.5485122064501973 1.0361363191657704 0.11824092062248023
Ni 5.308892140115327 4.568386608792713 2.814973232696212 -0.9886398162467039 -0.4461126237353479 -0.6035127310557928
Ni 7.252272081925779 6.046877777755461 2.4628971194936407 1.1510178363977144 -0.26411297269866774 0.770690486588292
Ni 5.016385771653916 4.758046993876428 11.436553735305155 -0.3329516887389362 -0.3883347934949312 0.41159042158876213
Ni 5.612363207252466 7.979636232216114 12.317815650517412 -0.1357655597698049 -0.7425829297187985 0.34507983946103793
Ni 1.8806354923044488 6.514584496226583 0.554002690437445 0.10347636071879598 0.09775668462619938 -1.540790905001069
Ni 2.6310670564480056 1.512893588448622 0.38346549852186973 1.5015365874861366 -0.027104569526275896 -0.7175311289564933
Ni 0.4672217066763206 0.41668835487178796 4.765961627689888 0.3760852867036168 -1.0552491287358212 -0.09955362862562209
Ni 8.833717616790201 2.3092251514966717 1.210125201341937 -0.25857430226862566 -0.4994709847518301 0.7951468198584434
Ni 6.854146943848246 0.6884746943117906 4.768156373800434 -0.16382323723796946 -0.015307062670715573 -0.5516790342139531
Ni 0.8082148036144879 7.465108263386692 2.459605000327822 -0.3826428853164765 0.41570830041187756 0.7089834964967984
Ni 7.519498226669427 3.9740439429308245 3.9164648238800512 0.927112289155868 -0.7216101841218734 -0.4556961536587249
Ni 7.662527030811799 3.7535035703905066 12.792498590781888 0.06724051831521323 -0.22390477591089822 -1.18641138540566
Ni 7.815662505315078 8.78780858600871 6.873398389669758 0.6598646274829604 0.7224187960660977 -0.03613145561523455
Ni 6.7910412192623175 0.6940943281800267 0.37778264151464686 0.47371367328206804 -0.2917500176896459 0.1690631454806701
Ni 1.8606931078925797 6.452065843645531 9.09022202034937 -0.13304893216959024 0.516698147263394 0.11161210245205294
Ni 0.173570096211547 4.760043038693015 1.3790393649609487 0.06562406575771278 -0.01765962206329217 0.716050944866541
Ni 6.4290887485622905 1.9739889729571118 6.870436837202072 -0.5099281755294122 -0.026912251009811712 0.9512719171212067
Ni 3.5211314389826396 4.550593811106399 0.46015065017448525 0.0898382011100711 -1.2285376251517486 -0.0024080952208603685
Ni 5.912248619221349 5.515243433891584 4.894094157099247 -0.13884445580544474 1.1345823165495104 -0.15302228996772357
Ni 5.163460856691451 2.8507584325504993 9.640716729760742 0.026834089473708626 0.17950028165359408 -0.8569746517985177
P 0.3699086511476779 5.394920768522507 12.462181172455509 -0.5463897607905558 1.0071188488874978 -0.31176477024867594
P 3.925768560375824 6.446375761136711 12.669733705872517 0.6847469925469368 -1.0856663075750979 -0.1783080611177058
P 2.4262150542534386 8.482666621626917 1.3536588874085058 0.8712231912977318 0.40129392475876047 0.3458447426515205
P 6.3467541578473465 7.657315637783879 5.732143056813955 -0.2461075372601826 -0.10225148717275938 -0.27801852703616636
P 4.697325684818005 0.9919349231965325 12.471024283224377 -0.4802566166069083 0.7483887377672982 0.8585679644275666
P 3.999351262279582 6.193799320884029 8.25932456084178 -0.15227307050652486 -0.1980703313462976 -0.31077078176652284
P 4.710846404684205 0.9311503909991233 3.851335055658842 0.9110277248891794 0.4991706799025919 -0.20801844369794498
P 0.18136279968553287 5.666328672316288 3.5961809177108943 0.40758515708411086 -1.207067628203431 -0.4809281887526363
Ni 1.677842758065455 1.2086548117666416 2.489771469501574 -1.0280422293037264 -0.15316755729633622 1.2604349880809778
Ni 1.8391520812520417 6.659004209426667 4.757224189881898 0.3715634875738633 -0.042210829040095044 0.3536377563333781
Ni 6.048313846198164 5.681213205609205 9.312355615992159 -0.4372960538849823 0.07805946330758814 -0.043820596729376146
Ni 8.570628071711697 2.3110134631423014 10.144429025884904 0.12632498318219534 0.2719944323292735 0.40346136472372446
Ni 2.3623596838766656 5.177957019273448 6.993718345475735 0.17455887848791873 -0.04189998266789558 0.08044981791663564
Ni 0.5002007023472894 9.028155864805926 9.156304651593882 0.0001259840549030088 0.3430820923047188 0.5595589511826621
Ni 1.5919857353212392 1.2808917639976787 11.376882833541616 -1.0999660120272217 -1.036163829969596 -0.4449967649633497
Ni 4.084937328713854 6.517890163207897 1.7213077629312519 1.2597582737289272 1.9406077309936711 -0.01643783384104911
Ni 5.784041125232904 7.854066046311124 7.9111475089393 -1.558934151568999 -0.06388497157941901 0.11170954726186569
Ni 5.273740074838607 2.9540289141471083 4.846307399089845 0.5797259130488402 -0.8966416313708364 -0.1821570025501508
Ni 0.7552627151498563 7.455380931859707 6.905771346394153 0.14463252324213155 -0.5460948552579563 0.04092913411419403
Ni 5.02606794379591 4.452959220756623 7.401711712361424 -0.010772922245787898 -0.11151877140729827 -0.35854856337143415
Ni 8.05902643102967 7.28943825577308 8.82006412833213 0.15607907451617636 -0.7202454425638629 0.9351318170262347
Ni 4.604721849956187 0.24941167055253735 10.368598406603068 -0.46095251696165773 0.44263520670970863 -0.5059252250176062
Ni 8.191849214164158 7.281968893495627 4.544080021415349 -0.21061011568452115 0.37530418556321815 0.8545066498739993
Ni 7.108087197527645 5.959413080905579 7.002230889546472 0.9051177871626478 0.004111965285844531 -0.1605705346286267
Ni 2.3477461068936925 5.4265684655239514 2.6701452786558115 -1.3391670519755583 -1.5737362495788383 0.36519666481557106
Ni 2.4340637553648126 5.310608196744971 11.466732849106704 -0.9362394482681168 -0.2533387649012992 0.15034757134903784
Ni 1.040074827596561 3.413552752057923 3.6932744986284822 -0.2923388003135804 0.10607163224979796 -0.20284898368186358
Ni 3.9253892215419026 2.5609525953115297 2.5109485114990875 -0.1483318264705897 -0.02758562292775249 0.47741451917242295
Ni 1.0262379920354272 3.3931949013041405 8.271182512152624 -0.6117191781259851 0.11255492598129647 -0.8995755171881797
Ni 3.65920174265304 2.6348785085412167 6.857390290878273 0.4315766349027019 -0.655392964864852 0.7463513956222952
Ni 4.152197716718922 6.763204974354084 6.073116283622727 -0.16379289822066628 0.7277186110124564 0.09907591765825519
Ni 0.6460113246050865 7.223794573750678 11.123367078081127 0.4068233392174219 -0.1819032346681319 0.49544772252505004
P 0.10486460788677855 5.510691367884526 7.963746451013305 0.2266990508265838 0.3338274064756702 -0.32713019696115275
P 8.40034106278897 1.6392856751604417 8.022875440156957 -0.12262233751962752 0.21971002110326032 -0.5075067105721129
P 1.6325840224278299 3.282608599339047 10.377098306046008 0.9627935446075612 -0.6890754447189616 0.5132916926850064
P 3.960008406075732 6.073810834963883 3.9757130338000786 -0.20240212595243207 0.28893363128677335 -0.4709458807289438
P 6.951248653455131 4.012844886514787 10.594472102510782 -0.43128635735579274 -0.603656969943141 -0.38745161955902946
P 6.278924761591396 7.677185767179763 10.096179835773198 0.3160595409692879 0.13287461137525503 1.3428267602153325
P 2.3775964603725095 8.540235805612992 5.759837501253319 0.10175860669674089 0.5629042135058112 0.1056707972669535
P 6.985849774234965 3.900172220963126 1.607121354794704 -0.09955722817004789 0.07077604227229746 0.13442164414740077
Ni 5.2978732501776085 2.8067731915696106 0.4750532472213984 -0.19810838367308461 0.04394169568827271 -0.5760968009366851
Ni 1.3126388116461025 1.0237361621069454 7.141956736270629 0.39594885839676325 0.5626812988617277 -1.1136373388667273
Ni 6.781819672847227 0.6776987618653229 9.167368700916589 0.0629683733024206 0.32536950551630417 -0.039390843092796675
Ni 2.7122184712761963 1.649247835489378 9.151783293968618 0.49941004960690766 -0.2559582048020172 0.008758205808604272
Ni 6.333712127462048 1.8941562121706481 2.570976172404053 0.8736557119986244 0.42783927934745675 0.1980957852675943
Ni 4.039741816215216 6.889651252327892 10.41050270312359 0.19831098660219393 0.054930847709924756 -0.3669743255412841
Ni 8.385465561373051 7.085913939497238 0.35257918875136746 -1.0502922989511783 -0.44310494725727556 -0.016979822387448176
Ni 7.30450342660596 3.7966849743185622 8.364270455621542 1.0355565354029004 -0.35074012307060887 -0.021570269971608012
Ni 2.9339600834572654 8.34288929320387 12.216663144076865 0.1901230514747629 0.42873890834359063 0.38359959280279093
Ni 0.12223019779108148 4.875461394852107 10.143504161680294 -0.5483779948651781 0.17885519187042745 0.26180103673603944
Ni 8.586126772640487 2.4220603908342992 5.807068798827335 0.33362171822276737 0.46823619510726455 0.041324055559767536
Ni 3.536892064344375 2.8117226601645853 11.565386235181869 0.22753723045716295 -0.07834485575849087 0.1281895471947599
Ni 1.193788342227721 3.3117364026580134 12.633473429288127 -0.05838023971110591 0.6433046662417501 0.13421647011513016
Ni 3.150580621380395 8.34448793543254 7.915443972827311 0.24820452899852738 0.09064192795828906 0.33153706777959674
Ni 5.6308604913446345 7.64291882584886 3.5044134346591025 -0.23027622665488084 0.49191296989891414 0.6974438712883151
Ni 3.1890654492694233 8.409589704835055 3.5249293432603532 -0.2705569285517985 -0.38175148385045865 0.47133180331345276
Ni 3.255612318991639 4.348370085118288 9.38818002976685 0.7465655685156304 0.013344025407073794 -0.5863683580660224
Ni 7.219441209037579 5.936309539544364 11.61809085021675 0.8729278326936644 0.8706668045736295 -0.6781472278422321
Ni 0.601748805000355 9.01553833263954 0.30126277321109707 -0.2502035617064271 0.4610219367470125 -0.47749422337042274
Ni 4.668107562729057 0.18168433450666627 1.599348521450114 -0.5440081479322566 -0.09686631160144607 -0.3994504437921185
Ni 5.959358889643591 5.596358721211781 0.4537524685090106 -0.17900765828789172 0.21907778683590012 -0.5129474219717101
Ni 7.875552881689673 8.712798847539247 11.262868031068031 0.13048091433209788 -0.007822581368212334 0.3293333752600587
Ni 0.3006097685041323 4.868669423349513 5.706696646559426 -0.7890273372242669 0.21969382315334424 0.3872320473490557
Ni 7.811977499499842 8.775308468243301 2.6005338930681305 0.4964319408151902 0.44255010319507004 -0.22667025447117736
P 8.489223764327559 1.778819142904539 3.39425885641452 -0.26926083544819435 -0.19428103950719444 0.501502413359562
P 2.1159249199827115 3.310318397969307 1.6531234139092754 -1.2350168051181891 0.1515953277132099 -0.2866929148817127
P 4.768659449349229 1.1366255927065618 8.251089295394886 -0.21196457282988657 0.07711124046170591 -0.7169084077708299
P 8.458732147581875 1.5182946508935036 12.338212338342288 0.5290569259390632 0.2886819202872835 0.20093351182670557
P 6.371320863282257 7.671558907809929 1.3760913603087592 -0.44135376889412375 0.3727971028706483 -1.0208603668433065
P 1.759508989882539 3.206569226891798 6.084696053122029 -0.6432794694307695 -0.33569531292234445 -0.6675113453949406
P 6.843272563942498 4.019654921771377 6.066083161004284 0.4407577871813377 -1.3077738823762575 0.2704587124110374
P 2.357491502174674 8.501145841965089 10.070548272040206 -0.06545514428001631 0.2793393027301189 0.3826410855442636
