# total energy = -381171.014097752 ev
CRYSTAL
PRIMVEC
9.25450527252797 0.00000000000000 0.00000000000000

0.00000000000000 9.25450527252797 0.00000000000000

0.00000000000000 0.00000000000000 13.54490392606923

PRIMCOORD
 96 1
Ni 1.6015476215625717 8.597870129725884 2.027834184715471 -0.9585710218857814 0.7143167357842537 -0.8715018988804152
Ni 2.9998292947616063 2.442541511181407 8.787419050741741 -0.2398397019735998 0.6656480669339568 -0.3219347688031423
Ni 4.717557972404849 4.04531998191227 8.575495512927555 -0.01319464431340308 1.2907922602165962 -1.7794360724459353
Ni 5.579985295660998 5.043899583092492 0.7216996180478399 -0.6530036386970689 1.7336881767868593 1.0859900094631039
Ni 0.2772844050019643 8.297589205187926 4.045713298375822 -1.5216433855383407 1.0473910661439834 1.1245802110314762
Ni 6.618535104043102 5.121970587481256 5.071469679011716 -1.214293713638225 1.0185923967447361 -1.4440531485576873
Ni 1.1534629972743842 9.03267453930356 10.90242789643882 -2.079085033267684 1.0589029234383247 1.6899439418213733
Ni 2.702778192477285 1.5044123368228302 11.113905367110815 1.9739973621977103 -0.09574968149849962 0.6192558528226626
Ni 7.635484897697446 6.988465433397303 8.245703822766684 -0.40652817657450635 0.4007095130102002 0.5062417278167604
Ni 1.7277050340599194 6.580128908190401 3.653764650666743 0.4955652219395207 -1.8538923917832977 -1.476054641164948
Ni 3.745936744361713 0.5360033474737842 1.3804019694912235 -0.6466864382297896 -0.33532944494249345 0.3806968173336992
Ni 5.66688509784337 9.02515062671844 2.9277441042228487 -1.2268484103747836 1.4521264124841249 -1.1931906131110226
Ni 7.366197310487366 1.0876819755584843 4.354036387780284 -0.014689483691374702 -1.1695094674439988 -1.218057294445715
Ni 9.182532739169284 0.5785435307210375 8.252286552190787 -1.0334343468535752 -0.38908889805213637 -0.9532928042059776
Ni 4.366738195926749 0.9711585027918982 7.647534263239667 -0.8948526577912136 -1.68834163033126 0.9015359833486603
Ni 2.3116365376063643 4.6869718332980606 6.70150359249096 1.5731772917515745 -1.644129197480104 1.0408710056372785
Ni 4.723888053841775 3.301220759902533 10.674711545799902 -0.3665218113848978 -0.12404981399477347 1.6888028862383948
Ni 1.516535738405248 9.082732156982415 6.3993976795621235 0.4026324410645259 1.4217323735732998 -0.4814143843604354
Ni 3.5237453332225686 3.1526026637101254 1.6051790893342825 1.1947011362182778 0.8826975104859186 -0.9481847935554507
Ni 0.34265452669476537 8.223044167213592 13.310211337648283 -0.2760557468828407 -0.5102850446481986 -0.31461149566885166
Ni 7.022484993868272 7.092032599129244 12.963745805784328 -1.6283919892505054 -0.26884380251543377 1.9637689996014822
Ni 6.73861230673919 5.463748712550179 9.772810056811199 -0.41048818966351885 -0.6659928518678853 0.3357647327076992
Ni 0.4793935402374084 6.4089298197376126 1.4005434742270826 0.14431113534697082 -0.30843467743417846 0.45801888825463055
Ni 4.456312550061273 6.612454894241843 4.882774948809643 -0.6983954365683069 0.6386499410785582 1.153998516292593
P 4.2614867102803045 0.16955733926139988 9.932762145307413 -0.14551389740582035 -0.04466571833849082 -0.25137289942418
Ni 0.2883231785954822 5.293706437225482 7.75567593080534 -0.8142760844887267 -0.8175935788977339 -0.563499423887649
P 7.45665084259924 6.110388742144307 1.6171257298707278 -0.25697970408799614 -0.6225021276741021 -0.5162546319680722
Ni 5.808442006701895 6.593436886415988 3.0768064166564444 0.19298108974884828 -1.027187851723231 -1.8737767894120503
P 5.694195142171396 2.0383787677406673 2.6520375923276043 0.21215612001540235 -1.6044853578362368 -0.28531506069757956
P -0.20154646132993945 1.2942425277108316 12.334300646526179 2.250204804167067 -0.3175690356352789 0.0854758103763173
P 3.6468209955466753 8.008876411930903 6.463398134511261 0.5456590532721183 0.5477344477439083 -0.877573816106108
Ni 1.2143021133070693 7.022892192089361 9.865539271708657 -0.21295624731919455 -1.4715647237143947 0.7902218717530003
Ni 1.2774178375758418 4.156022371018291 4.465741039780485 -1.213048528377214 -0.6095746209791566 0.03560206547432578
Ni 1.1371843229358547 5.949286318673516 12.12455747009582 0.9277666349104151 -0.16492264094973533 0.6820203376443932
Ni 8.45403661263127 6.917048418121332 11.466613988064465 2.434156179613479 -0.9163990165034217 -2.0005272901674385
Ni 0.6523278483823383 7.511779929031657 7.73611745988604 -1.7737210243390293 1.0080372469367092 0.6153696303943789
Ni 8.373263292775281 5.131215838000978 13.361125922492429 -0.3488513906883282 -0.08685392167076654 0.9002342338181013
Ni 3.3169349094345533 5.537821770768251 2.034728790958907 0.712805955566682 -0.4235175120436513 0.36495395267714564
Ni 0.9905374363137178 2.459319928791273 9.831730713952254 -0.9655695646908016 -1.0439943817576085 0.44788745624758347
Ni 9.275235116002172 3.974680345058378 2.3734057313940364 0.15414354805636032 0.8893443263784748 0.006566854584240304
Ni 1.7417441181824602 6.63814540019054 5.918323521212221 0.04804389078210435 1.0022399235286417 -0.6797323129411649
Ni 8.48751015730578 2.944802007884462 8.32228670274747 0.8789578409378281 0.1843954049623663 0.5344287317739377
Ni 2.6577550255318925 6.825947070657725 0.20593402216217188 -0.05083276638115116 0.8130059595270515 0.14019659895796502
Ni 3.0832123850345745 2.3683759079130864 6.040986432612224 -0.1840436780499024 0.32128222282080804 0.6758787435230295
Ni 1.5317871626860309 4.330516063259891 0.7254736051969316 0.3179729559419169 -0.03753759193414181 -1.0342373023708447
Ni 5.664765816192702 6.037777895720144 7.349857556415673 -0.3701414104153561 0.06882688896572663 -0.7257661152717758
Ni 0.2798312447847746 4.698725054679489 10.052702381329135 -1.1947561578259294 0.5758222071190598 0.1499927591127804
Ni 8.489860801582065 5.926538745322689 3.6212433945592806 -0.14305078057730847 0.5449687120733131 -0.2905755377655705
Ni 4.993814201898563 7.3124656543136854 9.192533157299025 0.954727222659659 1.8455784726009632 -0.42993035754853054
Ni 5.372175385330309 7.753988834539328 0.8525759026573058 -1.0536064509260759 0.32385923951936485 0.5030448181460175
Ni 8.063848171777899 8.167998371326398 1.9077856709849585 -0.28844409324486453 1.0120738788999282 0.24138390653226816
Ni 7.089339538167042 2.604041878368262 12.480084087829507 -0.09483616854529474 -0.6800303037975578 -0.19705654536980255
Ni 7.39744051945091 0.18742686301368333 12.708776788748535 -0.8097321738717861 -1.5945562716479829 0.11582176965802633
Ni 5.439326073789871 4.07803465717475 2.846705180072649 -1.5424055577863565 1.6854087729551812 0.7352313744497337
Ni 2.7389355436089713 8.584765750610842 4.291594391477313 -0.19806081826460084 0.4051050709747345 0.18151474098046158
Ni 3.448358135290982 4.465927980781984 12.799188675587798 2.76485481065218 0.21153776970511312 3.4239195679416645
P 8.36981136240105 9.05532956760414 6.110770027751326 -0.3841860614338803 0.3932260601489615 -0.3850635789428271
Ni 9.091190774575034 2.2953948812879337 0.765506743032981 0.01839881422216186 -0.8982200316015498 -0.14950116418834253
P 1.0302577718799308 2.068789071251985 7.221654898307857 2.050100730220192 0.7276291366224436 -0.5692957188544518
Ni 6.653979858287881 8.00731240058172 10.742205576395882 -1.395855248696222 -0.7210124026368744 1.1545155651383279
P 8.476978530587617 8.326842695571152 9.71126204569362 1.6244422605741375 -1.244745859480495 0.1493103883337751
P 8.767653278909888 4.8150079103154315 5.574649148063728 0.19021638251951759 -1.3008704703882048 0.4797351968857996
P 3.80781236495717 2.15393977198468 13.260907962128943 -0.18962528590273794 -0.6377791084378307 -1.018942323884987
Ni 6.172754851506076 4.73046800691437 12.194991656938162 1.0641927110823541 -0.6045350016727201 -2.1192037556654406
Ni 3.4949823316056556 4.478634416180962 4.332892620150245 1.270790620283689 -0.018225264758775065 0.5541372659464586
Ni 6.3441020120392615 2.3695142120311306 9.135671627525976 -0.9852914685997612 0.04515962725577383 0.23577787319940038
Ni 6.982662858746787 3.8884746307528624 6.921350837507337 -0.25639786344259713 1.1993887715019342 0.8960556769603795
Ni 2.171440040986476 0.010554762980723657 8.87825109210913 1.293413242779211 0.8665872351876173 -0.18558891104983521
Ni 1.3463639000102052 1.4888925318963298 4.599808277722484 -0.7917084836008559 -0.18641372094397574 -0.3267332186330502
Ni 6.968133285857934 3.2940115004882555 1.198437115343146 0.506884760717398 -0.31067642228050363 -0.04141610105294157
Ni 4.649750214088529 6.333912802007015 12.401455962238254 0.43724540315270505 1.5716891372418222 0.5596489397933071
Ni 6.897604703064339 8.02140701173441 4.408487118994387 1.0394916087912485 -0.5924837269351408 1.7555559233942282
Ni 4.883343175418162 8.748561235043836 12.04284111617781 2.4830912147512847 2.0705829093339436 1.385736157984349
Ni 2.1911984092143104 3.9523954969587884 11.346742235379926 -1.2428139325651049 -1.1883543680646436 -3.4108012853921514
Ni 8.218268842620823 6.862354293425079 5.980671121563939 0.44574572731423234 -0.07695697427202876 0.04231187339433358
Ni 4.597767659364527 0.3262768291524711 5.1721346319678965 1.098840897283843 0.4188694717486786 0.7400287958383771
Ni 7.489689425537586 3.3274850451627644 3.5665492698630272 1.1502519047659674 -0.01252101528514618 1.1067863773831648
Ni 5.838482130012223 1.163550407751358 0.5206103292661229 -0.8095370271418445 0.4134457296299461 0.3304433204947857
Ni 3.8576386200104062 5.843821979411502 10.302213091301333 -0.7160545444109668 -1.3922418203133506 0.5613975470532977
Ni 3.5950512944382425 2.045625045175044 3.6734045612302606 0.4404446268162931 -0.4499847050962444 0.23124219011257593
Ni 1.8064423628104647 0.798996020366032 13.357780418925984 0.42487145496838447 0.5945634922823051 -0.09843057076477242
Ni 8.423709599665175 2.279569677695617 5.956506683493823 1.3220782148140715 0.5196744562828987 0.0715705131491348
Ni 3.0818149547758376 7.895416180327508 11.525737318865561 -2.95248029251607 -1.1502814724523223 -1.0990872089666943
Ni 1.7100196749576284 2.1813608703730045 2.3440809813221213 -1.961930146620531 -0.8846075830244378 -0.3527962342686892
Ni 6.140678737090303 8.610965254335902 6.787337275694481 0.3388408005298616 -1.3373801352784644 -0.6188974410419793
Ni 8.155236408897272 1.0695524002150054 10.343552039796375 0.18069378774106298 1.6840337469845257 1.267721751550378
Ni 5.615420795400753 2.6971792169373137 4.8801207567685445 -0.8733011568726831 0.4204527570753985 0.8841872076575676
Ni 6.585774156255497 0.062356854856743534 8.961782254462493 -1.3758104142302048 0.5426547192281557 -1.7967426820451828
P 2.3748448069253842 4.779887063746518 9.222657496605079 -0.7379886254798967 -0.4457734952283742 -1.139269694722851
Ni 0.04119272731565022 3.448117518160338 12.13620611557047 0.5370815960157523 -0.1116136451139497 -0.7488232542015555
P 3.4643961924988678 7.651430409855085 2.4783925381967733 1.6004034744573794 -0.033730045262593523 -0.6263217585305084
Ni 6.267696818554953 1.7434562016120383 6.903701570974642 1.2937354020053202 -0.9972825795233664 -0.6872489330331841
P 4.794768307826311 4.267576174586588 6.306140957878252 -0.7808931381529067 0.05618863137642581 -0.6063525144974332
P -0.2285594360466727 0.9160247891069694 2.653825562698385 0.6178155208317101 0.09342283313753588 0.46157498103700506
P 7.475326433739179 3.4815540448147484 10.50529209866337 0.5742034405687143 1.2297396158796499 0.4835214034011092
Ni 2.8569952642096648 7.152390480900642 8.215783082571175 1.2151344643719653 -1.499485875604695 -0.22260765436602953
