# total energy = -381164.6313902463 ev
CRYSTAL
PRIMVEC
9.35210549430869 0.00000000000000 0.00000000000000

0.00000000000000 9.35210549430869 0.00000000000000

0.00000000000000 0.00000000000000 13.68775171622868

PRIMCOORD
 96 1
Ni 1.2854468887008592 2.927480204606339 3.1175495893418037 1.216285804367589 1.4247791308194235 -0.14424942887109996
Ni 7.413572944854704 0.20063071737576962 0.8979517531138721 -1.618764236352754 0.6964899920154779 1.1367885801722102
Ni 3.85996928300193 1.34802182600386 8.678171184963487 -0.5740581732401017 1.1564325796553827 1.3652907456458034
Ni 1.3627046314986608 4.142954640624333 13.27691377572591 -0.5976081926458998 0.4901525355643817 -0.4446882325839955
Ni 5.20332440840585 0.5414148920679284 10.754972658885967 0.5503142926559426 1.5916411548837168 -1.8455291074202667
Ni 1.6317179436374762 1.8449085385798176 12.700550065738193 0.2445497058547595 -0.751157301651371 -0.628684345225414
Ni 2.863371522015983 7.03478461940508 0.2823428679806879 -1.4087164209296061 1.2472547419452777 0.3454166539751664
Ni 8.402614204668804 4.824564139272458 0.4698974715712153 -0.015181335726128693 0.45990916329880793 -1.9878993169907826
Ni 7.9295005440468485 0.759601381720666 6.335444464108806 -1.056528252558561 -1.8603281201063122 0.4136691584946618
Ni 8.915034764331937 2.216888531290452 4.8484756023865385 2.3245811621961128 0.2670964808070239 -0.9693028064809887
Ni 8.371630679443152 9.107220530521843 4.153547770423034 -0.16027151533096914 0.39931288977298973 0.11633444762838673
Ni 3.224736875085472 6.098676276215547 8.959030809026038 -0.6541511220379508 1.0536223917656757 0.12519395490154567
Ni 0.10721814769152326 7.976766084792532 11.066902782754488 0.0537990480983267 -0.6627964564177746 -0.6738290600828525
Ni 6.823146473960915 2.0985376373180302 9.37795743568785 -0.18104242932973338 0.4376416101498592 -0.10164882059175398
Ni 1.835790235804384 2.5257792209004966 8.139531062570914 -0.4100102215858358 -1.7542114935511917 -0.1180480878853838
Ni 7.2350225483536 7.895861020884557 2.593062008067244 -0.13731233543163449 0.4540771299980631 0.5046622991447826
Ni 8.71630252435454 9.404383679946868 12.840424830313342 0.17658953576470235 0.0392885131869775 -1.4984008700706324
Ni 7.5622807729902615 6.0867991023439565 4.2251484246579025 0.032265544901925076 0.03551181975336465 1.1129277143942122
Ni 2.836839598965825 9.024304763950568 2.5354502331057027 1.269883020867755 -1.0038347788195874 -1.148617711596654
Ni 6.10845857847514 5.86312479723622 2.3178837880416943 -0.725608506647989 -1.1601072002934922 -0.03210227985118343
Ni 3.7727889563633745 3.185691834995795 12.102093877138776 -0.3546875377541311 -0.23891667593869817 0.23337234908170132
Ni 1.7928266635476235 8.991011268688473 8.868595014494018 0.6325885653758266 1.3406454362932976 -0.17646020927568964
Ni 7.609695947422516 2.840982581662765 0.5945189522215122 -1.4155213596665817 -1.8589433239436435 -0.42767010075944417
Ni 4.235811695247183 8.451815631234503 12.043729257691673 -1.5616808610762007 -1.0892961910182015 0.7365948304561637
P 2.75714095665583 5.574126035834737 12.393848704004792 -0.7585731344994677 0.20433533841940293 0.19584401311894012
Ni 1.052682337133921 0.5361870651433465 3.5050091869282305 -0.29321503227094664 0.5071009904932622 1.2273145513779251
P 8.035319616768932 3.835036569977001 3.604546450445945 0.3832938886369141 0.5311071235998724 0.4097070885231202
Ni 3.587495691861155 4.162276090402841 8.058540894503702 -0.9059647085439752 -0.7119412935735416 -2.2511106038107878
P 8.578592772181967 3.889381654518585 12.014971533553767 -0.3254201562485815 0.5058156960229353 -0.11710757834898541
P 4.6792698296118065 2.0754659932698307 5.939676456075513 -0.6889466324505812 -0.12556496508771925 -0.2608875237828346
P 3.835307781033911 0.28417120458848 0.03991385068233101 -0.6647389248561262 0.3605419396523791 0.8759126263536012
Ni 4.9317018588574495 6.267874567305951 13.411340938899329 1.2246516598337813 0.9326170210241809 -0.3416641289112696
Ni 8.726075474508722 1.8543915734662684 2.4450022808366487 -1.341124689922561 -0.11565953304854922 -0.4531775010019292
Ni 8.924181123423601 2.79182791562412 7.072214550890328 -0.03914273163773259 1.3273690308993658 0.7122853071765217
Ni 7.440619233702452 4.25869629718717 5.795216354217496 -1.1979589810339433 -0.5427503642657556 -0.18060508468199865
Ni 7.5912161871309705 6.420332589711199 12.314240777117282 -0.330731798269482 0.2391989830658074 -0.0309779364387531
Ni 8.731995357233695 0.9406908748407757 8.42412685274504 0.5352088044730718 -1.2619424258644394 1.5140439759245279
Ni 4.267823952068014 5.273296861088715 10.99015566491211 -0.7941641442302001 1.9094531597677373 0.7911520968767537
Ni 5.0990951936035875 1.193487636197436 1.7904400062468124 1.0247422183962158 0.7441209636298797 1.1710037926013381
Ni 3.1994674862657577 7.214840704877307 4.429506891250377 -1.6640015109239987 1.6613977547525647 2.8958499456165354
Ni 2.553339875545833 1.3608061541002883 10.636751759178754 0.20981693035926446 -0.4451078366199173 -0.2820312477399853
Ni 4.61434751385072 4.7706211952635345 5.738850279696661 0.02750154785437844 0.05968224635198108 -0.22946530071781127
Ni 0.8419915599678601 6.976623875855929 8.976632406619519 1.9295031364400772 0.34383362575876264 -0.25662540607237094
Ni 4.912997648036047 8.904906434172148 4.473787239948965 -1.367519377866006 0.48784137093270175 -0.2092757131438138
Ni 1.0980119920595888 7.567583416758129 6.789193655267365 0.9234600371152611 0.4260572477463695 0.39116917761993275
Ni 7.492457953993967 8.963048473510476 10.20677842560582 0.3942059075637276 1.003905998377155 0.05558570768510427
Ni 8.141035816331497 6.08964214238881 7.002968756797875 0.7408536057325176 -0.5772903070241542 0.6157372981464428
Ni 3.303257152113718 2.3269628119744032 0.9565454991435374 -1.273082501641659 -0.45499192850284864 -0.26577621933370355
Ni 2.650723349187463 7.366606671482164 10.850089182176042 -1.0151198648151032 -0.5049687746416077 -0.23205491582185842
Ni 5.681927754903887 0.7191759708723696 7.629114659097295 1.59883741552184 -0.26123359426834364 -1.119878948901065
Ni 2.1676871047247537 3.7615009651326585 10.045619204326456 1.2169141819802074 -0.11246288048812243 0.7172909879212293
Ni 8.353038693886678 6.173352837919995 9.551299644685736 -3.4459870892646656 -0.5734300527377996 -0.04057843564299463
Ni 3.4241705229686716 1.9009650584115596 4.005980899147582 0.3864283205008377 -0.46459679858246433 -0.47831723349235045
Ni 3.9957525014598985 6.776844200072533 6.82943482963907 0.33380529498848316 1.3315545297356228 -0.22951852255324987
Ni 0.3391587787717789 4.515869843876038 5.379683606609227 0.19480091656640644 0.30018889248561853 -0.9814587251172322
Ni 6.083694203347604 4.375906234299485 12.921224215430177 0.597584538496816 -1.6330233173749296 -0.4088534822735732
P 0.8498295595125688 2.401835767892476 0.8192491100301174 -0.6934458058725155 0.009104533404429481 2.531960172537846
Ni 5.585152168113952 1.5088967432787395 13.03692659315029 -1.2125677320860537 1.0285240540361513 0.9891326967227224
P 7.501884876247954 4.178146613284801 8.429848470835308 0.2133956488494583 0.11403151052682296 0.24037654831367633
Ni 7.4111226932371 1.9887626240072211 11.771849525244479 -0.08213671870075531 0.7907288932964059 -0.13747457204111163
P 2.63121485730074 9.457316596571436 4.88885425270778 -0.8507374126395543 -1.0096151329467904 -0.8751526082591251
P 5.546284818027079 3.9040176994863316 1.3413734142673928 0.03553058880644204 -1.017930337680705 -0.016697258150022858
P 6.841579473725406 7.1145019659258955 0.6734815838356843 0.6255833377025871 0.00852526386219177 -2.041926679049832
Ni 6.719300695480491 2.1397336616521683 4.893274992935419 -2.60083436980174 0.7580432301379267 -0.10675554569070003
Ni 3.7598082340533217 6.587520178138302 2.4711451563017226 0.4453783166724846 -1.4957690888747401 -1.4781637170881512
Ni 4.743977046948447 3.7720594921413397 3.5852736316155727 0.3614425970897775 0.29222335778163866 -1.255740925039418
Ni 2.274104712193121 2.9490555117888264 5.854908037422377 0.10707076293827365 -0.41556817528958745 -0.13094885510745188
Ni 0.48447927432758037 6.4947659966749685 13.1798950341953 0.9297281295121601 0.7890808161700217 0.16972417610343674
Ni 0.8258722710819758 6.966869629912568 4.552067167868156 -0.9866682943426298 -0.2606545818364221 -1.3686293231007332
Ni 7.0503745791247185 7.906541125263578 8.075718841722079 0.04931735817788926 0.7900316101190651 1.2453539253781392
Ni 1.59881723680263 8.795860885083373 12.582670517878471 1.4728765005472826 0.47679488331055314 0.5520323037883138
Ni 6.368166545730309 7.877325147960548 5.909097877014145 -0.004324595517282875 -0.44835668257451816 -0.17861787904864077
Ni 4.734297617848371 3.5682864673475754 9.752892693708267 1.032034381182255 -2.7969894864031963 0.33960724638224093
Ni 3.4309133909697875 0.12783954012211907 6.777886959825827 0.050666673116932105 -0.3862905093713928 0.3868175855194564
Ni 6.418424760207416 4.987861251848709 10.527879224040078 2.057645375336669 -0.5381079803977378 -0.3143595275590457
Ni 5.7078424389969395 5.679215644334784 8.068477506502573 0.5106470559733076 0.12742772932807087 0.8311546054116201
Ni 5.9367071626076156 7.334051992547513 10.456703155390853 -0.6093077404710151 -0.6185444285779347 0.14315208204186314
Ni 4.506863766365532 8.252129476505214 8.72243750550396 -0.08255992228110297 -0.020954233654163913 0.21055535118718577
Ni 0.9162426008761211 0.8093891852956152 6.439279955273279 1.1767949453618185 -0.5136724730631927 -0.11351626145330128
Ni 0.3685505756565302 -0.06793369370333242 1.2332078982977652 0.8909067857695883 0.5359526246176318 -0.15749112437235457
Ni 6.408670514264055 8.79902189671219 12.487746647959854 1.519722514366544 -1.3093849356171192 0.35340044351159133
Ni 1.5647381646860354 5.337508416838589 1.9671901224563568 0.42493521832678427 -0.1259172062208154 -1.857014482352047
Ni 3.5190195760440015 4.662978461986365 0.9310582062677538 0.728329762233894 -0.21193191981973825 -0.7657501118638812
Ni 8.863392438254046 6.044116093249517 2.1766950526563407 -1.9486439710345855 1.1043042343912592 1.7031018193595702
Ni 9.345184852697132 1.2683980005371513 10.880722003448794 1.3962856513654212 -1.3096896113417316 -0.13621113194765574
Ni 2.266688492602435 5.24628798066261 6.379723877596853 0.4741057665141641 1.2518315626826828 -1.0944800492119862
Ni 5.692813605601944 3.409553182211746 7.252605441736258 0.8442739164023977 -1.2612145465594795 1.1500138206132322
Ni 0.7402088559410362 5.428036797214175 10.769481515220129 0.02694773223343746 -0.41739442986504893 1.9365124778783749
P 2.318237297626219 5.287109920780321 3.8402765546386166 0.15041956223755384 -1.4195050269046778 2.319349481483528
Ni 9.243798677939722 3.045737577524654 9.500723458624666 -0.8242807611099223 1.2048037718699185 0.36055170984439194
P 5.185078450749572 6.567328982556599 4.534095226900412 1.6519800609830904 -0.8114363010470864 -0.2125245590984146
Ni 0.8985895667028818 4.7335868578371585 8.119368858515983 -0.49350062610100814 0.42801025770768225 0.16183011806734066
P 8.537639902588506 7.847286185381376 5.881051848097993 0.13323713692099634 0.6997120984972014 0.3136614730507566
P 6.425457543476264 0.5912550674331776 3.477250267648188 0.9971424544010762 -0.3288353525777175 -2.0588535367121574
P 0.966240826822811 7.567069050960541 2.276204259857823 0.9416081687791976 0.187453989283032 0.07280155734275849
Ni 5.032480146763164 8.215880715933336 1.399832489979144 -0.10462975759694883 0.3157546081343594 -0.8074341218662288
