# total energy = -340870.0715921519 ev
CRYSTAL
PRIMVEC
9.24587482113716 0.00000000000000 0.00000000000000

0.00000000000000 9.24587482113716 0.00000000000000

0.00000000000000 0.00000000000000 13.53227238808513

PRIMCOORD
 96 1
Ni 4.397106847923811 0.43640528459654915 8.003296612401494 0.6011552865672098 0.16931588492142452 -0.9458196357573839
Ni 2.5235135581795456 6.851646181037884 3.1253599012491526 -0.14834956708240257 -2.258614882607633 -0.7347909444782056
Ni 6.163475729077691 6.089360797693667 11.360423778682641 -0.9109806737013278 0.283618389721447 -0.9956229324327562
Ni 5.283166755524258 2.4221510341322583 6.635252031825777 -0.1987691571855351 -0.1006813144721621 -0.7639215432955747
Ni 7.203950989602862 8.882410094359622 9.143634716101886 3.0794789047265225 1.2430556162622657 -1.2197750484677703
Ni 2.5131489326703775 4.71056973698476 8.777234571596919 -1.1818034543200033 0.41148680613136235 -0.17014326591872633
Ni 5.337698924349479 8.233220250023562 9.820410552114264 -2.1032595736313584 -2.000706238947464 0.9870552453684034
Ni 5.7736419152123455 8.661267263915127 2.2402273548784737 -0.3032204802230907 -0.040854829232832866 -1.401194401520948
Ni 2.4553344783360087 0.8378380482399956 5.90989467192814 -0.008451730311778993 -0.7562583703233621 0.4034194557421955
Ni 4.106240876565276 8.06664657190298 4.00369857890963 1.554963596957025 1.2585709382890453 0.027454753776843036
Ni 0.8703391468928301 2.703466016952907 5.328955100670603 -0.5041930728178479 0.5579255293442972 0.367661838526612
Ni 8.678640262426924 8.366157436081384 2.2267487187792185 -0.6489333252824372 -0.13102598820229047 -2.714235960054048
Ni 8.868421085978383 5.363605865185062 0.7914052656288967 -1.5227764707015194 1.0334772842763686 0.0022039496298542688
Ni 4.498071799360131 3.3380381334299183 12.722135859694372 0.5278395085921942 0.26825116323675735 -0.3122517371874235
Ni 1.9160318544963448 2.267846631703618 7.592444151640526 -0.19943867244873395 -0.6067525781493293 -0.07615941807139787
Ni 1.435116929220817 5.207757401685922 12.728455415033816 0.7759985290647667 -0.7141352159010668 -0.19169990904357953
Ni 1.014263205825357 2.382060921547287 9.91811355896572 0.34650962992902906 0.12336384367134237 -0.6979439508531851
Ni 0.43557500505085484 3.071535041836466 1.1507628273949382 -0.985282983959329 -1.4852854157345967 -0.8673025160870869
Ni 7.236330042710004 4.068249577531224 6.550742888133629 -0.281510856460141 0.0460109195124756 0.4363522019144743
Ni 7.497849607854356 1.846826482564032 5.291849556430288 -0.8212702564183727 1.2610183713882734 -1.271798749833229
Ni -0.3141757459982881 5.702189795734334 5.55986897147022 0.3703219018572783 0.5518680102963077 0.5813588206665731
Ni 6.5353170708281025 6.014913014821391 7.986923092941916 -0.5712916662385581 -0.5364159374072955 0.4506850735973787
Ni 5.4446089732009595 0.22018033489096953 5.477011140994787 0.7527043344235166 0.32482468875642767 1.022931133329406
Ni 7.3460415915876025 7.88603765602779 6.747515442113304 0.7288108156353706 0.6257131784122321 -0.3909771162137847
P 9.068964107649974 3.342642579017399 3.321929045986008 0.2907141202259638 1.4017065652706762 0.5188671298902549
P 7.113591056417224 7.121080214902886 0.34437832020725184 0.306312231774537 -0.22073332016145208 0.29155821339381405
P 0.46074042673761095 6.688151379183631 3.0344766515569868 -0.9509487294538332 -1.3021102563325768 0.3150131019826446
P 8.923683678902822 0.9127009708851184 0.25480983389367956 0.11294316255865064 0.47214092947830943 -0.5105884348212304
P 6.68640390887031 5.913384065029978 5.5870962232092 0.7881349073169847 -1.050529611772965 2.323632168019282
P 0.6332444088738749 4.793542216306147 10.760957323754033 1.9781828610339673 0.8148265576755579 -1.8494137871866536
P 2.5762427814434044 0.8555873538510125 9.135068413216743 -0.5176581971838181 -0.1820220196341833 -0.13428768967269775
P 7.6085319735726875 6.790013180463296 9.806133997030674 0.11065848028953201 0.4229536691203813 -0.20255382103894795
Ni 2.956146525909243 2.96569751444713 1.2295857581627878 -0.4144816270936281 -0.08994670166347736 -2.5626326619210382
Ni 9.029807828407042 3.20328875593606 11.771290108255618 -0.43034430515749755 -0.9250320095880714 0.8506499951320705
Ni 1.49256154856824 4.717920207350316 4.156085386930954 0.05009074600880406 0.52236871528561 1.283181537748874
Ni 6.796374342238771 1.708822557185047 11.295685088805172 -0.031011103669533694 -0.7682093720376512 -1.0352544307814495
Ni 6.410063206624089 7.350340923310852 4.236913747915519 -1.2403037645487414 0.8782060503734681 -1.1282802855908824
Ni 1.2018804947031785 0.896239615616142 12.095280350219992 -0.7909716054348312 -0.42819409158371424 0.17862970612318269
Ni 3.272965667476729 1.9705640233215664 11.199470667776176 -0.4043766774491423 0.8326458452451659 -0.743825543876648
Ni 9.665729842586407 8.070381905271137 10.692741260411802 -0.5646409936912599 1.2405194801039732 0.5924731854121796
Ni 6.014700359703896 4.311758178811295 4.292031180607584 -1.0162874027606432 0.8043775944280921 1.0240698749195394
Ni 1.5655299914927308 4.862830801110523 1.9014058053500889 1.3224178575416774 0.8741123399200689 -0.6755442430017462
Ni 5.928075759886417 2.345327061468853 3.3580193931871554 -0.5908392493531824 -2.3051042844184235 -0.07514486076395446
Ni 3.3060474070590695 8.96217425516925 10.832502826566248 -2.5360482265642905 -1.9794010497117847 -0.4713971093337494
Ni 4.4217378580544295 4.553556293276738 7.260429415046887 0.11793598778755172 0.5460076948607887 0.5154887003363251
Ni 3.791095238313721 1.407915565930922 4.172892537912725 0.5356816303444324 0.7957636275068359 -0.3989331378360678
Ni 3.812989469540938 4.419722257375573 3.0546123174212743 -0.4304299228927683 0.12490316313400424 0.42809818943579825
Ni 6.839783723831585 8.462887776917169 12.003801666198843 0.5135068940196059 -0.7073601019607624 -1.26838175373188
Ni 5.598931867378947 4.257299976983463 9.74519813540648 -0.31847689216152897 1.7078357345001296 0.9413649424201401
Ni 1.7377344072895684 7.068212303518923 0.8374811574775926 -2.0564582970071035 -0.6216264099373682 -1.3200365017936944
Ni 2.0385766774209775 5.850040577640763 6.778937547191724 0.09085404396909515 0.2215753564467732 -0.7560753077782786
Ni 9.220975533159548 0.7161429211978718 6.173855147986337 0.4678435876545362 -1.6721393095397845 0.072220745138624
Ni 3.382298135492708 4.3191363868008725 10.80237976687948 -0.41289037134710826 0.767993142261787 1.4375870812173694
Ni 8.579959042034998 8.227469315976547 4.4646350181903225 1.2382065157000806 -0.3739854667517946 1.6161797634550295
Ni 1.9539122030343121 2.427975935176661 3.0614468679800404 -0.6272414421313004 0.4726268679757925 1.4614926841903733
Ni 7.366558187488445 2.807648532775659 13.454204800017616 -0.13616742319391387 -0.1669838943541382 0.029695727292219823
P 2.1109441384916807 7.93373712346918 12.357454523291239 -0.973912023118226 0.0015449758896166942 0.7444526359376856
P 6.823020953048246 0.24231773262210338 3.8024334544260254 1.8995821805109283 1.1287991342088302 0.15244070643264068
P 4.993049700014289 0.43813611233545746 11.608253901785178 2.850159899778588 0.5472030007204705 0.6752264546510114
P 6.864211324719382 3.840551421943106 11.56080962048478 -0.3301427585352314 1.4360991838179333 0.5955276559677873
P 0.5108623133434985 7.333911004015767 6.951636617283602 -0.5962905022757408 1.5165292042402267 -0.36272249224346564
P 4.236145415730139 6.219043435866362 9.446242948295962 0.5142784820783078 -0.536904961228572 -0.3255165726171297
P 4.305813081396134 1.4761686127718485 2.023642740648089 0.49181501086846907 -1.0394250172193713 -0.9345548614768422
P 8.741835815821362 0.8158559812033792 10.292442965590814 0.1886626648791525 0.4625216612209905 0.391535559820416
Ni 1.6028186040515844 0.5496422854872126 1.5051812429103126 -1.2709022061608886 0.34025336460667205 -0.30787623382754714
Ni 5.9485276346645435 0.7620301972032252 13.59871597199192 -0.2616308297067623 0.9494389776775262 0.7382598768634124
Ni 8.521377180102716 6.212682274090887 11.839764131501246 -0.22001675371040172 -0.8545801834244121 -0.24243677327681473
Ni 3.689455338026224 2.7085974773967854 9.08466082908344 1.4163135165505736 0.3039941251643216 -1.1126068407196839
Ni 5.1557401107719345 3.5154017472946557 1.401605256466152 0.6816467563550582 -0.30194418461382844 -0.37220266381975897
Ni 7.658256287567609 1.385688483215454 1.8066392882949875 -2.3557105366110656 -0.2295689161752111 -0.1684396529640583
Ni 8.408198428222496 2.4203943179442633 7.876310071283637 0.6389862413720544 -0.07577863769321143 0.24953250378133154
Ni 8.136231024696913 4.498432388472404 9.362491966327054 -0.16716130047226693 0.023228117290005155 0.23269872005344439
Ni 2.7409118093812124 7.954031818377854 8.574385628781718 0.31479892908930945 -0.8041708777339248 -0.7566391507015485
Ni 0.5009359422938617 6.4410923620288765 9.070167920532484 0.06574130806186743 -0.36040747095704384 -0.9430346168130792
Ni 3.9658792531445086 5.889770101113461 12.686410724542833 -0.9483323748769087 -0.9798237606169705 -0.426544214685117
Ni -0.12167478611784169 1.2243387242854882 3.3689674333882316 0.9546742579345364 -0.9309517175066161 2.4599947379431377
Ni 7.750641067306776 5.51668981215678 3.3146756573045253 2.3007496069941533 1.4448977559461695 0.9254863235166706
Ni 0.651239654751211 9.257062182010825 8.259138285908753 -0.2407971807908627 -0.3220589530858325 1.0483953390387817
Ni 5.054248144479216 7.725150190831507 13.485058283803605 0.2791387566835386 0.48068650505547533 0.45850379831084903
Ni 3.3242432884168243 8.304321026263974 1.5580787410932317 3.142819316656381 1.9744365066176577 0.31710726550751195
Ni 3.535456049461815 0.7962371597333492 -0.384544248964547 -0.806592856911856 -0.6684593111305068 2.19856548272422
Ni 7.246620701221783 3.7400025348671 2.079937173186109 1.5889463816603733 0.23838857134937008 -0.31129322992889613
Ni 3.814145203875145 5.843466760747793 5.035683352721983 0.5366337098450564 0.7688032968679083 0.8935020573005903
Ni 2.1474191140792525 7.839734315662122 5.119366839805773 -1.9516799296474325 -0.31270579400570664 2.0881402014914165
Ni 8.941750118015145 8.09343187083256 13.203613858737524 1.0606844408187799 0.23020192177351967 0.2525990585217972
Ni 2.403992136273198 6.651334306233134 10.591587693132139 0.0365168639791113 -1.291981652539007 1.0298281175595554
Ni 6.382011222864216 5.067710138004059 -0.05475222064245434 0.09901241141017142 -0.37724202601587936 -0.22128250779670275
Ni 5.868134754377107 6.021144734351435 2.059219017217381 -1.0738243206348475 0.3570064156952948 -0.08840661086986709
P 6.9345446933618815 0.9693005172873692 7.143496838049163 0.03878046320230741 -1.67390154364653 0.5356890865436
P 1.807300368334154 0.2777035441731185 3.769333223094338 0.523130533152299 0.012665254172494318 0.28499341569210274
P 5.887301452575595 2.5744860652554094 8.720074725189445 0.6552286713728458 -1.5333740437117076 -1.1482433589763708
P 4.252122287166216 7.85601630096243 6.319638552315736 -1.2604095341596808 -0.23795739734922244 -0.02074983095284168
P 3.678119895676322 5.981997700983176 1.285600040698196 0.3388225456974165 -0.2392529762321944 0.5757561297678149
P 0.9338795714125943 4.028446087061137 7.231037704046803 -1.724905288387907 0.7313322965056437 -0.4987814148839732
P 3.908915419280116 3.6772877669556934 5.272593173247465 0.08739282489337206 -0.37323239063585395 -0.6992703829740925
P 1.9794585547576231 2.907947781235476 12.767347262261081 0.6756365456052364 0.5607367735408472 -0.18097378087532703
