# total energy = -340897.87850463646 ev
CRYSTAL
PRIMVEC
9.00539338475675 0.00000000000000 0.00000000000000

0.00000000000000 9.00539338475675 0.00000000000000

0.00000000000000 0.00000000000000 13.18030349771043

PRIMCOORD
 96 1
Ni 6.1165891820328495 2.109243210852153 11.25576809996626 1.2710490161513979 -0.24548687295704816 0.4455652358723101
Ni 4.5231118597262325 0.2165517913373778 5.936948696615721 0.13039786769998835 -0.07072616287096851 -0.10760452395455662
Ni 2.878186725688771 1.700659512963104 4.75797071503484 -0.8961559499836695 -0.6864030400931211 0.23661065351334087
Ni 3.505943684895042 4.325128288764809 4.850865849274211 -0.29493201496205335 0.2688260619036209 0.1535830475672
Ni 5.085273534380172 4.331558139557006 2.800037022383776 0.3798632656888103 0.611688839108682 -0.41000996447551963
Ni 7.204143510634088 6.11912870293397 2.750030974114879 0.4790955064192716 -0.18455507046868216 -0.9622898654982653
Ni 5.160099347030545 4.432166393129034 11.477896030814184 -0.7682042298313286 0.33396290361227 0.0759951245793917
Ni 5.6991081555966145 7.84297710355801 12.351473210012903 -1.0598105228542585 0.06895724389600383 -0.05316552827938585
Ni 1.8316249472361072 6.622854380682352 0.41926409430297873 -0.3205898247394736 -0.5204933526397681 -0.402986481969835
Ni 2.7454202127624914 1.594720066577378 0.5050611775697864 0.026467964383541515 -0.1782800360932478 -0.45391129384416024
Ni 0.7337486368729417 0.010025704323463844 4.500295795346526 -0.34036109382913 0.43838260208094176 0.6966884811795292
Ni 8.321118459036597 2.3760369917620063 1.2363549442383124 1.094146320021651 0.31622717689540375 0.7730044794334494
Ni 6.848682627623431 0.6723588709760109 4.844025352549066 -0.1039990659914854 -0.7162746308415728 -1.0879504756235845
Ni 0.789746873821289 7.20461179108394 2.5613148533638905 0.011551966503657526 0.6944991868376942 -0.05635832418507068
Ni 7.676188214871336 3.7574282972520447 3.5695289656703166 0.30193775685592517 0.4019377289903465 0.4676908641267558
Ni 7.5944642709789125 3.8751017710638673 12.50841109900548 -0.037132643186239274 -0.24344978792236138 -0.16655323457462282
Ni 7.67615219329827 8.750387545258528 7.017576076716458 1.5760361013566082 -0.04839458925330375 0.25861004060256754
Ni 6.779007899921427 0.6708558708398517 0.4516718030507101 -0.23013918685638432 -0.17616993172878048 -0.18659446949621414
Ni 1.8613967773747684 6.384805815078792 9.385865728651394 0.3211176722184857 0.2742621453175277 -0.9690451819442277
Ni 9.029527720336592 5.024649226910884 1.374942543371982 -0.08249975846712888 -0.9670698033854119 0.12007000341141902
Ni 6.446024478503661 1.8944195544825937 6.8324323954742425 0.2742978836514695 0.0770860436507253 1.265968516304697
Ni 3.228433485998193 4.273302250516776 0.39070619117662597 0.5733722029166706 -0.4077103698080655 0.01725827285981544
Ni 6.038881643537233 5.5560214619870605 4.726694083681366 0.09427926760056021 0.4655668758052175 0.6783588296324059
Ni 5.456421812460867 2.9700417370058747 9.01016072157791 -0.49983916672452633 -0.07295376664990662 -0.16872890206970295
P 0.1487105617044105 5.488093780578736 12.35489976215076 0.4649161295950961 0.39174741872090596 0.04490431671185815
P 4.0441870350334685 6.021384164420652 12.575234719199345 -0.3027509967858399 1.01284212452452 -0.1977214326473111
P 2.2722228181871467 8.501307372903648 1.5107267635818267 0.7504165668306043 0.39264190551071737 -0.6000342855888892
P 6.322488493675423 7.6879042315109 5.740602306150127 -0.25624076903944254 -0.9465981657946212 -0.21940226005485441
P 4.783034525573836 0.923304960815684 12.591236402494381 -0.4799776519139088 0.00177354696065501 -0.4905657118424004
P 4.0524359752654755 5.925620812425939 8.181910388306875 -0.2551287669221864 1.0756464614452508 -0.04178659701848288
P 4.72297755788033 0.9422162866750877 3.7425468848793475 -0.5186786680285325 0.17253104942461256 0.13269643392617791
P 0.4254426946230439 5.492965698335849 3.7236859892222354 -1.7333989276812145 -0.8589412886065851 -0.6436710484422334
Ni 1.3081144204814825 1.2922018905797845 2.524371128027882 0.006649644106033708 -0.221409006072238 -0.04694628684255141
Ni 1.9298827931656088 6.465512149532114 4.826481945926826 1.1835723732949681 0.31099446774155476 0.38745650465503595
Ni 6.05614498242889 5.671299501190025 9.115458083423743 -0.40455434067758717 0.2671545877384689 -0.29178652735453614
Ni 8.513095432689344 2.232977314332251 10.163635429428394 0.200024626859191 0.5228351133990673 0.3111471912693351
Ni 2.262632074358449 5.108345351928644 7.052042418364884 0.6336596869528184 -0.10059518251625901 0.07907376350471543
Ni 0.8372755384026036 0.2205537881049583 8.963304759873594 -1.1136514799341144 -0.5990552095050715 1.105275340055277
Ni 1.3973038353917366 0.9930787478436172 11.406603934481538 0.11192294882425241 0.25655187252195816 -0.4165323389750698
Ni 3.958158513159715 6.879066824504205 1.505467613914259 1.190266497485692 0.33483527891489434 0.17069656731903504
Ni 5.555751300189069 7.848983700866686 7.916169337869862 -0.7091189936333981 0.24613607650527286 0.42032882990302445
Ni 5.225694631582877 2.7118661174519496 4.895533500414794 0.25501615260372207 0.4321731308361202 -0.4728729225483276
Ni 0.8332735416350232 7.418922140037314 6.9652106154117694 -0.6641833094629722 -0.000784700684824455 0.25089184602270337
Ni 5.189087707955031 4.546841070983151 6.836953102893967 -0.31824497865638096 -0.25447776360174884 0.6825816094645019
Ni 8.387479202016571 7.254150459442311 9.121416051608781 -0.9071525582044894 0.023778590476836465 0.5545679257259739
Ni 4.582214255733502 0.41063962917176405 10.28366831627601 -0.35191974520100683 -0.8264888245048347 -0.010290840403046793
Ni 8.367910482448723 7.150408329013582 4.801189398398864 -0.9731337501913047 -0.21895385966352612 0.23864105367980837
Ni 7.292423380824437 6.102018455727842 6.982186682258227 -0.16668384661521615 0.5157419539977118 0.0278887559904681
Ni 2.4724667428584324 5.274062598816618 2.4881253206700182 -0.8357206275157479 -0.6085304959853584 0.7751135553566522
Ni 2.2909900577542883 5.234168706646543 11.468458378671015 -0.4298419115997823 -0.808312410706124 -0.004634413448217824
Ni 1.256162306727721 3.420230351785612 3.769645914296546 -0.8002859408572217 0.37440918455277455 0.4132775794831979
Ni 3.5318341905358923 2.677726671579092 2.6608793818563443 -0.0843830915327708 -0.4680845000207487 -0.2924205613941093
Ni 1.0495155474440374 3.259312979508619 8.437213287408824 0.17232561828202578 0.17576883963561987 -1.1559003613009964
Ni 3.6680047421168647 2.643686285032166 6.879327080369604 -0.24774404442234105 0.7764523287727337 0.3333756636502323
Ni 4.10047074294836 6.760132595635089 6.105024456000161 0.0316541365701713 0.03316568811869127 -0.5271777066384792
Ni 0.8953161985437667 7.393481904059784 11.506536783558587 -0.7471152703715133 0.4076556053107302 -0.6113270848938892
P 0.32738296734540284 5.5803450291995595 8.061837877728887 -0.6927266683183038 -0.6204516729029766 0.018333251091549072
P 8.409182199788555 1.688826426211077 7.9347141442233236 -0.008761291132397814 -0.062248464417260535 -0.06628355371858262
P 1.8778316200859169 2.970428968916329 10.458426077464106 -1.02544258689735 1.1897147387472802 0.20860234122587298
P 4.05989244089004 6.109222770340949 3.7302635284640018 -0.0788477635368384 0.4697292347130233 0.1850248110162491
P 6.911441213296851 4.030120610751379 10.289796486393783 0.4886602672895713 -0.26585746619360023 -0.0062621788596279255
P 6.22007916145012 7.793492467559236 10.101964695261554 0.4653604162213663 -1.2498659543158797 0.2072262868139528
P 2.404809223248099 8.418322673953933 5.924520353368786 0.12633681025673726 0.30950297079769273 -1.2337438519430364
P 6.761726550243239 3.8785418312916256 1.5012368801577125 0.44389324748652587 0.8611107854540783 0.16045354943478818
Ni 5.143745552858795 2.7339113201680543 0.5447884699644338 -0.11687977860889548 0.5204825540064907 -0.1468292737831342
Ni 1.2841690797861711 1.1097436176096047 6.8776007464804385 0.5813737330649085 0.791576843118998 -0.8453656068046795
Ni 6.899599121151558 0.6083872588296081 9.255920605435472 -0.5086547081336272 0.9082648174320614 -1.3116703892171864
Ni 2.81005192023532 1.6412779497645764 9.061932727466344 0.6134001653728339 -0.05251735317242568 0.05010720106903629
Ni 6.271544983967496 1.9158974174229164 2.6529312217594345 0.3885296831145567 -0.07644969561830704 -0.432202698522475
Ni 4.0422959024475285 6.766589462607086 10.411635855130633 0.957534353091151 0.23710147710683038 -0.08956952082971671
Ni 8.129978986957624 7.2153192036776685 0.2223728775447676 0.04307369126102259 -0.17997593573843196 0.22509853910868327
Ni 7.635726982925479 3.9210112659358862 8.080923007678333 0.3908094802876689 -0.34109694355389 0.002177210156976895
Ni 3.125429797817308 8.393891042022236 12.325297233405507 0.5660293893983541 -0.254662111698413 0.675485878959985
Ni 0.06091608221111905 4.756702755662933 10.151311548743351 -0.293941626024326 0.11088859402246708 0.8403426996687914
Ni 8.599628256586016 2.332171721161456 5.511172802441822 0.48863944135396487 0.18815564333574694 0.4520811826139569
Ni 3.6832148513437852 2.5683651757521413 11.520059282087388 -0.32852322065393746 -0.09087101324995964 -0.013852589612376141
Ni 1.0685259326293712 3.193024279674776 12.62491207061402 -0.3890816989632847 0.46031591181892334 -0.4326187030139711
Ni 2.9910062925300136 8.414945651479039 8.043108460813464 1.1606358191034527 -0.42381833111352174 0.010242246553298489
Ni 5.4931097846281105 7.8531802141288205 3.6054847993650028 -0.14695834316183076 -0.13233236571853985 -0.005414743257668094
Ni 2.9295444834869517 8.530619927985725 3.613367220091068 0.9206760466122209 -0.7597512139679689 -0.07243029004626882
Ni 3.402624807949833 4.278966642881332 9.366806714342422 0.002889405732653088 -0.5431856520309613 0.2803420329630204
Ni 7.0256476107011165 6.094561990103278 11.326994456928063 1.3216149020244077 -0.056622633590050875 -0.06513144239201042
Ni 0.5622787447664022 0.18498878847803316 0.3579805920465912 -0.4256548701016283 -0.5258247921550105 0.17117196429355683
Ni 4.5212747594998905 0.2885787277605598 1.591548367068958 0.01005995533916332 -0.3060993444327825 0.1745020571080543
Ni 5.980670781463336 5.634512469696851 0.43328549161873653 0.0771984008588735 0.010027559439331118 0.29231874570892236
Ni 7.8370785709685284 8.869636962891969 11.317135352380026 0.42811078784128853 -1.0702211766646212 0.05188023380905904
Ni 0.08903632322472561 4.933523652448358 5.928500737192528 -0.14763531462419735 -1.298039685807629 -0.8184800952677451
Ni 7.926168926552853 8.584517206685025 2.533148684844625 -0.15794261008747637 0.9734829060006073 0.2876478225958143
P 8.339579515232682 1.5618954081214131 3.4467548371124153 0.34474919559449657 -0.13242595387361064 0.14786722812934533
P 1.6535613061799226 3.3099593112387558 1.6167220434058043 0.19277797259910673 -0.3490136272978054 -0.8846083543553861
P 4.723238714285055 1.1825252059885099 7.961786157460723 0.15322077913177481 -1.6660164844714984 1.4642913299814329
P 8.33998475792967 1.6144959101903544 12.333007651120186 0.15687791626838787 0.9083866877219064 0.11568935784522012
P 6.28550334353039 7.695450751068128 1.3962952313459018 -0.329202248998833 -0.552094781595133 0.3093911278101768
P 1.8035101094584607 3.2276950437503498 5.910153148951601 -0.7232857720520834 -0.02821245787847399 0.8991237743627418
P 6.9473096946768536 3.7763846500777807 5.88657432776223 0.6007482809367783 1.526352875198868 -0.934984492815093
P 2.4423617131689146 8.377447193917822 10.217647977161505 -0.15012568514621885 0.3265293301523602 0.060995308736449795
