# total energy = -340885.8970689143 ev
CRYSTAL
PRIMVEC
9.14268090766417 0.00000000000000 0.00000000000000
0.00000000000000 9.14268090766417 0.00000000000000
0.00000000000000 0.00000000000000 13.38123766471741
PRIMCOORD
 96 1
Ni 5.362676043591003 3.074848149749962 9.266814720051787 0.3557447753740518 0.06218033018348646 0.2420310531979638
Ni 4.551848246658561 0.28640270712317606 6.192462103605771 0.056176290081251634 0.7149374000873882 0.14114610735542787
Ni 3.0476212460755963 2.0114080799757703 4.991068121963712 -1.2435775502040067 0.6491084174077209 1.0581627028381906
Ni 3.9970977986231353 2.9487431523085488 2.885597398242819 -0.9688405221325894 -1.0546796293855967 -0.431842744079895
Ni 5.294489929553589 2.9926188778737877 0.745532598590741 1.1232848892588203 -1.0779828228879111 -0.020941635248673613
Ni 5.05695393749056 4.894186789701864 2.6434635519629204 -0.2724754857307501 0.952363864633805 0.22589069599267547
Ni 5.393569162300098 4.719433587273446 12.046231765305022 -0.2919212531601876 -0.5313868596238204 -1.0542682528797906
Ni 5.698788420951888 8.048731688722963 12.846898386702309 -1.1408810050740288 2.0846000495486425 -0.47403917494228687
Ni 2.291676962493462 5.680356776288516 11.737767769207283 0.2850461233069091 -0.624897367379156 -0.34338214004364087
Ni 0.7285628686008181 7.8418968190704526 11.609146705986426 0.16707851095047355 -0.26655397803999253 -0.6299583268418312
Ni 8.093987959101778 0.1357304118767297 7.109424540123375 -0.10211727558774025 -0.8764011359542455 -0.591927854431671
Ni 8.757326028003707 2.832868814777013 1.7579062242839485 1.1108482061573643 0.2725104527337436 -0.5033592640626429
Ni 1.719783987799394 1.5407154399934402 2.911596439874382 -0.4448062462190985 0.8645959157892013 0.01926836131130875
Ni 1.8130941889077143 7.034936376152199 0.18792506277887458 0.24836033785010128 -0.2110042657991463 1.108037990402079
Ni 7.70371434018047 3.9094012035779646 4.018492586161209 -0.060595759305185966 -0.09047994845912805 0.18406938908151527
Ni 7.573376281489483 3.8740190285545277 13.111887106657553 0.5472359108409349 0.4457657819188903 0.3991190285946288
Ni 7.187034015348557 1.0432896011045132 9.561804233061789 -2.0634799797405754 0.4323320250114877 0.45925404621331223
Ni 7.313093299385546 0.36126023540209 0.7656419251964388 -1.300771225806179 1.5006886376635447 0.3316748789090416
Ni 1.88207571618209 6.790835939214022 9.50326090455337 0.4217550208265898 0.19245118538730727 0.7188444484512782
Ni 0.1285415218971616 5.205650499397842 1.3687269842645275 0.058834296529389 0.006522117389233929 0.6830312954074108
Ni 6.365820132931198 1.700255221429869 7.155429596066639 -0.42783953645777284 1.4902535583731495 1.7634440678930534
Ni 3.6947036283646892 4.547871180473757 0.49972796593567165 -1.1264465748162535 1.1415122109001243 -0.23343097023377862
Ni 5.865066358200273 5.951976682689367 4.899192407486188 0.819379467153563 -1.2930525170056828 0.2647791455277569
Ni 6.474243185541778 2.2114499377310173 11.880103768023144 -0.23553490395065887 -0.1489046682549242 -0.5914033493867686
P 8.884555575193927 5.683081295192129 12.73974068112616 1.153324115933388 0.10806912229580097 -0.3498412654054233
P 4.145062946059649 6.4821790325496185 12.789907485408099 -1.381041580722157 -0.34594373012323 -0.43147173389372145
P 2.3750216414375585 9.017499297937027 1.7862750488008021 -0.028899199532853456 -1.6707198034844386 -0.6416959269937337
P 6.649499235418849 7.953931230630452 5.871191954392962 -0.4468230195388111 0.533869516836358 0.5141625253257339
P 4.802805694260196 1.1250434535746876 12.928068936132046 0.3844819954077443 1.4953196600421472 -0.35848042913766004
P 4.169181338233248 6.504706598249295 8.34399091081906 -0.9865309974338171 0.10490897940026449 -0.060956999299346636
P 4.782655225590518 1.1908616132629886 4.005339011172522 1.9309943762736228 0.26832803922127985 -0.5853180624246371
P 8.980864575632399 5.805721216578276 3.8819237904473605 1.9652466125882733 -0.787203910862283 -0.27347770174301933
Ni 0.7374906964846389 9.085548271761175 4.692800043588492 -0.6736346846838591 0.588329081336819 0.03449520556339221
Ni 1.5766096051464153 6.524299363385013 4.968439986774305 2.9627690760365875 0.32587241329465166 -0.598334272178647
Ni 8.053248173079961 7.920295307655976 9.259495089735568 0.21599272015267318 -1.3135303252440604 0.7738272324450608
Ni 8.886795532010655 2.9727426896306475 10.788663323771749 -0.8316104620021161 0.01074155478722021 -0.35125100126875636
Ni 3.4204140591455316 4.612153369773443 4.911676738234121 0.07858653945565175 -0.8214628320451529 -0.010132974668943839
Ni 1.2905991190331894 1.089460139571789 7.164086800596276 0.6495653024394813 0.5420217136298472 -0.39549634424037694
Ni 1.6096512538633927 1.5599607832555422 11.669055036750915 0.40200817721696575 -1.2957909989827683 0.09403347013834128
Ni 3.8939135021594367 7.131108236377402 1.697490474730363 1.172019378350046 1.147871577459249 -0.4034526229729762
Ni 5.868741715915886 8.161424373306655 8.05583920884266 -0.7052821363858112 0.8451234088868865 0.02654535458869622
Ni 6.8439549151536 1.023715121330565 5.034704309289775 0.39697010057242604 -0.7567029140599484 -0.9995392367680271
Ni 0.7106870989352303 7.864250673833321 7.738744521989849 0.5725864737905817 -0.580983182494709 -1.2919199460631363
Ni 5.3277601452926815 5.009677134636246 7.263429342552262 -1.755255361434674 -1.5345608649309572 -0.34898097428765706
Ni 0.4069818682379316 0.7083401727521512 9.803831109975336 0.20154671993067222 -1.3514378989231113 -0.3908336486573849
Ni 4.730797939613016 0.6696072051845048 10.584264978574986 0.17626609098701257 -0.0385403221670433 -0.4088707086647539
Ni 8.634393540829253 7.076499003453632 5.518033962790812 -1.4227474451013755 2.1782118587685324 0.18274655650503366
Ni 7.285528116518449 6.325564908996265 7.296093398548704 0.6759535626250229 1.4249632218057715 -0.8879739283935094
Ni 2.231975256316965 5.706660269193536 2.408542366632889 -0.08577534389460713 -0.6990958050694412 0.6101081248851234
Ni 3.1894790826811907 4.795180698402433 9.511651142801176 1.669100779823777 -0.19172227764108274 -0.5605305710673121
Ni 1.155141159046821 3.8832805642906365 3.7560729595345395 -0.12695901722176844 -0.020710750184790138 0.4940271880284394
Ni 0.528755063476217 9.125026367820915 0.45912989146756494 1.222929792046668 0.3757060489873271 -0.17006793259610065
Ni 2.5669447985672726 5.246518282952046 7.080989888304153 -0.5434301639415996 1.1104869661632035 0.7110555485344785
Ni 5.308633656882079 3.0039192314471648 5.258424796268072 0.02313684312777951 0.4573768837952574 -0.14448931279604793
Ni 4.156207874057987 7.10367105104269 6.078320304101869 -1.0569046620613733 -0.3449394572284317 0.061950473560867504
Ni 0.7656126686176079 7.703997763287893 2.3894204495627296 -0.44158593950958785 -0.9077914773400688 0.8097154617012378
P 0.18191009302489025 5.859909886181353 8.53753780807388 0.4222422448756534 0.7768634481682234 -1.7468064593363721
P 8.600839901982738 1.954924597470655 8.311394510661163 0.3310241326989203 0.8348896469740202 -0.5370178326573526
P 1.9335215815197855 3.638256716583113 10.709793987120667 -0.45669605567814897 -0.9142022659624192 0.7392127276949849
P 3.841919075968665 6.3467027872014805 3.8116458310235477 0.21544533228963542 1.353379081809882 0.6477015097578652
P 6.904580032099442 4.352382377799045 10.438114653294065 0.2611785726606921 -1.166510789826991 1.3630328028495622
P 6.499019850739068 8.358321148837597 10.736677125993772 -1.3815203201307884 0.7423111641146507 -1.742632787574657
P 2.292006099005308 8.530953249300786 6.14034242268688 -0.02636074938171589 -0.4391395348516243 0.31242297265796515
P 6.923048247486353 4.354649762658427 1.9064519319566346 0.9355755894318726 -1.8538509970224006 -1.093435924218188
Ni 2.669050258686587 1.6791447712673064 0.5042535929735532 0.18239302982035682 0.6021287062240727 -0.28637846896508745
Ni 1.2646339053208993 3.500220520587285 8.498785640876378 -2.3404122156910985 1.5132528474818003 -0.6977305492907984
Ni 8.039424439582431 0.24059513308701913 11.771447577050006 0.6782480150861545 -0.1262895019585696 0.03879717537285576
Ni 2.434787346380248 1.802927527764029 9.217143449073795 2.3671992539769553 -1.9144020191325803 1.7533504311024772
Ni 6.885654682668303 1.833592079451008 2.6986606592675706 -2.7785798735477565 0.28890869158610893 -0.16648972832653908
Ni 4.280758615749017 7.309646508692049 10.47580992658131 -0.1736746761107525 -0.07676182754208714 0.6113378835271666
Ni 6.959408689364444 6.5321803543075445 11.54323071961266 1.1213251944292884 -1.6539652097339193 0.16867490890331593
Ni 7.712857021065079 4.423265582697419 8.360811615110565 0.5471806321229673 -2.766339622727823 0.6186146196942378
Ni 3.3333025956769764 8.724896938906 12.379116776313639 -0.5315493533436135 -0.42651464699876224 1.6073868477537478
Ni 9.018340424578412 5.508355520806365 10.644533530966328 0.13573084987712755 -0.5581096203306453 -0.37784829214131055
Ni 8.688490783623484 2.4700689519139547 6.154619633156286 -0.24109414320599123 0.36587903559457635 -0.6783698853759994
Ni 4.0105649675661645 2.92754127533714 11.373168626746134 -0.9946919359780546 -0.35143020715909795 0.48525252715960293
Ni 1.255143802562675 3.4704976650314205 12.870904323901028 -0.9392769495428597 1.5067888370240112 1.224991045451071
Ni 3.1659732501268607 8.457875800990106 8.277834471938029 0.3175762347241305 0.782721192500581 -0.10223014701652071
Ni 5.6034759727298376 8.12388452559445 3.972046852999306 -1.2659458905968777 0.48292824990180055 -1.0569167462462314
Ni 3.1319807625978844 8.94121276863585 4.139098261050529 -0.025810790415516836 -1.7936208485867495 -1.3041126314745863
Ni 3.549709852215674 3.068091708576236 7.58364259785481 1.0593148141647628 -0.635328590014809 -0.9858943922910827
Ni 5.998768923456797 5.985182899662267 9.355117474839608 0.34434501817754243 0.0631897452846073 0.5586572653039992
Ni 7.817330435533508 8.674639622083301 3.140696480285182 0.21267008353734343 0.538570521856453 0.15539181864116464
Ni 4.412321793678542 0.5263377386503264 1.649224433804335 1.7270076794428901 -0.44417941126837696 0.9380844718966554
Ni 6.0662784791087505 6.000789455932295 0.4956567301377552 -0.17187953188354269 -2.1794853261643174 1.0404354607617567
Ni 8.04005528456347 7.337485971985683 0.2949986556908855 1.338401120343811 0.35075657813084105 0.2787705747108425
Ni 0.12467233934679502 4.854525840024429 6.1086154914811095 -0.3725263657077649 -0.4540395918919084 0.5534592660428275
Ni 7.270342123569115 6.317217641348616 2.847540989060634 -0.4161353606469672 -0.4486796131315756 -0.34509140942526373
P 8.741637187605717 1.6245081103008827 3.605253467125851 0.31930710137230817 -0.2813385925483348 1.5692928690955037
P 2.087932318979948 3.5971512233259104 1.6424670783625204 -0.8148029035264742 -0.28983608849638465 0.5789833784558609
P 4.6172001296217475 1.0692456721359183 8.373309659879824 0.07793193659078836 1.2857019901778826 -0.37763951856461414
P 8.687695370386525 1.7487937142462586 13.163779134822418 0.3198328919687911 2.3548823842828153 -1.1519812287522484
P 6.287869635709021 7.782862528598531 1.5795078349868366 -0.6447730232571606 1.6034890553612384 2.230662363258765
P 1.8244311132046298 3.3162240677845265 6.228284041579758 -0.6071089330474835 0.25146365936577336 -0.39569791872822174
P 6.921228853990316 4.20282640388861 6.146109625788892 1.3899923621575416 -0.3270175826426884 -0.35336959027365594
P 2.449744772307469 8.915997254756098 10.500270255019993 -1.0025371430540864 -0.08760674067639106 -1.448619941992763
