# total energy = -340895.24691415223 ev
CRYSTAL
PRIMVEC
9.02406066424392 0.00000000000000 0.00000000000000

0.00000000000000 9.02406066424392 0.00000000000000

0.00000000000000 0.00000000000000 13.20762494815786

PRIMCOORD
 96 1
Ni 6.2256993538411916 2.123568994120845 11.283379360537658 0.9405820415075286 -0.5883717616492964 1.0989113455104622
Ni 4.664997110693664 0.29824429783231776 6.318514523523846 0.07626971839701703 0.07293319782461634 -2.158350601068231
Ni 2.6803715764236555 1.5385030542644311 4.763289885112918 0.7357106280789975 -0.8316647122788192 0.0949888920730751
Ni 3.370197834875145 4.269075479369662 4.720418378386975 0.851248805058334 -0.5393007151542584 0.48439197893152064
Ni 4.89215076214299 4.4260309640215825 2.422516266267794 0.7580126340103075 0.45939597110781527 0.992985237699593
Ni 7.171014813779784 6.090897937769761 2.5580531432717337 -0.09749623187596111 -0.5463018290624398 0.10385508421445339
Ni 5.217432047704027 4.668471373994473 11.330583318720016 -0.4627083233104999 -0.3676708373876764 -0.17021808502071975
Ni 5.784819852998656 7.744033632839882 12.275971873548833 -0.5894899344141397 0.3086799606757652 0.19892136649268322
Ni 2.000119846185568 6.343580656434652 0.5675069228935146 -0.35507268900769173 0.08677267481086992 -1.4935247729252537
Ni 2.7830292889172017 1.7471212854024232 0.4667063620553106 -0.1733355476037789 -0.9393132020974339 -0.5852985220406113
Ni 0.56980444870231 -0.25238672947978147 4.5678837809845785 0.4901877596776912 0.4069110138352218 0.057401934958236624
Ni 8.545514592124936 2.5554876028654467 1.4395650595178824 0.5611815743877496 -1.5399416696268964 0.03655903007095639
Ni 6.799981541374312 0.6567855632577593 4.577881537636442 -0.4398375893599135 -0.23654894703747 1.1101869184242814
Ni 0.9024331243400213 7.173415213878525 2.5438673201318025 -0.931377749300441 0.5084019686928728 0.26589320452754206
Ni 7.490033401338842 3.854627451794847 3.7942862663051677 0.49559864628061745 -0.23103933007315047 -0.2441660972630956
Ni 7.526048426880485 3.825579000975867 12.640370656658835 1.0589977971449762 -0.3294719577204519 -0.6832992043568168
Ni 7.827406927998801 8.831441949751344 6.871675897406198 -0.5109231924528298 0.519215514368609 -0.09597105348068632
Ni 6.977394571228665 0.46433122932602955 0.5192489544422367 -0.5974670390823452 1.3303360839474894 -1.2576049748313503
Ni 1.7393966895959467 6.444839639547352 9.073559298357562 1.0635887589497683 0.6351781804798738 -0.20510075583051776
Ni 9.038318537208669 4.894442873515472 1.4562992773491088 0.3118120785468437 0.46617879835760356 -0.16002957452349212
Ni 6.37215985610651 1.9910687134824188 7.078256495678415 0.4464180707909086 0.1429883027704892 0.039465405084473965
Ni 3.3742586621098574 4.355877917526784 0.5837556462686797 -0.37001465502950465 0.27659567854671074 -0.706861307947473
Ni 6.079094466607529 5.683335268372916 4.795675433512781 -0.6238051627562418 -0.7095925908357069 0.08563547588263316
Ni 5.313402931351079 3.043436603388568 9.232156259618357 0.6007333685384427 0.46439059610892924 -0.1023677010356495
P 0.24698221963340447 5.7158399343716635 12.489948591824541 0.08296949901469582 -1.263889008067849 -0.499376625265811
P 4.080571879134282 6.119188367504929 12.46494652974344 -0.6196631155634102 -0.002653378462447043 1.1049004732143617
P 2.1995154874705007 8.405407028466815 1.2211548203079188 1.199429652042199 0.7644910426457995 1.1453549816849822
P 6.228830702842183 7.6623658851195415 5.830374212917667 -0.001956095285106309 0.880652969252064 -0.2971431636807592
P 4.715540873675058 1.1415978003435772 12.65884832298283 0.3410468070422449 -0.709706490705752 0.21505272483690707
P 3.92913009546105 6.184369156652335 8.397275447530815 0.4450178480092723 0.3535919906971072 -3.092811103059054
P 4.728860387004917 1.0732315178320524 3.786269290937792 -0.009127416222564926 -0.6834742964821003 0.25137958429239937
P 0.26856957721313907 5.368801638893086 3.701120060668224 -0.6182078711741223 0.47785649180584805 -0.3114906906516829
Ni 1.4744232005006592 1.1173772219036442 2.5732812454019074 -0.5355615598268002 -0.3553226002349687 -0.5594411946578751
Ni 1.7666674004921752 6.423344327384938 4.912285245978749 0.6582520315802017 0.5399620028873411 -0.004558051684327634
Ni 6.0144280489098545 5.6013155822922345 9.078577578413615 -0.024943043098582852 0.7499987625668955 1.1495903599225685
Ni 8.514128909630866 2.491290436314894 10.061924941420425 1.3006897218359663 -0.6581615287489245 1.253741378110886
Ni 2.552509662893324 5.109747933499958 6.982765692051112 -1.072419726977837 -0.07354974836269268 0.20917312612767847
Ni 0.6039532985280902 9.096884689993754 9.111649857819172 0.34482350047585775 0.2796522059848474 -0.023438176418282216
Ni 1.3589332739454199 0.9802656463386883 11.447087549677882 0.398639517855049 1.0590240223972214 -0.5323386820141284
Ni 4.1123907165333895 6.933357155883332 1.6746075446751783 0.337034086338426 -0.6041354522414563 -0.8651484458585615
Ni 5.5640281642170475 7.920995459668155 8.054550652981554 -0.14093013468987986 -0.3102653028850141 0.6651963241085189
Ni 5.4655034714423865 2.8058330898552457 5.02333533475737 -1.6903478621280115 -0.4137941141083002 -1.3915684483954098
Ni 0.7120471050798388 7.5814110381804065 6.8928481482019395 0.40450883215163236 -1.1612328292575032 0.47531521344123306
Ni 5.121777006175231 4.586208038279708 7.078863814951518 -0.5155951440072023 -0.17594496020216793 -0.3486647285988189
Ni 8.308858604946382 7.222036851968823 8.928063468162001 -0.9092045556375116 -0.021166606775286124 1.3214611500553628
Ni 4.681285539935123 0.25066764595041957 10.642637674481225 -0.31666554998440305 0.4683578082867934 -1.3730547058619385
Ni 8.103443915293552 7.061047612263754 4.631266977276084 -0.20640044847854777 -0.34389687489653037 0.5753005302876351
Ni 7.207210320531859 6.239343733349829 7.106084893514878 0.46221827104795876 -1.1837042708871421 -1.2786139729828496
Ni 2.332322586166661 5.205051036668413 2.779187746353163 -0.247595948880251 -0.6400378225650203 -0.7805547809768815
Ni 2.283006095416201 5.14068241296795 11.415614333796752 0.0838632144735588 0.5390014387462846 0.13289363753864855
Ni 0.9055734974015328 3.1818025233660236 3.8781152765204276 0.6189660894963857 0.39815743601230785 -0.442189891642174
Ni 3.493854536202418 2.5119013905461935 2.7181823900090953 0.022678672544438363 0.9006165568581845 -0.31785751340997515
Ni 1.1660349562360282 3.1860257836901256 8.345739940298097 0.08137078706900826 0.572409324782769 -1.150251133435019
Ni 3.7028517778823167 2.4630902471849425 6.910414384413256 -0.17092179595596368 0.7838059409243275 0.5531509907737893
Ni 4.135835225768465 6.8006583459134315 6.002336710216984 -0.32001569740355856 0.45159781521963516 -0.00293645692050462
Ni 0.9062593260011732 7.416550476511579 11.271465795837065 -0.5645826296494986 -0.6332681079413546 0.5895218160933395
P 0.24238807042186578 5.4933607462725185 7.801638723179416 0.5242250517680584 0.6091161932854994 0.6656979463352858
P 8.571467790185013 1.6034040975356674 8.007676975414288 -0.9199237418272286 0.5668475144242755 -0.4856055396236475
P 1.9855189162616442 3.2380043722944523 10.359228932146394 -2.09342176160533 0.1711100007073698 1.3356202151645642
P 4.125854614831593 6.064367199836304 3.7539505205857893 -0.29856241262578903 0.822350633966745 0.2172762148507871
P 7.019573030106551 3.966940909046489 10.315194224019217 -0.19297260510841605 1.6509930144794727 0.0395052571834739
P 6.429074605816144 7.874449355497822 10.09890644384393 0.5833095166350406 -1.0581549895287068 0.6347179530140036
P 2.3367173036406723 8.520048693333026 5.827956667103935 1.6910091498610942 -0.7341697659544388 -0.554618319347935
P 6.888832441269834 3.9625461915724776 1.6000110507795515 -0.3208513059309765 0.35478858210836967 0.21262817455581445
Ni 5.251940055138566 3.0663216208713058 0.3162617370697135 0.6055639571578668 -0.739140736806469 0.15644854204045316
Ni 1.251862795856819 1.1249664568022968 6.70916971312745 0.3119480899040757 0.619588810682049 1.1073576765056026
Ni 6.846437404939429 0.8540876225016841 9.227387946038753 0.0799818771412816 -0.6594938744071029 0.1536961761062966
Ni 2.7521940741149473 1.5342888180008512 9.402917654462252 1.1396111372226696 -0.4880542582744562 -0.7879130211141656
Ni 6.320091026896967 1.9593671888700919 2.398187399101602 0.21474547800913338 0.23249586001401892 0.8417249247282987
Ni 3.9294730097608697 6.877209451318033 10.334820653247611 0.5666767931743659 0.4677047480838268 1.1829604507425822
Ni 8.120219643803178 7.1711231025060425 0.4613911904080973 0.7842761956925267 -0.0021502135737833934 -0.4445802462512214
Ni 7.710987523209839 3.9062541020388326 8.12074755134369 0.08163689624620134 -0.18210789447977024 -0.3901062835730572
Ni 3.267449881776383 8.272834555344216 12.436933138666284 -0.3652393451280484 0.21075435457186928 0.5146284092185589
Ni 0.04077521746677986 5.0968886472567 10.093663464680889 0.003443992684542456 -1.2141916408427218 0.2245156700220198
Ni 8.332456523210325 2.2253243005622325 5.743745036722561 0.49620748350921 0.1326648093572941 -0.0828424865185283
Ni 3.7222083877011154 2.776116858557668 11.540981094592864 -0.1622594922952754 -0.03987421048711842 -0.14956492754674242
Ni 1.0507977033753932 3.392171422245203 12.617402617819298 -0.306180334182363 -0.05558982145016233 -0.5964493964511083
Ni 3.1268369707290518 8.562597138692297 7.975648779811079 -0.5035199580102231 -0.6644342491315138 0.6268146390065269
Ni 5.61506825052713 7.865930642365447 3.6428877981224392 -0.891663975650587 -0.17552869860035578 -0.45318264320825175
Ni 3.060383789048103 8.273105277159864 3.4180280628576996 -0.21621203525233085 0.20625723803246415 0.9303464798224492
Ni 3.455014979717518 4.325746579445212 9.26436944846226 -0.22558344916490183 0.026784210072379678 -0.07951393636592757
Ni 7.3069081411743255 6.084689384130912 11.414280577651661 0.36873681675834563 0.24596175571093767 -0.5558455068868169
Ni 0.488081654212788 9.242262304996482 0.2758547012722143 -0.388334279274299 -0.4952222367778052 1.0421812398082695
Ni 4.603019863031419 0.41983900133040897 1.6356055551008897 -0.39911800015336424 -0.7422893097377796 -0.6449812826132246
Ni 6.061434380166788 5.520369759413621 0.29019573825311645 -0.923415557030571 1.108482019918033 0.6712407305303859
Ni 8.066797205515396 8.83859802974496 11.326845552851976 -0.8155351537068084 0.2573995652342341 -0.1371729816402928
Ni 0.028075657094753903 4.613226075481332 5.804803635023705 0.18972144516097003 0.3723661859808168 0.390953719175017
Ni 7.931752139809883 8.585085097512085 2.503479234861399 0.3219964752790132 0.6715688032937659 0.7998565666292871
P 8.572559701508126 1.413185925801186 3.7008421196041597 -0.12257322944924696 0.7863675310039167 -1.4924325683023396
P 1.6665274008841513 3.3417269239295453 1.545279221310089 0.3994810399197378 -0.5628044547031533 0.7757776713032123
P 4.845243695551793 1.23159475592534 8.355500364158244 -1.4629330161813257 -1.9889732667812523 0.1288526347000555
P 8.418735565857196 1.7255808529374008 12.363908636113518 -0.49706828884760845 0.4934474042655695 -0.023988135384481267
P 6.191606453190646 7.644164355047506 1.3314342543179951 -0.10841982076700038 -0.07149543693682525 0.5939199451610352
P 1.9068922769370777 3.25644052794005 5.964932881761068 -0.8860787682533255 -0.7457016778534383 0.24574526882475742
P 6.884726493732513 3.953260433295767 5.987637418033374 0.5949301315931045 0.9671335667438117 0.5819740856530686
P 2.38642182899356 8.451944108576626 10.206984909492792 1.0861828422002004 0.8414621579852153 -0.27264080766402077
