# total energy = -340894.4029747147 ev
CRYSTAL
PRIMVEC
9.04422291772273 0.00000000000000 0.00000000000000

0.00000000000000 9.04422291772273 0.00000000000000

0.00000000000000 0.00000000000000 13.23713444415334

PRIMCOORD
 96 1
Ni 6.41408134253779 2.009454444241944 11.376548661739507 -0.15560753419639653 -0.9261139297983405 0.9139168735115164
Ni 4.437801107168249 0.6479706222466405 5.995111343538188 -0.12440771155482444 -1.206655994587309 0.6880526598814021
Ni 2.647569577009779 1.5576502991435497 4.580643751685415 -0.18673588017008486 0.4996717879087265 0.6380292767754238
Ni 3.464127223695967 4.438587954543357 4.674336472348657 -0.4835108618781479 -0.8726964334091486 0.5358878328179674
Ni 5.152330877548661 4.556307557237797 2.652178512898922 -0.852772440791712 -0.19218096244505614 -1.4217017774456806
Ni 7.4639437580550885 5.998689238039257 2.550715900512047 -1.1328558207767072 0.639679410784337 -0.14961197873459395
Ni 5.147175670608293 4.449242048886784 11.519072949617549 -0.5331375237663399 0.4063600264277582 -0.8617270788818385
Ni 5.6030406717000645 8.10829940448758 12.306338167815202 -0.11933723901045253 -0.6626540173026394 0.25224064674111396
Ni 1.8357782356877559 6.364663709691875 0.44033154860039975 0.6506629063790342 0.46483488273519946 -0.6020960532139243
Ni 2.7034176521970994 1.6055394583527582 0.3550038295146065 0.01957406547718564 -0.3129991568764094 0.7112990320038524
Ni 0.39167543930602794 9.24988832665262 4.850152543994233 0.08261905765381256 -0.7608524174519476 -0.29286716201322466
Ni 8.567465546865726 2.3772106277669347 1.413289129634651 -0.2333895754728819 0.22763313260507895 0.4096135003680494
Ni 6.854453590140349 0.8357042661471688 5.006853650958286 -0.8799934812911941 -1.0853991699566403 -1.3072362647052325
Ni 0.6180378627907772 7.395723186210885 2.395749475462314 0.4247904652188039 0.0033923135110006087 0.877939941196275
Ni 7.6718613937605635 3.827922037677306 3.6584396351902213 0.08039659608119702 -0.2143541561079857 0.5848426654501154
Ni 7.833689670574607 3.8305358180383 12.572921154079795 -0.3759744721573654 0.5646150255493307 -0.47344165056760396
Ni 7.9320184597951 -0.14804849910466727 7.014807658653902 -1.185491701804868 -0.6630417396593613 -0.256337699628623
Ni 6.841348511444572 0.779017791515336 0.4838315465321332 -0.2529271312851773 -0.36942870061904765 -0.6212425442353882
Ni 1.8750753833296843 6.377208046580105 9.142160781199793 0.5948596833664853 0.13746917272447293 -0.2864098364236551
Ni 0.19931024895960048 4.748651041449738 1.297890274485648 -0.30518120349388733 -0.05531908428727892 0.21519927771710035
Ni 6.257489670668434 1.8937517032101403 6.995070451450455 0.529171082919424 1.0242429101622939 1.476319979011193
Ni 3.541292531792844 4.076764781111141 0.3676729766761285 -0.7770141148134748 0.8119296957437372 0.20433019621308035
Ni 5.871889235751609 5.217440236783239 4.677222483812993 0.9127786461420151 1.2242001741186594 1.306275700564176
Ni 5.458423550688689 2.9597942331420333 9.387047581623598 -0.8470265394468703 -0.7381387779045159 -1.0613902086365528
P 0.216183150833198 5.604551056891366 12.342714031524254 0.5114235291280159 -0.8568255278151631 0.04743736754635701
P 3.847312851151252 6.133764704099603 12.442720524056044 0.35412986547844816 -0.035395605890474524 1.3365221581535434
P 2.328697417191261 8.567158043293846 1.471268023690657 -0.26551550947314917 -0.6113060018479665 -0.5599176200736615
P 6.271634834974988 7.741022564765816 5.90867299390454 0.16442461826739424 0.2638702605602424 -0.7724882019186632
P 4.658588671779238 1.0565913172078851 12.825247732098594 0.9129925619250341 0.8313939751159359 -1.3581070834131708
P 3.9969766484305684 6.044190722455032 8.130128540402092 0.3860215719807223 0.5692391545849036 0.7057233376882878
P 4.655160911375029 0.8845267891392647 3.8181325710242286 1.532476985818735 1.350089869535649 -0.3790281713820247
P 0.15277139219986058 5.575636676911793 3.7853970069528917 0.6635557031813024 0.12294269697352374 -0.5940387301270866
Ni 1.3200947456423104 1.201099907546833 2.5534825282367115 0.11873894330482132 -0.9045503446949519 0.34654099738759675
Ni 1.8213617447001305 6.612276438838184 4.844631950456688 0.2813895003909283 0.33084364125699794 -0.05694042194078581
Ni 6.124829012069631 5.732870488593018 9.459295545837179 -0.6651127632557771 -0.8077495962241186 -1.5091925613694976
Ni 8.604221267928281 2.259536246186008 10.197332155443402 0.6254840931205614 1.0583401089563191 0.6096944343864725
Ni 2.4719579047972773 5.003680033212015 7.078544104882256 -0.1655301926267472 1.2175060499279353 -0.30039792317263103
Ni 0.4451032804981859 9.309218427580365 9.231365758558104 -0.02949826656943307 -0.0038761951259546146 -0.3039324186884507
Ni 1.5971283312395261 0.8652128515582895 11.428345829578424 -0.6699142984094785 0.8915709017161484 -0.07561922929721171
Ni 4.100089831460631 6.953361209613797 1.4256923766487224 -0.15466342511557235 -0.8326435312523208 -0.06250814583655041
Ni 5.542037389572377 7.723558170727482 7.993071485147651 0.21526998305403572 0.2987675866580597 -0.17930950579902666
Ni 5.24540497337906 2.8180079538365077 4.942798848090809 -0.018987596846096334 0.046030459896501376 -0.3110376622746643
Ni 0.8635315305579133 7.830135291052564 7.144915133183819 0.5572277319463242 -1.9599748226663727 -0.3474413977146791
Ni 5.373679183967201 4.569439768601682 7.253632116600288 -0.22061607785729748 0.11011314930902327 0.033323810963110344
Ni 8.36752491558377 7.341186523315413 9.316242170931048 -0.8775406488753273 -0.7247749550031002 -0.08429850223876449
Ni 4.407575314896827 0.06661070020317632 10.371002937463969 -0.02248172604228386 1.0634033824118394 -0.10801307224688494
Ni 8.044546678658362 7.302884240170748 4.666010360928828 0.1907707123610908 -0.1903066282404787 0.1798062429297871
Ni 7.314044810985511 6.0175645308191665 6.870668072601212 -0.07477642168094219 0.8667402158257137 0.46365191817069185
Ni 2.1942550467200843 5.112617695662423 2.6902619258541884 0.7112913186943686 1.476702302051276 -0.5397390882432576
Ni 2.291977873019517 4.95863075993136 11.4146980975205 -0.29633840839127673 1.0576027165696624 0.6315809500469188
Ni 1.0555874084879187 3.3885627430174146 3.8402384601534347 -0.32976172104672885 -0.25931863663381793 0.9089898685235442
Ni 3.715791764612951 2.555336593890704 2.593273490438191 0.7473780371145968 0.05420399684622924 0.19501586079068997
Ni 0.9483138830147517 3.3513005454835265 8.007525961870627 -0.03253911027828589 -0.46156906749973414 0.7061599110050741
Ni 3.828835504170249 2.9183083836061243 7.41951944056317 -0.9931878406287025 -1.5658414202117936 -1.0056525487546166
Ni 4.216715083208079 6.521987963600124 5.862580921746299 0.16998797128778467 1.4508652863835143 0.5214757711576955
Ni 0.7728107414746789 7.565854059465732 11.549438927340857 0.5753509239095962 -0.7174717364734676 -0.3362995221652466
P 0.125022812526627 5.769409148310714 8.054306299376522 0.2348445627518536 -0.5609694583769436 -1.3664785953063177
P 8.327160549662958 1.6505977758561152 8.008267588132224 0.6177833820421941 1.4156182902557621 -0.1939575947295047
P 1.7298884762880562 3.2129691592503176 10.253801568730378 -0.6369635545150707 -0.5786835878272549 0.06212325169330592
P 4.0633612430661845 6.241246246694925 3.59512645858434 -0.3805818890223897 -0.6668004353708452 0.009525422991931981
P 6.995055076271861 3.9462747359609134 10.421741026824431 0.8154986440419181 0.7403501837335379 0.9622204457129105
P 6.304935662965226 7.754652208378333 10.067290703739213 -0.09542109451448727 0.5050716187680593 1.561273341225137
P 2.398247489772717 8.650880412849963 5.542586373890413 -0.17955813147472302 -1.0594238289388012 1.145880772281465
P 6.9349109953009 4.080671885318578 1.5279092772089775 0.8056150663796189 0.10280221746990682 -0.49464425278714813
Ni 5.632352997478544 3.0584214817117057 0.14103199113214532 -0.5731122643870646 -0.6719303003982428 0.6567106552350109
Ni 1.5503335229773083 1.0800610751206132 6.912603420005431 0.36313566852148427 1.0123168481486695 0.3686825664816425
Ni 6.762763260383418 0.7661596200993339 9.270229687932588 -0.6900681476495341 -0.7091102518826498 -0.27073330622866276
Ni 2.5429007876749035 1.4961586289899318 9.164809323691143 0.6228114313844048 -0.09820354235563086 -0.037455316632980656
Ni 6.141578912514476 2.190610224971017 2.4730540645888084 0.5152300473582997 -0.6274779836221387 0.7164396956645275
Ni 3.961496162769053 6.7806798655568725 10.345746945567516 0.41625131739954113 -0.37644909780093877 -0.08235397691788397
Ni 8.267966112075749 7.014436845523104 0.4435105928802933 -0.385421219392562 0.3691481932641513 -0.408924958941457
Ni 7.6580779983621055 3.948662410754347 8.348289662740305 -0.17963397901798095 -0.21191597898013825 -0.8706421219832812
Ni 3.1414112692289287 8.444446029667683 12.643660541946618 -0.0264651361700641 -1.254440975281072 -0.2824541942100168
Ni 0.21575716794391495 4.956125510242796 10.07688752844873 -1.1794421531766783 -1.0843067082234101 1.094821748822121
Ni 8.71756346683476 2.2860267744813374 5.834690347776637 -0.279479427852409 1.4900306437290662 0.47982210017265103
Ni 3.5408855417712366 2.5949774219953228 11.320555878988948 0.6489801193599726 -0.6088523981011514 0.7509485280746744
Ni 1.129768123093004 3.203337062072262 12.699680457365284 0.06780924633448968 0.004804106256862693 -0.31408827617553003
Ni 3.200587618370732 8.278339835515403 7.841718227067528 -0.4792040069726779 -0.06192244853640949 0.034176902992025006
Ni 5.794316937633124 7.791199912318731 3.6194689839878498 -0.48252458670547865 0.07370298611110532 0.2065619137570765
Ni 3.253876178533273 8.2617527310792 3.460543902661276 -0.8794736042319822 -0.09282967963822722 0.584210174072439
Ni 3.49733760945918 4.222268235947353 9.404970517752945 -0.13949700178777913 1.1310079689346908 -0.2908380473983378
Ni 7.218619217252488 6.210450668393252 11.509264490096795 0.9317942680125695 -0.17899377433082078 -0.2393409079603104
Ni 0.4191409348086764 9.091343102679547 0.3977215021825824 0.16562043834770832 0.07986463483712697 -0.059600999492084444
Ni 4.695606675300161 0.19781614336916398 1.6734778504486467 -0.08763502281116521 0.8255151477376557 -0.3069863750234262
Ni 5.932783987206868 5.684737135370845 0.18850602051931337 -0.2736723342523287 0.24491403117271368 1.1888842724261848
Ni 7.813575319284469 8.76975767605031 11.349227873800096 0.18398145735339927 1.0080328760613348 0.5144713148154043
Ni 0.2306141125771475 4.921079147270994 5.912193909802585 -0.220143251985937 -0.6661265492322721 0.09003514761222559
Ni 7.753539768985939 -0.02249750397222011 2.647678107682208 0.3893439514857359 -0.48254361286887215 -0.08466848398367353
P 8.387304630633919 1.7582511586827827 3.680492163405483 0.07853100362736798 -0.1863864672504661 -0.6310561878917003
P 1.888180462025462 3.156831668936521 1.7831878895178404 -0.9959669460357364 0.8020440611989091 -2.032377859019132
P 4.560721137916567 0.9667912299957551 8.343617417292245 0.8771953497207666 0.9345322357690228 -0.7191154427244777
P 8.476851479610382 1.6705493311376098 12.505491047299781 0.28315816225557683 -0.5205686859623938 -0.7735153576315968
P 6.343771555249331 7.70354330588707 1.2716041456233924 0.1999935165109394 -0.21863658553342347 0.38517285082718183
P 1.9185057407466093 3.2840838823592895 5.993417360626029 0.19047066462216874 -1.3282570899312738 -0.7549921020164287
P 7.037653365200165 3.938550969773064 6.055512280433897 0.19140268951813488 -0.5646602769649695 -0.9584280685500138
P 2.205867828669966 8.30704619837282 9.969799409540961 0.8138726784027209 0.9969172257641478 1.078843885336626
