# total energy = -381164.6660619031 ev
CRYSTAL
PRIMVEC
9.28076309822997 0.00000000000000 0.00000000000000
0.00000000000000 9.28076309822997 0.00000000000000
0.00000000000000 0.00000000000000 13.58333490816707
PRIMCOORD
 96 1
Ni 8.738497108311112 2.9229669624122625 5.909877452425261 -0.3685175016586879 1.0305004610362316 0.23611211661036757
Ni 2.0381483180304016 8.209688524853828 5.231974342697194 -1.1301160532480408 -1.0182440122663818 0.9395839392603174
Ni 8.121753297344434 1.9332756984149764 12.633397523183302 1.5063134400494897 -1.4426338996126573 -1.5469921487157743
Ni 8.967731949417395 6.661443832632227 10.316352074239173 0.8396181627979412 -1.3069552431297038 0.5052734503662202
Ni 3.7712194013706917 5.1121875372656636 8.335996922303389 1.4777140311452421 0.394712671996817 -1.1833656566008006
Ni 6.118482085908259 6.8342145128765415 0.3996194372352773 -0.6724910579977192 0.48580325745675046 0.33436630969827574
Ni 4.946767221157226 2.3482928492081254 7.490937065747413 -0.43463007701704504 0.04146726600585117 0.9203716279979246
Ni 2.8614819088766703 9.234962233417976 1.7118264892197885 1.954298598217202 -0.3919397372373702 -0.3479517616921943
Ni 0.6125609711736989 5.43589126289101 1.7998322505264464 0.6784634735310703 0.026766726570882932 0.003194081457265467
Ni 2.4531933111119444 1.934092405541185 0.3521112124732099 -0.6977639736318951 -1.694853977528481 0.6232832288145007
Ni 2.4749102960588556 3.2761278291579066 9.57229847151705 0.9030783881351157 -0.1920755472154434 0.4828205206793426
Ni 4.5743023677921055 6.556552651491206 4.60646206703913 1.8393528034062256 1.6132114248553249 -0.29928772082758776
Ni 3.5607966664556003 3.771980423920114 11.766061051683703 1.4510257232207786 -2.897872632473519 0.7295188974459889
Ni 6.60467340659793 9.097374924940217 4.271917482389644 -0.9363556621310068 -0.5481170278943077 -2.3146273934175103
Ni 4.268798218013295 4.241791198271623 4.075665544190551 1.871374607728461 -0.162286745988785 1.0570704982152763
Ni 1.2950376408085345 0.9300809245468545 3.1365553655176925 1.6053662177792933 -2.1713534410858024 0.49698010000917636
Ni 8.48296986619859 0.43085291635507844 5.280195330042134 1.9037756497669855 2.5533532935016416 -0.8467905121766641
Ni 7.4612878128372 3.040916176809824 7.68259781059042 -1.8563719636720415 -0.07703873535255766 -1.151287288009017
Ni 2.7229294010679372 3.868240495659157 6.745049584296435 0.9110112698289471 -1.1051406142496258 1.2363329528264515
Ni 2.3178055434172697 4.020277951813131 13.569968485154675 -1.5211409919806254 2.84755974315158 0.09744532403336766
Ni 9.171621027322818 3.9608810699070487 13.405026128330327 0.40241055486170696 -0.171400278254279 0.05704532294976627
Ni 5.639594725540476 5.468643074804536 11.151469449609843 -0.09921424300833236 -0.16944289741759205 -0.035390206573835827
Ni 3.344554893266272 5.414851773628341 10.492310696504543 -0.32064536056775744 3.2938999095167016 -1.3921014380807444
Ni 1.5032329926521482 7.532545509598902 2.847664709223268 0.16315500752635126 -0.05297758063829585 0.7583229661618747
P 8.658951690370953 7.059486468268154 1.08885064603437 -0.8747191202661323 0.18747815765274808 -0.8730445607771867
Ni 2.4482002607267144 0.9778026068532719 10.130545634569033 -0.1853546835518421 -0.24053955625410187 -0.4113034864759626
P 2.4168684055212566 2.0320879799234217 7.827844532605225 0.9169844566932465 -0.8593889176669651 -0.16947452198647586
Ni 2.6573886541896954 9.230544590326211 7.392933138678658 -0.7058845458565004 2.387081851833495 -0.21308017449156852
P 4.559880062404285 8.144927362050604 13.2461283323162 -1.5904003404980802 0.05040622036669384 1.2020501203841814
P 3.273232231164985 -0.08777931069439071 3.97346485618462 1.7491217377331103 1.5624534775761671 -1.7014414009380119
P 8.52956857620647 3.454374159452938 2.1008528637976283 -1.179335709505801 -0.3037884369114187 -1.541314895825339
Ni 6.445758905210768 5.1173754836696475 8.602257366591598 -0.07001705261908586 -0.4800113333653217 0.8739788996659981
Ni 8.617939999567362 8.572529227197602 3.300900041217862 0.5950278335132333 -0.5007673349657505 -2.077443641009519
Ni 7.937381663602837 4.007284883896175 11.255721186194092 0.5691789907709295 1.6590757914876073 -0.2916191485387365
Ni 3.002456695775636 8.096648833976316 9.31534199193366 0.6595504386766512 -1.7436198340782747 1.4478707225315646
Ni 0.7486958402735985 8.72471517555634 0.928116187062555 0.10906953853585732 -0.40794125487194904 -0.6992305308750925
Ni 4.616000835042735 1.336114296951709 0.669343462199633 1.2850358173487935 0.011651211085683158 1.8721868192171114
Ni 7.22265155901672 2.451411404654762 9.765249242388954 -1.1175644418352753 -1.2523054169953078 0.6057719594036148
Ni 3.657344441841376 4.209141474748874 1.8480263236592729 0.22753157403020813 0.30953330981499594 -0.2830116093753836
Ni 4.902024663708911 8.993792331353688 5.59148417927283 -2.206478824034026 -2.579771892704486 1.0183113751692074
Ni 5.777209876306629 5.7065275868383925 2.6007602238262053 -0.4253252546763514 0.11801363510302257 0.5203246882723878
Ni 5.470090873800996 4.7540336201347895 6.330349835590972 -2.1815992871835266 -1.4063232381070814 0.17959001315392298
Ni 1.3524020356618922 1.2873902922631266 5.663041644672902 0.8512611463535081 0.5559632634116037 0.8742902602588296
Ni 1.4738593783970313 5.205384957281425 8.902272873251775 -1.4955515735472955 1.620205853895287 -0.8281088766067608
Ni 6.325777203760484 -0.06141173550948942 13.42242663049997 1.4223116431155376 0.7497660777307992 -0.6666284285693552
Ni 5.745775932710395 6.796024173963491 7.125871764560999 -0.10920863521688288 -0.07102518216862608 -0.2800478987613693
Ni 5.202099567250995 8.732557420120504 8.043697441833325 -1.157193369080807 0.6239689420276158 0.6642362741880947
Ni 2.0356517928377866 0.21176009283425837 12.409422090354546 -1.0445319994286333 -0.8417483217670665 0.096906163700446
Ni 3.4859009106771506 6.077952994770156 12.739918406271622 0.6344850110675913 0.9275599182162477 0.6983437573947651
Ni 8.650886707499643 4.678079857397388 3.8140241355468216 -0.6169588292583698 0.06273440291474357 0.4156576496796002
Ni 2.7267901983918326 5.756235352383545 5.398478651900417 -0.9748697590458051 -0.12550634393564192 0.99730160568676
Ni 5.918528051429114 3.021240959678434 12.227024474860047 -0.5043365403742476 0.1486069345088473 -0.10426568938931075
Ni 1.2804946855043424 4.706868783596241 11.276572275971965 -1.0493427905537154 -0.7822044007651626 0.5796541792706403
Ni 0.1755651179227399 2.134751777992965 10.371079804381669 0.144315506222345 1.1048325960909038 0.42798351823480485
Ni 8.938785250250978 1.3080585510138834 1.5124367251187514 -0.9021077966917301 0.9080681280402231 -0.2522337047625785
Ni 6.471856410198253 1.3974137352313447 5.819698136471353 1.1866908643192917 1.706896767625628 1.6392425588117638
P 2.0407654931393884 7.501028039137488 11.493809875009502 0.08193180177880084 -0.23146253365349817 -1.2163369693204986
Ni 3.331654632977295 7.222373136132785 7.025436277639213 1.0054764281880684 -1.6625156704070918 0.31373577793211777
P 0.2568451104298136 8.615879670226246 6.658564011936062 1.0498169019766566 -0.9041181422535396 1.1780265037760744
Ni 0.5219296820715364 3.084610008061985 8.106995956419611 0.9808447456823174 -0.9546606310877815 -1.1811200550997336
P 7.171431029135522 6.933212409640944 3.8542980057079843 -0.3618056368561511 0.07592724745593375 -0.39766995485292805
P 8.542023359881153 4.427044504479013 8.981830356183572 -0.5835985086303691 1.7495035465525612 1.9889277582552976
P 2.4402002431949894 5.444819356702518 3.414469663651129 -0.4879655552153919 0.07009881369961475 -2.4084294642713364
Ni 4.170941855073025 1.2156407150731394 12.062775391016697 0.05006940585256538 0.02339138234074681 -0.7344057932246448
Ni 0.03941725575492337 9.067407341866039 10.375792575730406 0.31179279527313397 -1.660645192857256 3.325504938016492
Ni 4.871890026904373 1.1282344910432214 9.80491243835802 0.18224262028542162 0.1330695009948805 -0.6904108757009335
Ni 0.9062822645043913 7.643756890205243 8.589543649634857 -0.4571506267170643 0.46957342586144935 -1.5473623875709996
Ni 6.73901244809645 0.6743346564323035 11.174982262158132 0.0875810296447782 -1.0340604104733482 0.21709160964380675
Ni 1.339464652321724 3.103264341285614 2.165007064713875 1.5316943420164395 0.6801614300587835 -0.6144067522604774
Ni 4.285624240965752 1.8076048893696248 5.312469182671572 -1.9331880414908316 1.7940980453334843 -1.2113917095000815
Ni 7.455069701762658 5.683409206709009 5.588468859439817 -0.2142538830846955 -1.5015653838415428 0.04873037532616769
Ni 5.078878879584268 3.491933406495737 9.644425775752907 -0.7202156177671919 0.1254297250614356 1.0427584524679783
Ni 4.5186734755819415 8.259646870994521 11.113951965999632 0.7455646380549418 -0.5382085105313441 -0.017198623266473607
Ni 0.8331693432594038 6.432784398819409 12.946452501574424 -0.2479970409734116 -0.10740346368734406 0.32718727545133325
Ni 6.816729555765439 0.30814731102363196 2.099956342111358 -0.18540327740159038 1.213784120991658 -0.9417902028830167
Ni 8.287878951425505 6.230046135500917 7.698151440963296 1.1166432155725867 0.7339118843073619 0.4430974910581078
Ni 3.595655211524232 2.1426497071339137 2.9339052694457797 -0.4336599997942919 -1.6861045134706252 -0.11991496589079348
Ni 7.4824479520162415 6.345795809115392 12.135079029745713 0.8646776768697302 -0.4934772290622404 0.5737203302847088
Ni 7.306902323695377 4.953161666724928 0.9575937458610074 0.4511537857036811 -0.445983040136019 -0.3653876977804546
Ni 9.16901313297663 0.7366076467294311 8.580674024628975 -0.8605842235266469 0.6308625838236555 -4.423838556646613
Ni 8.544315708292215 8.408862975257955 12.5319300154384 -0.38558654132583275 0.49792292353841994 0.4432486719239914
Ni 2.2764597451529585 3.3891489585098222 4.645663081020864 -2.075326594666516 -0.30087203459557216 -1.3565142850047542
Ni 0.1107649759157645 6.7087757229011356 4.61251962091727 0.28384181858616275 0.7019196476714815 0.8347199541653753
Ni 5.073672371654689 8.1385421972457 2.6434934961287913 -0.5023027977736704 0.034083314836954204 0.38760228620428083
Ni 3.3797382650328274 6.7943072328458936 1.6810329182566044 0.47034141437572546 -0.8211293599651343 -0.7737848092428997
Ni 6.892191438074556 2.4734717778251922 0.7433538332071703 -0.7748266202438527 0.5182600924338752 1.692330696885995
Ni 7.058790411058317 7.793631928627322 9.64744109558592 -0.7367511535283698 0.34393569855426576 -0.17988414735557406
Ni 9.325403266882782 2.4663719942848563 3.9539594770124302 -1.2137375840244387 -0.7442096666889442 -0.8677185205785831
P 6.832952329136038 0.755500495556964 8.002159531779098 0.6242962434600474 1.1594173733153192 0.615755810089204
Ni 0.7775005437692087 5.026201269943813 6.235362156431511 -1.8486540262024937 -0.38016382764836465 0.5064600144751535
P 5.067454260580146 6.702418400384626 9.330405598030811 -0.5136974127638573 0.7890931574651959 0.4555475438960026
Ni 5.938834360430756 2.7487484831714872 3.044827090252827 0.4280765921692434 -0.16099939463592916 0.02062307556699029
P 4.928029361068417 4.442209270890659 0.13127731785151786 0.895514716855245 0.3759009386069526 -0.6649402422336548
P 1.4532004004090722 2.395912443123767 11.95879465270614 0.9561076479469532 0.6583754445319436 0.9993158079033112
P 6.436496703938539 3.44694026845188 5.0515609542888695 0.838026392830789 -0.27569502110931227 -0.43677411994324133
Ni 7.389352620391257 7.952370095521325 6.032454055153818 0.15151562351521003 -0.8597447583444872 1.6535162951219586
