# total energy = -340873.1047591234 ev
CRYSTAL
PRIMVEC
9.21097528654601 0.00000000000000 0.00000000000000

0.00000000000000 9.21097528654601 0.00000000000000

0.00000000000000 0.00000000000000 13.48119339150945

PRIMCOORD
 96 1
Ni 3.7629229512797706 4.02827273166209 3.535510415428854 -1.4264207801879047 1.5193103665297898 1.074950978040123
Ni 5.127059202489199 9.02106354520957 11.194526758658055 -0.280243302601627 -1.164715131379149 -0.14495056870318263
Ni 9.411682591531891 0.48204166192238623 5.68290288400112 0.4608699845501804 0.9303313103137978 -0.19450472548222633
Ni 0.8193006064419851 7.333170718373296 0.5733242706958126 0.6504060531732218 0.5550620917535731 1.4630687704282417
Ni 1.3344676993276086 4.534378988010569 11.798983205232586 -0.523874096186543 -0.2496698006901442 3.5705953468660696
Ni 3.960203623184399 2.320548674710463 5.214930065960847 0.5021073939334127 -0.04976704412079816 -0.9962525955969552
Ni 7.581811789313324 8.144086573875194 1.7372406277387409 0.5572313314907501 0.8698733621380567 -0.7722110369978765
Ni 8.450314663245875 6.02685175998044 1.9524412523555947 -0.9680439943732231 -1.7288082229867388 -0.4013096084880443
Ni 8.874728778445688 3.8028341078472723 10.320150045689477 -0.10641410319088125 -0.06550759478450655 -0.22435806139823297
Ni 7.499106440866614 3.573296599963094 2.5850593352304934 1.1574417376461872 -1.600175160496657 -0.581876897953572
Ni 4.068478639443569 1.9851954810087304 9.959918928430586 -1.0978903604451156 -1.6720986861098361 1.1752810798204534
Ni 1.1265115068917702 4.3163183555205995 0.8453501660746996 0.20193341384612964 0.6342921783304948 -0.11349080753200455
Ni 5.579437839115028 8.558138341708645 5.602164078810157 0.13568122758611473 -0.6377827079822564 -1.0251836768090088
Ni 2.941727647190443 3.038829750244817 13.30476491561104 1.6649721023673845 1.0998654818936153 1.0551768807369892
Ni 8.334486647128559 5.119837797746776 4.335619033450796 0.9597030786076957 -0.654335213024299 0.2946383949810345
Ni 3.7869820191206003 0.28267470408133083 3.508938593488875 -2.0483606076006335 0.7527966370270067 0.7273874529252827
Ni 6.767708936310306 1.2631747494470493 10.239734545736345 0.4466363574493018 1.2343282636915969 -0.49764704416921385
Ni 6.399776522488737 5.512906963535276 0.35058814707414127 1.5455960396991963 -0.47400343660834493 0.8942170810897438
Ni 3.6477489144184636 4.997672630528964 1.503652132857473 -0.07000625398580847 0.8134589879040701 -0.9380279076271071
Ni 0.7955611594488113 2.020491938882413 1.617365309014509 -0.8807498998412445 1.0360920961913962 1.1965299618969005
Ni 5.507168525838171 6.109907125493748 6.0632203753949625 -0.3564587707219409 -0.07200605802465664 -0.10698771630616412
Ni 9.30207198383439 7.7422946143480775 8.122810141713812 -0.6234668055802165 -0.7609817439409603 0.1974067296203697
Ni 6.242821501046264 1.207466770005496 6.862844496108931 3.170928159077455 -0.1119023799989621 -0.3266090343503601
Ni 3.236294641658181 0.889371259882086 12.40244210316732 -0.5076437503706096 -0.46378073043907225 -1.2130582985692269
P 7.922129698775473 8.776558202240649 6.851466178151895 -1.2186540474894496 0.3178148330974978 0.24815439248688226
P 6.425668574441482 7.072896185456633 9.888697824158434 -1.8203055569667879 -0.7190653062128326 0.7878307458130045
P 2.524332295273447 0.7465163996382136 5.4621480411958965 -1.172369562600613 -0.37250965353721655 0.09173876056689362
P 6.90711704954574 3.3752053622200306 11.46261404094018 0.24657110716016248 -0.5097062893265931 0.268382289497983
P 0.12097787248401236 2.1590157984759184 7.4117311278734626 1.1548045571336565 1.8549084917526375 -1.7989396896965018
P 2.91076034777204 2.5044918541826555 2.2800203827886976 0.2509826059642968 -0.3780997460304843 -1.3587110355457568
P 9.034051020575408 0.871169451321495 10.931036674216415 0.358500483742318 0.907239975711973 0.5228608244306802
P 8.858517461676982 0.38080843638462286 0.5465682292470982 0.9818752438293605 -0.3789392112126442 0.2524082826672298
Ni 7.634811741976469 6.972726827581816 5.688591582430865 1.6766243418943316 0.8447593406792484 1.6351542476750032
Ni 3.7476972088827987 4.516601805417612 5.954481125973779 -2.745721432256839 0.9768399953982982 0.029404164193730004
Ni 4.337927303895249 6.79448524190498 9.125136514474487 0.26929143157581364 -0.4517631371529058 -0.999960897686478
Ni 2.110538434752226 6.0184974052592946 7.430672577761626 1.4230919729249878 2.3120719739855087 -0.32638277727216697
Ni 5.546987572651305 3.905554905918074 9.754735239601214 -0.07902259855180584 0.06041398231168305 0.11389987004496512
Ni 8.975782389962434 5.52490886452938 7.312387994495324 -0.5951396765007492 0.1173099241677786 -0.013076116457667803
Ni 0.8791258919037724 6.875329973313465 3.2687578034875147 2.3050865438066106 -0.3663276930962207 -0.4729896506318499
Ni 7.79726571575469 2.4780747766300144 5.353705385183777 0.1401570039692812 0.9874134000387703 0.5419728626697827
Ni 7.679328386262353 3.2383302672297063 8.337133881469086 -0.38139410051103995 -0.614855923982754 -0.670532905830084
Ni 3.6704447578946526 7.926827296248224 -0.08170227322164733 -0.8804971604004901 -0.4792178909297488 0.9638651804051853
Ni 1.346119583255116 4.479011814660176 3.2594427440283145 -0.21702013297592304 -1.0426990599849526 -0.5116896383052091
Ni 5.361017978583025 6.624865129236957 12.227792797910823 -0.28777329243008504 1.5210291489931094 -1.233357158027579
Ni 5.868791421485557 4.238909317950028 4.56101160238843 0.4907325764375678 -0.1741726987930936 -0.5169267183344324
Ni 3.911376242394109 6.664186783376506 4.135504144404275 -0.5424310332531239 0.13934633514252776 0.1480294647388225
Ni 1.8528890298350411 1.7147612421853162 8.938894275533277 -1.3967111689386138 -0.6810628588271302 1.8886652764881084
Ni 7.796869643810909 7.31283288460892 12.85129846278613 -1.4174234617853008 1.032540631394712 0.19436048659487817
Ni 2.2302534825038576 4.922796611203503 9.919233128828854 1.706412886010674 0.7469959711848296 -2.2849987719178
Ni 8.822815720884082 0.770373747116978 8.790250317227398 -0.7051340408437211 -0.6553698249364004 0.3091679560557772
Ni 1.5334800346143485 7.593730791528498 5.40513670873004 0.5559720051623521 -0.3024342368763695 0.6559881752466896
Ni 5.220071632449649 2.0903756095211476 12.090784143776665 0.7509112470788358 -0.553312456052318 0.4819959678955182
Ni 5.158404151900509 7.308568202981697 1.9865891015923127 -1.2913224216884533 -1.1254489867896746 -1.711473074142401
Ni 6.507922585091791 5.495885080928134 8.311128534518467 0.7625521737518738 1.1536167074731423 0.566758811365211
Ni 1.3547963221165484 2.9447764800600122 5.5564085583280285 -0.08685649277392783 -0.11052966802115159 -0.19558510303059864
Ni 4.321200172502085 0.3943209373503568 7.615876739771112 -1.2564428362024491 -1.9405208277068196 0.5784614445141198
P 5.848370688942249 1.4371240205703522 4.8351652330932104 0.834353571964892 -0.300917800231843 -2.341996786569399
P 0.4328965024795277 6.048617294937515 9.504120256625086 -0.20784720822740332 -0.328438374249615 0.5136002250643606
P 2.354850347236975 2.790603173199443 10.91975322930638 -0.8819102386979328 0.10774413485621444 0.8079308589969892
P 8.448592210839202 8.00108618021942 3.816539118199635 -0.4105342124101059 1.1517434017098294 0.27469794730336566
P 6.001862383620498 4.949222899731581 2.4033461329115413 -1.8886614198333664 1.4509902419971525 0.41072987336067973
P 5.734476977666652 8.514469107162942 0.10620623117607268 0.2984253728272925 -0.19865782841865143 0.17363199579827515
P 8.87776840033982 5.538642428905597 13.314970676394976 -0.44381919971548084 -0.8666931646378623 -0.018857499026135264
P 2.9863364012306945 7.830968674877812 2.408051099164641 -0.7857453240388855 -0.6827633864580048 -0.41887332840342056
Ni 4.3730763861619435 1.2376971913889576 0.9729037539230183 0.6929243861514066 -0.32589503900247097 0.1734021391756562
Ni 8.05538488041915 8.247516617054625 10.347705599806103 0.6339828746201921 -0.5844593139687677 0.5541148973489554
Ni 7.213004332825262 5.526327354746641 11.179603136255407 0.5975236033518935 -0.33008053783872826 -0.22417294197062038
Ni 5.930164150820721 9.142012863669727 3.0908063635369376 1.065193384432727 1.193775796190531 0.7635135092238786
Ni 1.3735498681058016 3.9700501559263004 7.800434291304937 0.13904320207981216 -2.339595633327074 0.6179569315055808
Ni 0.9944353301039998 2.1118279713133727 12.73033164347264 -1.4860598320067762 0.5124409146489368 -1.3774294378908665
Ni 8.086462711542794 3.3347507581017597 -0.05310219449049267 -0.15334650607636172 0.6356916297811825 -0.39864440295105535
Ni 4.737462574440359 4.291181603553668 12.124743168016929 -0.13668627181186135 1.3338309844746252 -0.44381945682579693
Ni 1.946601493928686 8.884630577040209 7.45195914199599 1.2522074579648628 0.4703887226738931 0.011069113329968032
Ni 5.10715428457035 2.405326492630446 2.953810604768391 1.9258218309337478 -1.4787162471575115 -0.04174108849252811
Ni 0.6023508175896896 6.898320568003631 11.786566810343828 0.3755363561786823 -1.6778857251052586 -1.3818378513712073
Ni 3.324480520489767 7.1518802998268916 11.146964965892774 -0.9875861781712088 -0.45438437682583677 0.8680329664952082
Ni 6.575033752124059 6.876030007446659 3.7275233304811963 -0.6736174582926785 -1.1239196946293417 -0.7565090528815874
Ni 2.1937595978233952 0.22481411968020548 1.1239462502326312 -0.04469297203200045 -0.2899499883664297 0.08076220695073187
Ni 3.1602672504031246 2.339440385331267 7.328781688577678 0.884018286179871 1.5677970012762676 -0.4372068366052858
Ni 7.195669277053271 0.5335190403458335 12.52013257851795 0.6387257886218161 -0.2599650119685652 -1.2844745455286848
Ni 1.1004628683565991 9.082970511120065 12.402428286704165 -0.2885564504530127 -1.0291442041186534 0.3473130996669309
Ni 7.016451327980139 1.366724535307159 1.1435748388883769 -0.7473844648724999 0.6828348631258886 1.4149114939967244
Ni 5.481202786081931 3.409893895714887 0.7252399674768305 0.33803013170310814 -0.5132441272765226 0.4519261450933314
Ni 1.5240019408899175 8.276531189680435 10.228761510698527 -0.9003332212898107 1.1840585689027672 -2.0997469324924096
Ni 5.611059117789441 3.806140848029071 7.040633822891821 -0.8802115108392712 -2.648741477895664 0.5842109454033875
Ni 8.08336782379604 1.0065109189015984 3.4013995341671026 -0.7500247307088245 -0.657774320612835 -0.3905102038796952
Ni 1.1207730691946656 0.2439434734672786 3.333804790924404 1.0300384337981485 -0.6791075348729724 0.8188464774682284
Ni 6.249775787501021 7.826888212759325 7.890259723764267 0.2596899039303076 1.065018035197127 -0.5308039905371568
P 5.49931156379061 2.002493692878975 8.553870896788792 1.4114415331702532 1.565076002800679 0.22375873725133721
P 0.0989332449712032 2.6899916885036617 3.713731736959728 0.16066103745990395 0.5687555300802656 0.1251278775503006
P 7.294816216654607 4.717447124816269 6.248506515085835 1.013883678415157 -0.04953770171881146 -0.17088297229822827
P 3.7928401994983827 4.638923559217849 8.293360562900947 -0.1639368799976983 -0.031665963644713205 -0.6099795697270591
P 3.970409383968334 7.489352017879079 6.598706880094089 -1.452834237184427 0.03708482066743936 0.6638333823227213
P 3.1542064285657334 5.639244702625941 12.956330294594016 0.08846214669815088 0.2517580506777406 -0.7738781402876542
P 3.488002967418652 8.863776928651374 9.565890900099118 -0.3206433036852284 0.35749749639910045 0.3074933965668317
P 1.4765746283660157 5.297775421234197 5.214026469270501 0.4211878354692101 0.8589091498170691 1.2172399407507424
