# total energy = -340859.7772976042 ev
CRYSTAL
PRIMVEC
9.32209315115886 0.00000000000000 0.00000000000000

0.00000000000000 9.32209315115886 0.00000000000000

0.00000000000000 0.00000000000000 13.64382561833905

PRIMCOORD
 96 1
Ni 8.175084143002513 4.649487167189231 11.227858962243218 -0.5829863289676669 -1.175368497327937 -1.4228394905945494
Ni 4.741971653085623 3.674498769304167 6.251968958573022 -0.3372752558149546 1.7400683692815904 0.10560651968792135
Ni 0.9536408046280599 7.123607971024122 4.885062985931489 1.83017165112759 -1.4909572693083935 -1.162427620896553
Ni 1.8025199267136693 0.7834659946251739 13.220307214292347 0.7814652086062929 0.2788993869792229 -0.4764552405829472
Ni 3.849493101452848 7.046495616691399 12.63336399367949 0.012702535168332961 0.6989564512780995 -2.140226123553379
Ni 2.9505729834704715 1.7485450075180127 1.729982855686857 0.10107675013836785 0.6256892671528321 -1.5964437184786828
Ni 6.666368625319846 7.883181440969078 2.957503959709154 0.014773044544116494 -1.204932584138299 0.3397064909642666
Ni -0.025972283656479904 2.7378801067229586 3.7459255790397523 0.2650917916721693 -3.3870412068580764 -1.159342039992694
Ni 9.031048055863373 8.396008427979693 6.138111709768188 -0.2709580206449592 0.31099112530744505 1.5138514002977477
Ni 1.581521064991488 4.278113621262363 3.61746900019134 2.044698328257698 1.771321156648285 -0.6440369164220844
Ni 8.328758848173566 1.20136610734056 6.19877243415333 0.6512897413297557 1.2225351277114107 -0.5391053113140006
Ni 6.588967286100238 9.046737138593302 6.703716659217166 -0.14617724202143212 -0.2519310859204951 -0.3667809785835554
Ni 6.104759124984384 2.188902042572317 7.1298127562083415 3.150353420249897 -2.5137415926472904 -1.0584344684423383
Ni 9.059797391061888 3.225472187643306 7.141914697503644 0.8159586143974722 0.640259194547207 0.04811099657461392
Ni 7.44245152218976 2.2935145716247622 10.11255814747295 0.6557097247743223 -1.531149525256563 -0.22533019550351513
Ni 7.730867761394323 5.605784768358009 3.9677606325152754 0.1300206868662277 0.8904797255344987 -1.2847306274035486
Ni 4.4786784548538225 8.800885576598992 3.2686101735807678 2.1180277330794683 2.278630663607927 1.3159484477672496
Ni 7.052825317923498 4.130078782432134 0.47044036177905457 0.3275132913321844 0.19337575408410565 -0.47554095629879395
Ni 2.5930241016484668 3.797541076465388 9.870407456449396 2.013706507861874 -2.4340325095514213 0.47184936637981967
Ni 2.4391163441492805 3.4260556654210164 13.494371158921153 1.3179760197202397 -0.8560315711589579 -0.1630796742037256
Ni 1.734114407360003 7.705026919250909 8.76306118374297 1.0359164898454805 1.8172611137135088 0.36054065410079844
Ni 4.445025698671384 8.571608696181519 7.7705957256665386 -0.49632446870304847 -0.8148499547143256 -0.4526663656934656
Ni -0.22893848843702413 1.0220090356092246 11.287195949404566 -0.06658488700908533 -0.7788573386698006 3.769530083095192
Ni 0.38920018461043493 0.5855980425748721 2.2789963437913747 0.9267919297019714 1.3011545772875268 -0.17329029618814026
P 1.8292463677039883 0.13936436001436017 11.014646844908627 -0.025338992985420878 0.4621876749203395 -0.5270321821995504
P 3.9750989842235347 2.912268502818493 12.003728383180562 -0.3064927232164592 -0.4677623407946396 -0.674445867731245
P 3.1823575069386587 8.02352555297091 0.6769871825290378 -2.8994307209892582 1.2343082090869388 0.6542665645698926
P 0.9580594767694659 2.695315429512705 1.291760579958253 0.23281056304096032 -0.9686862559429122 1.207545596281114
P 9.325169416060636 5.827016682408324 12.475422566484973 0.36918161760524804 2.7521044529650474 -0.542941140120323
P 5.79108001341018 4.583813021121286 4.329035554959474 -1.0411373719247876 -0.49503094670260545 1.0652260374428753
P 2.6102326855578246 3.388077458028425 7.768494525876089 0.41138010535016895 -0.806078893389915 -1.416092401678703
P 7.879937352561463 6.18601981075788 1.5131006302888212 -1.3181734804430265 0.8843088208370963 0.4825603250394206
Ni 5.860837236267019 5.510512976617144 9.61885636671826 -0.29138646370264015 0.9874673932051575 1.1354099546571284
Ni 4.007567834579056 1.3842376081801446 7.067570072619831 -1.1184306464903127 0.6877428419504672 -0.30893090034430665
Ni 7.123934244283509 3.73716187929263 8.379191371981598 -0.41920165827711675 1.5698099179412384 -0.5902720639958028
Ni 7.495438299514131 9.022397153443068 9.856545503972033 -0.5489050710132418 1.3717910086581666 -0.34678756618076406
Ni 4.632492991421755 5.099790875608262 13.295908457329455 -0.3639874749988183 -2.8042991326907316 -0.5281683526865226
Ni 2.324277478938349 8.58140621605624 3.0532157542455343 -2.393423220670491 -1.556466663865113 -0.8630923346604813
Ni 5.386790156657774 1.7802401241441324 3.479844142754166 0.24291731245765905 0.9470841042921045 -0.7199430808320957
Ni 6.996352077770252 7.076326314692452 7.973369895328701 0.25753403392956936 0.105519873511386 0.8713589455446477
Ni 1.6615325902861893 2.6834484049641607 5.528968856586671 0.25998660923512 2.3515129535899497 -0.06887368304326204
Ni 7.797958865617317 7.93734280202724 12.580398657169306 2.643557362591563 0.42883635315340335 -0.19155078506022494
Ni 8.605075010501452 5.455876188809589 8.776923136220335 0.12044872690707643 -0.04904225013963166 0.8063457738980564
Ni 7.390760515809809 3.4177123920738466 2.834613602665875 -1.6962999659463882 2.170052977106824 0.8661923137420438
Ni 4.829823058698726 3.187950762813856 8.650880979491383 -1.7297836995261306 0.27691475244902636 1.2599166536836623
Ni 6.870429243833305 1.0475049603070004 13.245534662708113 -0.08909412385519494 -1.4817720032646997 -2.116872279318786
Ni 7.765974764104313 5.418709003518901 6.288493851647374 0.4494283183721421 -0.7734698491056421 0.919980563207093
Ni 1.7096718791853898 1.0323379147920897 6.9510513662277145 -0.6065173222100716 -1.5343641755391189 2.0136671699835063
Ni 3.605757654597989 3.4478600412411615 4.387909234092492 1.2957223505283622 0.8372666318466291 -1.4103130759927647
Ni 0.6057635944235845 7.895337450404506 0.41659408746852755 1.4400514835974616 -0.844760369120513 -0.10978301966311416
Ni 4.345577609210371 8.715924019854741 10.100606291876964 -0.40768440166613656 -1.627441709522094 0.5415964531669705
Ni 4.60544027717205 7.181535457704919 1.9195224497389898 -1.3939354059656897 -2.2719267692251908 -0.7904255031233742
Ni 2.1242626488412837 5.253260494730558 11.629997279902298 0.8702304883671594 -1.7161020882739801 0.14092550670418955
Ni 1.754128941300085 2.539822916182213 11.398174535852299 -0.6721858680524746 -1.194529129416788 0.7368707098253697
Ni 3.3349322051209223 8.83218916531385 5.2570210270973154 -0.35642354660863135 -0.5276924414913685 1.8687248288104399
Ni 7.90191884815099 8.786594807837863 1.29577840209527 -0.720667617702946 -0.5124180318308013 -0.2188913818567069
P 5.869888988691713 0.7799702097031753 8.829465249702627 -0.8621055452671799 -0.2224323051304298 0.2193891474287318
P 5.274580121708185 0.7043876108523182 5.298579850459346 -0.7011151494923151 0.052615569313186804 0.2727948167433818
P 9.29973874601474 4.387107534083713 4.952340532016991 -0.35428310322686085 1.0532598662199346 2.643408752828841
P 2.3821583551535186 7.3203600685273225 6.57033428636133 0.8004052400439053 -0.012928535136209991 0.8064154507937273
P 3.6842869670857628 6.192144425941221 10.286516795075407 -0.20365990961893313 0.38818978327663467 -0.10680953885708702
P 9.123187624314127 0.5232873077065462 13.64000555877161 -1.6680851940750694 0.3953575046696675 -0.7169539162967846
P 9.005058060229954 8.11555325630416 8.440820661842462 -1.29659781115478 -0.007461598484367795 0.2732285618466907
P 1.9889897554996308 6.3537988428275565 2.930707603020395 -0.8197599904214334 -0.008934069264836227 -0.6760787753489776
Ni 2.7690252198546834 5.20761020469582 5.935514659875406 -0.4759806149393738 0.1258380162434478 0.6381483188517914
Ni 0.5215580594317977 6.249326145171991 7.103425639407784 0.5515126838394179 0.2938786339968745 -0.5168809526981614
Ni 1.620161140995978 5.658240186374238 0.22814517831205863 -0.2876717338552142 1.4682048061032265 0.4453657182669942
Ni 6.0636673384879325 7.564170092127185 0.3224241671350763 -0.34523102032692154 -0.2806263969726586 1.031502934158817
Ni 7.411399629989288 1.7942512301115021 1.5531315625876103 0.5374466926646551 -0.8052605112536776 0.0537846499206235
Ni 1.4806000848166732 7.365227302739532 11.55757580283024 -0.7172223394668228 1.7055446244731078 -0.0013922523618363119
Ni 7.682737794588247 0.8822494188463506 3.7139582572943732 0.005855430339512497 -0.7516221571029315 1.0088815972148755
Ni 2.954562839328112 1.385552023310816 3.8478179213182266 -0.7045727690236123 -0.2992944056958071 1.7425384280886376
Ni 0.17440144702591026 1.1076883935241262 9.184436572775478 0.7764782969146627 0.1344753802034716 -2.5928922321365278
Ni 7.337559330343555 3.1836346336968284 5.144608702726907 -0.6270444956291459 -0.10125827002155466 0.7992613562474493
Ni 6.3542835916700735 5.817601368351742 12.319678356640097 1.6391422857884737 1.11370290199734 -1.9149679189383797
Ni 5.426492951278552 1.0754992059623643 11.23665901815353 0.1067851133770548 0.8560822218912354 -0.031912532437880524
Ni 5.818095439287384 6.693169643055168 5.917913615845472 -1.6819349554739678 -0.2116447275966226 -0.6866357249292174
Ni 9.28502848306297 4.560936604591728 1.841084493763844 0.1894792472431769 0.5293292057638432 0.3188684711729927
Ni 9.218058566050605 7.4788636179372965 2.8572625601231754 0.026495218077051144 -0.6757293624293589 -0.49112338411808315
Ni 3.9410640222229576 5.933288544037078 3.7394318089686482 -0.058086362619770925 -0.4986562021600186 1.2447263190964692
Ni 4.1958647936175835 0.4312484178615452 13.581336965687349 1.089663087439317 0.3678351308796826 -0.4450345601798206
Ni 9.520187604242526 3.8123632045346616 13.144829955093806 -1.341518068706238 -1.2524547980889784 -0.5556030518587077
Ni 2.7052248145049296 1.2715148581086628 9.40814070592263 0.4942945827572132 -0.15333879276687784 -0.6642200762381787
Ni 2.0888946275237847 5.494106092716565 8.84673815605455 -0.3994959523180733 1.7867130657233228 -1.6953028921404416
Ni 5.744805143136046 3.562726872731469 10.879327341101344 -1.3608617633401725 1.0691222871734878 1.1955097481625023
Ni 5.746054303614839 5.150913234307567 2.277318367028815 0.7053713536655078 0.693802932101618 -0.49596374292952
Ni 7.956387838282288 6.965962054181679 10.509047276698078 0.38232766806890284 -1.317264338365196 -0.4816781795447833
Ni 3.350537389012724 4.897902304793005 1.3797732577824244 -0.13621396016113313 0.4468191628840692 3.918978025448096
P 1.0355260706409521 0.676244211706949 4.931451585741753 -0.5672408932079522 -0.4418888154619873 -1.2403718987825154
P -0.10011834795672392 3.4899026812363965 9.428238206491526 0.32893176894626575 -0.8589644285350367 -0.11087445295508
P 7.299590445044089 2.8867539339344668 12.23462264675528 0.5228675092988995 -0.08794201252862274 0.6348681054386228
P 5.825497181228895 8.141226300771317 11.926341027100642 -1.17060321472881 0.9404200620083675 -1.5765323242667364
P 5.014372536300869 3.469683061247557 1.0863771564303109 -0.4981939178116195 -1.0105746686465822 0.5882920574512965
P 5.776584158600293 0.18874628392716697 1.629236198653486 0.13590311378893372 0.7784924991312141 -0.2355343897300266
P 7.45674229095089 7.714936304243135 4.881638048917244 0.5357217395537482 0.016116703056204502 0.593765678971358
P 5.302798097598557 5.290101406761859 7.640583289475509 0.9611112718091319 0.016682859972319657 -0.9235505399465385
