# total energy = -340857.91704386414 ev
CRYSTAL
PRIMVEC
9.40067951754456 0.00000000000000 0.00000000000000
0.00000000000000 9.40067951754456 0.00000000000000
0.00000000000000 0.00000000000000 13.75884470916949
PRIMCOORD
 96 1
Ni 6.174084370453374 5.243182068606236 1.6037719285941432 0.6302933415837467 -0.7007425966442448 0.4856721311955248
Ni 0.48466143977814785 1.4591452924595543 12.429534443438206 1.0729375471545197 0.791394809015179 1.3674473869774901
Ni 2.659019840309726 8.361406308215422 6.594228945827817 -0.08381127818970081 -0.5667636964612175 0.4945465508670192
Ni 3.445480699411283 3.70900055122021 6.819777572414619 -2.7172822030795394 -0.33312960907769723 0.9813409685924454
Ni 4.274883863131246 9.142132752733522 11.293562895610922 0.13907842619312175 1.5160301531166214 -0.04206633304243078
Ni 5.5213105765835095 4.121511774722904 6.182096569714817 1.013943070898183 1.030207355275845 -1.6002360956415795
Ni 8.384268761112088 1.3866378503575902 6.001649583860881 0.25357582061276973 0.14512797482131135 -2.061665809349972
Ni 2.150837900059763 3.8967791271292893 12.086374853880647 0.5236403829091821 -1.13087452868062 0.13846881763358088
Ni 9.376501096963272 6.964869542191637 11.07565044109976 -1.1761130888034455 -0.012060016488327618 2.571475714133965
Ni 0.771774177292157 5.288361734980155 9.5801461399772 -0.030610525797005343 -1.2333358178713405 0.2850823758614832
Ni 5.347520211986205 3.4103409588982343 0.24297748664865065 1.2865995622914872 0.9499076897838286 -0.46474386568328996
Ni 3.430232797027076 3.5666648607151097 9.842032153663824 -0.4962697042057131 0.9071690132647214 0.20585306061551
Ni 5.524638417177843 1.9404506896044333 11.9607422909688 -0.12064798740207609 0.6968633161944966 -0.07638207560516523
Ni 4.426300610173426 1.6246630589692497 9.52267508496743 -0.8454769355715633 -1.627319839232249 0.1437786598822685
Ni 6.691619986950124 1.654510216842157 9.769495569454962 1.4931627616001446 0.5910495655917757 2.988814093950098
Ni 1.8544062688136547 0.8515868875462586 8.96841383330152 -0.8459052813582335 0.32829799201700877 -1.0548940593892477
Ni 6.378445745256252 9.16350049756663 12.306461685593696 1.0265090804886514 -0.7768269385033331 0.5377289997917641
Ni 8.892648115634595 5.095224771673419 5.112318967539906 -0.5916787145353423 -0.23915218898827204 -1.5726373600877046
Ni 1.0007775536485 2.7704648975013226 10.29538556995223 1.0304356692365673 0.020136622848874998 0.2366865010565988
Ni 7.125489554606281 9.234532032964328 2.2341204011708373 1.1169702598947022 -0.9574826739176091 -0.8521643748940679
Ni 3.5879856021499927 8.482383654567059 8.870561218808644 -1.0812969748628087 1.3779477722881817 -1.0360504443201835
Ni 0.528838993701909 4.860931632880829 7.165083337135135 0.35218456882661925 0.15868103091539768 0.9909944325218095
Ni 7.206683224700234 8.899416604979004 6.590871963126584 2.867740588974829 -1.270548936586528 1.6101587540719302
Ni 7.7833115134455175 3.6969582805949517 7.0638455379020915 0.2018850771066975 -0.3835929079345716 0.12568220739187388
P 7.383613416298972 5.33402083601597 9.714322040550432 -1.2079302333140423 -0.5052212569720461 0.10972799805546263
P 7.4057144141443905 2.762568326599514 1.844304298467127 -1.1328079982579071 1.3205890318630547 -1.4680947628879233
P 1.5199770904424155 1.727027059623766 3.962354508061023 0.28922750837810834 -1.1908473096898264 -0.13273911423865528
P 5.369132374490083 8.34038638852918 7.5371368556495995 -1.2816525026988572 -1.2295485829147663 1.1912964814121032
P 1.7732031980400562 5.09597682604502 4.998299064193541 0.41715788837421064 0.5389392180497815 0.5838854437431686
P 8.69080612297658 6.833889872697708 6.296556424868569 -0.7248538878701517 1.3269787374394824 0.9086607673188997
P 3.554143155427956 6.3890403112161795 9.807593703852294 -3.4438651578256554 1.5804249744529233 1.0934999446869038
P 3.2702426301486467 1.785771906725435 11.619632989641817 0.9865014297474622 2.5734660050911162 -0.863797331147306
Ni 2.0670214403448512 6.470121173154392 12.336634106982324 0.48477455908192 0.3543190986711188 0.0737171271784924
Ni 3.8635665259434684 6.399794688730071 0.7059261766507183 -1.143450565573418 0.08696936420270829 0.7611221261735666
Ni 0.9208557955105164 3.122181925739736 5.613677894503522 0.33761361299097986 -1.5239406662129498 0.4771262985080428
Ni 3.2996197540393037 8.09693698776235 2.720096055963358 -1.3955965957181966 0.11541476402759479 0.237362701188017
Ni 1.468921999290365 7.548980771934347 9.642156783187545 1.4297261904120537 1.2594502555702052 -0.33652192258869784
Ni 8.656033008969688 2.5336335752045795 3.475029855739444 0.5129319953527425 -0.7461125401386118 2.0348314627659474
Ni 8.466308492374091 1.2600765002968175 8.23301746603166 0.35102063042550513 1.3189180719185352 -0.7543125594509009
Ni 3.1323722624749264 6.847201235075043 4.767838582492222 -0.3109127066610259 -0.15533371170971957 -0.7394011895567072
Ni 4.103236853493004 6.102328982723011 6.638518367839355 1.5512128716653413 0.6426701179815448 0.17125038293997602
Ni 2.0726054440539876 0.2019002768718139 11.075939041964864 -1.5475145968781476 -1.2420117483787834 0.12803656655666337
Ni 7.802648711475304 4.387551008676694 13.662450500104661 0.5389039939364719 -0.1499217966655289 1.1603352571438985
Ni 1.0179713967192237 6.378022714672227 3.2972658238561934 0.1697113205876303 0.5756000638059248 0.464912015830038
Ni 8.398115962229188 3.508267838760306 9.473047016985493 -0.22680755137999 -0.44961909422670954 -0.10717823505041542
Ni 9.349286129390968 6.872329251766155 0.15188960122832393 0.3131616505962026 -1.8203315251087167 -0.8476780569879402
Ni 2.7641288394205854 0.9614827127323572 13.490313715056914 0.15189794655529323 -0.5953685046821037 0.26896978657033677
Ni 6.5081375216388135 0.9233037324900772 3.900549739734903 0.33074285401307557 1.9392507027451442 1.7139374765224933
Ni 3.281749062034139 0.23489008195004832 4.674223794383317 0.1886852905869718 0.6360317867294208 -0.9961782907155942
Ni 8.431488374968973 6.983717904879882 8.962278009697222 -0.05393608789682324 -0.36225172325463423 -0.47971231406766407
Ni 8.960474019273345 0.9539997717349291 10.411084434683193 1.4374508127498213 0.38218985693945795 1.181898585136971
Ni 6.6151360573583196 4.57652347090069 11.77981399031704 0.5204627565121488 -1.158590763648966 -2.745687750805426
Ni 8.154647760103067 8.608841597151738 4.493817231451854 0.16417650681233018 -1.2727014641531564 -0.7071595559141822
Ni 1.3950984620380997 5.239205581116396 1.2589286773121617 0.3222453580650257 -1.5415828047747453 -1.2911061919125895
Ni 6.485387876897889 6.4231177749293416 5.165332220262012 0.020824907165151233 -0.346801450137835 -1.756303343083214
Ni 6.834369307359604 5.9350532891197 7.320434268608753 0.08363130096841082 0.21803674716589547 1.2871117260412157
P 0.9288914964710713 1.1150616160928895 6.911108935437752 0.993606673333676 -0.3707767300065098 -0.0030146184566077114
P 6.895530129130041 2.768584761572321 5.287978187250638 1.039319087769126 -0.20519460109590468 -0.8067684632577717
P 3.3549239523908994 3.6391252994188488 0.19428760649528462 -1.7157660450907999 0.13352844290917001 1.002178474163087
P 4.734830916122663 0.3275892438615298 2.807602282438936 0.06331958599425223 0.940714967540967 0.2000436530225845
P 9.215223036973477 1.4456741185282547 1.3629979612542829 -0.4209062996730493 -1.4188727926373177 -0.032836329803730545
P 1.9166669701025578 7.26650914996108 1.2846376560053356 -0.5248871108320895 0.45465485687840407 0.6402190853378908
P 0.39557777925813736 4.749204555299883 12.851957743558598 -0.48490517112251336 0.6579890077268022 0.8562539715824092
P 1.827896352214726 3.5221714439552763 8.488890805017336 -1.0457710140420569 0.6297793780618056 -1.1129331137108511
Ni 4.956724558463484 2.7030150210483743 2.774553253078938 1.5195422800349379 0.5426282368655946 -0.4672254944545631
Ni 4.211184857856656 5.083060292212776 11.39614875230506 -0.23610208930803855 0.5502186476183426 0.5459660429895759
Ni 5.956524441428903 0.9872499756393304 7.89292625831023 -0.9653625908863179 0.4347393489013997 -2.2611384203604348
Ni 3.44772746184644 4.982332009816492 2.6705920769527336 -0.4248148906988361 -0.2671623010479528 -0.17736600891941065
Ni 5.429165114703118 8.606482026560839 5.47628132108391 -2.8295964738049397 -0.8180064980654363 -2.6210039027710796
Ni 6.17480822278604 1.3555027993733162 0.6742505865868563 0.14117901747589234 -0.8020309485727865 -0.2555452856343147
Ni 3.3800707704413013 2.780627032197579 4.513671466862116 -0.5380393319433315 0.5964529959955341 0.3126479441845777
Ni 0.1676376197696451 8.562477445142546 7.753494437747474 0.8288879208646305 -0.22984685242694608 -1.416708180885831
Ni 4.6988263130822725 8.7374898980937 0.8642289215328683 0.6214592882318846 0.8275717731563683 0.1650686796092964
Ni 5.117682995345349 1.5666890675984715 5.564049826521583 -0.47617396189710254 0.7675827941972458 1.4666896550102806
Ni 1.2100460832260729 8.514853602060924 4.747530294255106 -0.8925317229675209 0.18722978908736787 -0.2664027971741089
Ni 1.296325521007977 2.7768667603395745 0.6664367416659238 0.3548618585484663 1.08122781218777 -0.5305000861434928
Ni 2.9323540016680436 1.688484273079224 2.074998857091607 -0.1392190655360441 -0.25000738653522103 0.8939440299340152
Ni 5.275877632411582 7.682940456875743 9.977914277592625 2.9899134976618638 -1.6708180196251998 -0.10595644682817236
Ni 1.406670698681107 3.7995478975609482 3.3303693771581324 -0.27847515495761077 0.24750313205612862 -1.4316036099404248
Ni 5.52759963126602 5.898108618114809 13.090055337403525 1.2059725953670393 1.4656200760951854 0.33398810042325056
Ni 5.324638957730249 6.923591157870396 2.9092255095374253 0.2857902005617852 0.693972882020579 0.7177046784198802
Ni 3.15359899711336 1.1668123575386709 7.078692031265455 0.648744863420715 0.992139087649214 -0.6035890928196831
Ni 6.934119919072808 7.709816999980828 0.6274737447412498 -0.7375739065399813 -1.9245419357800595 -0.0124312837848173
Ni 8.694152764930205 4.762967150300177 2.37118513059898 -0.8354288073069419 0.6129548503052992 -0.3054403706925449
Ni 4.9390794827698 5.305395766496913 8.906169113168014 2.7800425741362123 -0.27492960369819747 -0.7493986670890513
Ni 2.2270868126604406 6.304650410042922 7.87503958514967 0.382399916067735 0.010286212417356479 0.2730601545896265
Ni 0.004614793637735526 8.274186802469018 1.9646395783990096 -0.12619617091381494 0.8769683213116253 1.5290779874395148
Ni 8.676141062730366 9.110593472524513 13.585964690376928 -1.9407375717033155 1.9149861737708247 0.5143900679555077
P 5.247064549299625 4.858026822870521 3.6947312595870487 0.7373404503729365 -0.034030864332463974 1.0582804593629773
P 7.614212087991073 6.900061256718935 2.7053877525907746 0.5369052183388883 0.021090245011395933 0.170334555993926
P 7.72149264409993 7.113362677864218 12.48904074559112 -1.786255409360614 0.05265207897807706 -0.7247759834443647
P 4.2598991797771 7.782803876744687 12.819212356151136 0.038929587185661994 -1.4726289033128508 -0.5666395121785273
P 5.142575995045336 3.363337560673183 8.167084859273416 0.3108366020074518 -2.233710148946153 0.35461169021087313
P 7.874592112798567 9.018946246665308 9.415989591880104 -1.6258512251065225 -1.9872154035498808 -1.05755772226434
P 0.9082269224754097 8.522515155971607 12.517053830865288 1.4558128601967768 -0.54284703774462 -0.9236551838452028
P 7.82737249894168 1.730683924005675 12.046776371011969 -2.0628672858572408 -0.04991771076604951 0.37332957833535063
