# total energy = -381160.58368383476 ev
CRYSTAL
PRIMVEC
9.30825774524172 0.00000000000000 0.00000000000000

0.00000000000000 9.30825774524172 0.00000000000000

0.00000000000000 0.00000000000000 13.62357610327341

PRIMCOORD
 96 1
Ni 6.606945527819816 9.110373534918432 8.728366358634167 -1.6418766540005014 1.8813067792405083 -1.5096160220601613
Ni 1.8730820980060774 9.101102510162365 8.752603200260522 -3.382270010721678 1.5985759343303374 -0.14355445968660435
Ni 3.6039340170234815 1.6918223941156032 9.351958195876302 1.517807299621702 -0.22594623182095924 0.7605626541256708
Ni 5.147019759957146 4.294848759537441 6.245715313742397 -0.7356666622149395 1.362818629956227 0.8178648302812496
Ni 8.645556374055971 9.089858134755406 3.035182711360513 -0.6836265057892484 1.1790467175104729 1.27690316093933
Ni 5.2518493591567825 6.287821217842873 4.336302154767032 1.3933954743018198 1.3752578841608443 -2.163720350020577
Ni 6.5847453329973025 1.3617888060120418 12.547463546886503 1.7941975470258262 -0.43024634612705254 -1.0355148835316874
Ni 1.1622756086008352 7.616900805990634 3.132278079164751 -0.43583978105443005 0.1601319044293113 -0.7189339228412909
Ni 0.5914653163153347 0.8844957872373731 6.888379771190539 0.20342696767252064 1.6447686308363156 0.16905388950928948
Ni 3.826494460715837 8.392399687017033 8.757929385366367 4.36736016194391 -1.0985817300851854 -1.1126873162486322
Ni 7.9613715019221685 3.894742606811711 12.581263692563445 -0.17524484881134983 1.6334989714597676 -0.7375736494296652
Ni 4.384980619691062 0.7691180703132625 12.730755243451926 -0.007719223021128642 -1.8514526719935536 0.5216382648774888
Ni 1.1999554361234892 3.8596690914694776 4.224385248088209 0.9118497065698424 -1.7735505601994357 -0.36220904294215683
Ni 0.07255786945135555 5.977595602310508 0.263328751148808 -1.097327288852794 -2.3598312436476583 -1.1299466175497122
Ni 8.768481226393957 6.573975678737493 7.784171129252699 -0.9635587049083599 -2.48842445403874 0.3599385017404253
Ni 2.1015160523621668 4.353825880877247 10.895509351699328 -0.22785064793252371 -0.8516588960125591 0.739386534268688
Ni 1.292358511177191 7.724001620090351 0.10191425286068014 -0.947368725412059 3.2688586502773576 0.9456432580805197
Ni 7.041576008678333 5.758702612186316 2.208259429362855 0.24585196960595077 -0.43597604952197816 2.484350541079683
Ni 1.2033529502158233 5.136557278204314 8.853907762236139 0.45642788961842684 -0.8078259579880087 -0.42473570072146855
Ni 4.798956076519746 4.848894879548165 1.982570480228216 0.825475809859288 0.03588617237364788 -0.3143723830748521
Ni 5.74838906255808 7.541010580251455 7.046140778297184 0.5117863117840734 0.6716539068084045 0.23364797134059118
Ni 0.7262572665062437 7.986857511743568 5.910616171751031 1.5939011545624873 -0.484124841313063 -0.17662296010579906
Ni -0.015668590333222168 2.4435759095268126 2.301130709783254 -1.3989791390371842 -0.17893695295095635 0.6082926689429395
Ni 6.019212822877154 5.763794229195923 12.217909334058982 -1.0709112607531104 -0.44762417528386783 0.669363311002015
P 0.7709676211355825 0.13835980540074908 1.5126803188717208 -1.0499341442808112 -1.454975709007462 -0.800322450522112
Ni 2.9579595431062042 7.03549771634328 1.345192182377434 1.094190285885709 -0.7599381331677943 1.454205920720973
P 7.2953935820201625 7.3962392468868705 4.015739718961965 -0.09242653066253759 0.4823142704668855 -0.3637581325968316
Ni 1.568115648123491 0.5546828048433685 12.769132259482841 0.08470499364856379 0.26097674106253116 0.4096955185588944
P 2.9494797202620497 5.819829941074969 3.303785521371558 -0.6931835533500643 1.5463560577936724 -0.6855720595513934
P 6.346863496987189 5.6910967358777595 7.721120714305208 1.2497456266879314 -0.8357759062337156 1.0777269981233633
P 7.768997738233757 3.6742579046059047 6.363899470389353 0.004872240490636771 -0.5587675656296184 -0.2443339902995276
Ni 5.017700134519341 1.4878319247087455 7.43085665759753 -0.9550087584558198 -1.3550248449434212 -0.5195818965690923
Ni 6.160800732078511 3.3173699927862224 8.041887931781595 0.737221408296569 1.4306751845888843 0.9161743020871254
Ni 4.973113579718573 6.760308383122 10.47372333576139 -1.053566855937392 1.032802626806847 -0.46647061856640953
Ni 0.36046693693886717 7.24707441584672 10.084388698947029 0.37941692218001105 0.12977231830084746 -0.6103148415792908
Ni 5.010449001703099 8.990604181970314 5.305524496860991 -0.5661983108760507 0.6652562308121769 2.0538925931624563
Ni 1.8124201820067851 1.882455513597805 1.2439779105023525 0.8346183955905047 0.43140642787342476 -1.364563894782108
Ni 3.0621747972918842 2.7792130688182786 6.4207366232638785 0.1365425471451455 -2.772999294136185 -0.2240256177594787
Ni 2.772790370945099 9.453280443541715 2.5022560974432064 0.2691520777844719 -0.40255865040379707 0.657896448012996
Ni 2.584717022354382 4.826890158139183 6.216042449568306 1.8100288576311279 2.3453135096474576 0.6831372248576557
Ni 3.7118167247773246 2.822263761084157 13.345314347337347 0.9418323689748619 2.5326289164700966 1.5969743941711723
Ni 1.1327311983842088 5.961455083307474 5.005724130050309 -0.3404783361332846 0.9579917523435436 -1.0605605136464056
Ni 7.985293724435316 5.951029834585791 5.627735425120174 -0.5648682792107175 -0.33910331016262885 -0.6090701705389123
Ni 6.794944410348234 0.3943499261101153 1.4413064598108993 -0.4056763700971723 0.8784225372596485 -0.15741656238067728
Ni 0.3888990103499211 2.4067896747517312 11.242365754101726 -0.16845173714891634 0.5971592780339393 -0.375097983089683
Ni 8.817647444026036 1.6270927694632973 8.940717505185503 1.5827991311120546 -1.2087645562898794 -1.3398399096728666
Ni 6.637969951024608 0.7965420594059608 4.075220417048059 0.4235365382070448 0.22526077571816042 -1.0312193414801272
Ni 1.6536585371880141 2.4060729389021156 8.473755721728866 -0.29305922341937274 1.2941593769166162 -0.07412490413987234
Ni 8.333627347348546 9.07820419600581 5.404418220069718 -2.529117560882728 -0.44448074455887965 -0.3190731309846311
Ni 2.7087681738846214 6.4027223519682765 9.98699453606782 0.25619706028570066 1.1802273680821351 0.34745785277491126
Ni 7.302709872640915 1.488464886238276 6.8788025047532715 0.42626345021990464 -0.1206932388177147 -0.2608258173069637
Ni 8.498886156102794 8.668957334133033 7.769920186580471 0.7511223346483773 0.8364125113764499 0.6165677644675381
Ni 3.8833492992801575 6.7570411846386875 5.8030303974206 -1.7489168208111558 -0.34939312212441115 3.014997437213685
Ni 2.8506446390773807 8.200053848101984 4.511529176785611 0.9421370446994741 -1.5593884654975982 -0.7844060364021717
Ni 6.08190393907406 2.778524257742025 0.4972983264109552 0.03706785138657487 0.8283492747523412 1.7318076719346949
Ni 6.989887253185917 2.2238451762017712 9.888999990561336 -1.8787616442211517 0.3897761539271481 1.8916788665034519
P 1.208062928656155 0.4525274681059995 10.671592694847373 -1.000193068301942 0.10759603931412437 -0.32624599458398645
Ni 8.168889801030382 9.410834788032005 10.51383168774073 1.5713435809769456 -0.5553163738562242 0.896354696258037
P 2.546692789293601 2.255297779264777 3.602700672866675 0.41887564239626573 -0.18588895878875727 -0.46098491286149
Ni 7.048882991041298 7.264843879962516 9.77133244222157 1.5981612153904217 -0.9708063876097086 -0.35699998793739157
P 6.678944901803938 3.3199949214822175 2.495676090013423 0.5933607302234556 -0.29052077326823517 -0.8903396004122085
P 3.622764622527021 3.7913930206002417 8.278134306898494 -0.5668593414988172 -1.4844130404319724 0.08788210582496478
P 4.648655638029554 9.330039110438964 1.3714312302538196 -0.1687816096845093 -0.43606089592630065 -2.2484909067997534
Ni 5.198801598027433 2.22224415586237 5.071362240662647 -0.5217999872663336 -0.30607183362895674 0.20065891800908023
Ni 8.737400953642439 1.9654293235130562 -0.23748902753149392 1.0028698438031567 0.9884639527904718 1.5639532020501454
Ni 0.6488041842845906 4.003984320202488 6.650131189823608 -2.197669453272512 -0.7302452340890521 0.41579340392651615
Ni 3.8272763543699626 4.148383323255583 4.1495366163954195 -1.1119895188506592 -1.505080596083653 0.6854149651482389
Ni 6.752796619087716 4.986052058042804 10.184072693241891 1.515193516147939 -1.0127459652662882 -1.2322623823015035
Ni 4.125419851294519 5.8387629374141685 8.125591509107362 0.307603954002767 0.5645430346608148 -0.23211842206994215
Ni 8.140369299170349 7.765144119509849 1.2303794767010074 0.37262329629694535 -0.20993083022930945 0.403704333972466
Ni 2.7558865748035135 3.956595979807767 1.5916832260149454 -0.8094184992861093 1.2475959273347803 1.1858506278061833
Ni 5.669929757669629 3.2951418731903486 11.856435243627537 -0.5240491883118265 0.5267447328661187 -0.03586791754120274
Ni 8.456198485890617 1.969366716557049 4.790567474601906 1.0465832255307073 2.044812742348375 -0.03240027070757646
Ni 2.889022585934076 2.168135253345278 11.572465430835578 -1.5492004692210029 -0.49612752220089396 -2.750566676164282
Ni 6.097169481845096 4.321814782347008 4.209099227150041 2.6605191872568827 -1.707012724378202 -0.1832378943191554
Ni 1.7232005311163114 7.03870906527987 7.683682901485021 1.4939204657017753 -0.32708365999393346 0.0661367437280732
Ni 1.052652256640782 5.457273300262871 2.119774200011793 -0.01781028870854352 -0.5553472270941596 1.306689391062827
Ni 8.481833427836612 4.375998150926398 3.3105973044202432 -0.4561849203696854 0.003904991481361016 0.977015344633898
Ni 4.491541554839121 4.401670325903542 10.224343939732504 -1.221520570403967 -0.29439336884976397 -0.4574676437368508
Ni 3.163951287937314 8.688076495627977 10.861109754220887 -0.22721378567947317 0.5058375503998062 1.979183791494656
Ni 4.065390896824757 2.080805178785609 1.8585286369557639 1.9217492035262709 -0.35007086491772615 1.694106300729179
Ni 5.216301122667401 8.497350293567903 3.1823583677115352 0.25098414862619356 -1.3726363873775973 -0.6488610772836051
Ni 1.398407492146953 3.6712885703717824 13.391267354381277 -1.1284193822719082 0.5242435637108198 -1.4087794129570577
Ni 8.18301042809359 6.833145500306973 11.881338556511457 0.3485248605868449 -0.3647904305160879 0.18716911105276152
Ni 4.137315804746582 7.3945637604851715 12.884960496083854 -0.5262032585403518 0.31392835355889803 -1.0443332531542657
Ni 1.8603297848375904 0.7159921198185009 5.026963712669181 -0.4445362803871634 1.8567540296018088 -0.29361869546726854
Ni 6.394130830030676 8.605717030726682 11.740116461841142 -1.7040490137641877 -1.9242863681258278 0.22442645274232317
Ni 1.9859726484494438 6.29541675619724 12.321475802676892 0.8202654693029421 -1.6159563345903136 -1.1291822285798616
P 7.211609953677424 6.152963179021674 0.22674822887082438 1.3851658873031758 -0.6829083966763012 -1.8523492156658936
Ni 8.62208094791661 3.915956126308778 8.745436772590143 -1.200305369778933 0.017686618646485665 -0.14158036667936907
P 9.224809256154476 4.803042401688333 10.825919885656315 -0.3312848425594746 0.3619647881418347 -0.09073705877525663
Ni 5.488893451966047 7.025835744760149 1.0621345788486198 -0.6579432420905313 1.581555745623257 0.4036721951829499
P 5.460540498746185 0.597611558932234 10.229425317658547 -1.3763133220085522 0.6624593847933301 1.1949335639440581
P 3.112150833351452 8.676180542175914 6.747498358755233 0.0045696216485534204 0.4141347852771707 -1.1553719996013523
P 3.9851071734100123 4.9882394986228 12.776653331774915 -0.71291368478914 0.08404833390117138 -0.5649536398356722
Ni 8.355259738446039 9.20198540806022 13.109504529510666 0.4673041702112984 -1.6896022422112384 -0.854987960385792
