# total energy = -381173.3505278521 ev
CRYSTAL
PRIMVEC
9.19936373606884 0.00000000000000 0.00000000000000
0.00000000000000 9.19936373606884 0.00000000000000
0.00000000000000 0.00000000000000 13.46419871366805
PRIMCOORD
 96 1
Ni 3.674667431749646 3.509281271128 10.559136368950282 -0.025555736981917276 -0.6976009656914696 -0.5032049978729657
Ni 1.280468632945127 1.241279343577666 3.128110235847236 -0.18901722000509383 1.6089840170375387 1.9917757692270535
Ni 5.6045559458230665 0.6848677892784427 4.48549014901693 0.5532607768787762 2.4927202532006167 2.237845768381081
Ni 0.15721896552764766 5.785691417101306 12.294564133424155 -0.3782473273519421 0.29135535335438856 1.1301199099027828
Ni 3.058650440220707 2.9200160292423893 12.859656207311907 -0.0869621651138567 -0.9361612867320136 0.16304959229673854
Ni 4.910224771105115 3.640813773328929 7.241490722829164 0.5460632306890725 2.563132741485908 0.04713500581458979
Ni 1.8735608101304713 7.629575079931442 5.93965012813322 0.652947845758469 0.20883734005481452 0.8848824339523793
Ni 4.687830153626625 5.669788633828856 10.595099441467703 -0.5929167007075015 1.2138735953816706 -0.3809194748674665
Ni 6.491199818716315 1.2464309872503838 2.237332168906631 -0.007009598548613734 0.0685407251838755 0.49940953538627547
Ni 8.252933163694005 6.878695416541711 3.2497193844235914 1.296222172982916 -2.3869808074792567 -1.7215533411965382
Ni 1.170563834805912 3.447811122876035 10.62558245302827 -0.26701497683681114 0.846972032059851 -0.3306490087476886
Ni 6.046769358943686 9.009654423034048 7.449997060927829 0.552118692854533 0.6162358350494161 -0.5595419819017976
Ni 0.2161592887617607 0.09431371653828213 6.858447617035189 0.20822798860558978 0.20456108127696385 2.127941649759071
Ni 6.562734070857483 2.9729123705247598 0.48256458212355285 -0.7884884340016614 0.5923937383244959 -1.736326642850971
Ni 9.187146946286582 8.580310919731522 4.811418085335127 -0.04307137726817743 -0.32783596477892574 -2.1234964695035234
Ni 2.6292793388270765 1.2337174666152122 10.410653119193372 0.18012043173609624 -0.3831334517996498 0.0669119313312009
Ni 6.59449947371801 8.058375820775593 1.6279828761883812 0.48363556038147026 -0.1361982764318493 1.0013732046529722
Ni 4.342863214192255 7.852199681502463 6.381774307425938 -0.648709125086773 0.40618904806753275 -1.9464968427845961
Ni 4.844504516823156 6.90488600499926 8.503327884470085 0.5188810138473258 -0.5715449198999446 -0.7104713938962345
Ni 7.79870538157951 1.680420169222058 7.93513930476048 -0.319468823761153 -1.0717754085256188 -1.1542867369569734
Ni 8.743075261698303 3.367261494307611 3.0710088654170096 0.5157396400048667 -0.2533061118911508 -0.3717498925530565
Ni 5.50189104691676 4.140532408946262 4.80556085046652 -2.013864887816609 0.8351069051911489 -1.64206203053843
Ni 6.198807242834772 6.2931191195003136 6.156356779035207 0.7866871191268645 -0.9828368364116815 -0.34705033292384746
Ni 3.427673715733929 2.0254883016571417 8.373155968160576 -0.025352105611543437 0.4829925274808327 -0.523268344281744
P 0.2897229205354314 4.02784940296926 5.147673227344382 -0.1777647870197261 1.423769972828619 0.9555723442687736
Ni 6.317193854306568 8.554037537000662 12.889317715693949 0.835129273788652 0.33219372752698917 -0.5654575760552842
P 0.8559796338677663 1.4734620840343193 0.9806420512565774 -0.20499842592469855 -0.06899323934026182 -1.0348052590591728
Ni 3.1941386688131868 -0.3090691823992272 8.064435441645628 -0.5300910236305322 0.40672615151792535 0.48720245179712224
P 4.350848261884969 8.263328444676452 0.7406370918447239 -0.4688442610049087 -0.055658727014884786 1.2064047978084513
P 6.5749784239438895 3.5954977077364143 2.6183284162770706 -0.8540477079597097 -1.284985423726832 2.928060726021125
P 8.467397929661988 6.601546186313192 0.9859629632213989 1.1675199478177958 2.457913944154709 -1.1346100844636524
Ni 5.681573018730198 2.4994579182745866 8.940955414785616 1.3599168829283999 0.48159076203729967 0.3483855067955032
Ni 7.641147879467655 4.9160847657828315 4.608795660259802 -0.02592957538156825 0.4977036084387622 -0.5250154088798378
Ni 2.0859005230834597 7.213497059086164 13.24908091170546 0.8365793759716172 -0.7133965379628295 0.40780035841871054
Ni 2.5890413219976693 4.394959210832615 8.62056089573374 0.5554546992063015 0.04863704428141301 -0.1298887892740537
Ni 3.181158366630678 6.809277018051838 2.203496909213316 0.11689289123501803 -0.08909206697266592 -0.563975592193119
Ni 4.827228111792149 4.75460833473423 12.734075693425709 -0.1346144768844972 -2.0560844586074527 -1.0674469563535938
Ni 5.965566575552471 7.740611399805914 10.6763151039681 0.9375548246454304 -1.0087491854020691 -0.6391978431622282
Ni 0.8702690055049676 1.5429356787064004 11.999334473777136 -1.1819451221041901 0.174821388120686 1.5127548247994593
Ni 0.21427249926662778 5.22293874140279 8.73487218908587 0.7042464960324453 1.4146417852751056 -0.04756617981473744
Ni 2.861222895827497 0.46742150953487277 1.65962408763894 0.6342646675266689 -0.2999382099273932 -0.0016779019230551747
Ni -0.16928761076735938 0.9443790794824943 9.900373614046968 0.8965596131799914 0.2904755218525965 -0.08641837679524471
Ni 8.100858482348112 3.243907226437122 9.462329352555766 -0.08239794278194196 1.2598449199054627 1.888522066042025
Ni 3.544165258283261 7.671855355502534 10.21205633567373 -1.9945841852101263 1.075037109996026 -2.2662346039364194
Ni 0.5958124290318134 2.001882734399652 5.466208554992228 0.2459098194270797 -0.606062236950524 0.2437647480596189
Ni 3.006462449943335 3.0331038072222474 6.303304654990374 -2.226118966862457 -0.5270537794661052 -1.1296632819813384
Ni 2.3329126378265794 6.713640433013312 8.14907142757016 0.027195329467869293 -0.2871266599850217 0.22113544069587723
Ni 7.903697719502239 1.3316446932153578 4.029349819188939 -0.19154744262611526 0.732736633052338 1.9242796832576083
Ni 3.6064817479957445 1.8699362608321661 3.8424399073154043 0.5482065022843204 0.15146805810672623 -0.8054584861970966
Ni 5.120733810681548 0.49915747443155506 9.572465974660254 -2.4771080005846566 -0.6893790920023095 1.5451288702547905
Ni 6.331480466134659 4.831248233729609 8.779343753090606 -0.2900096379597715 1.175832581448549 -0.961397692701299
Ni 1.5352450106521285 8.482659674042415 11.32134412880177 -0.6125159629956677 -0.3477848970970268 -0.6461645042880484
Ni 6.868658910743612 8.083931653137755 4.217202665841856 -1.9119178192581459 0.8292818138689396 0.7534237290880443
Ni 6.837583460160682 6.209837279912609 12.726212077333853 1.2616341505954012 -0.014891058179219518 -1.1658695566985664
Ni 2.061899383186815 5.1688372834755505 6.312191240325811 -0.20981255948389027 -0.12005920477814161 -0.1245889743276951
Ni 4.462795318765868 8.564340824346097 3.2825178758277715 -1.1403958379074939 -1.419599129280381 -1.0324742969331508
P 3.5837777183809814 4.719466765395333 2.8588798178927806 -0.12795943346182478 -0.5028494143057597 -0.3460789701495136
Ni 5.076770051553122 1.0717994661089498 0.42399867299208205 -0.7571880812264831 0.6641429431433401 -1.3215326267232466
P 7.604267630389216 7.90169225821536 6.219490172244364 0.5767192650120325 1.1096469867604115 0.699721354468582
Ni 1.0493898161326272 7.723390190957114 2.475406181877585 0.9837611479981637 0.14709126919526924 -0.9252821779256645
P 7.103408273672924 9.142741617700494 9.43164395499377 1.931681889258951 -0.681084198983369 -0.7276890433261016
P 4.718988398482867 1.7190850948585457 6.2218599283338145 1.1970022735476287 -0.5246791085863416 0.10810280374721382
P 4.848993806309383 1.9606327875631042 11.653627905501182 -0.5039285063025516 -0.4090892524334632 0.09510253483280395
Ni 7.936677438371335 1.275289391181305 0.184951367341532 0.7128141830967981 -0.8053019060145743 -0.1174492779591203
Ni 0.6878060660446323 5.227106053159471 1.9600504678408128 0.7679427486398258 0.8309301481056399 0.3527561250593731
Ni 0.47221713783235103 7.973465693812761 9.247117598255238 0.04734017984686041 -0.5358685495442578 -0.8840931052818645
Ni 7.5651703346587675 7.0437504000701106 8.318477710129267 -0.35475952864264704 0.5680428202839573 -0.21292873651536878
Ni 5.8704543542449175 6.0897855836108805 2.9757632533357876 -0.41207044654897423 -0.455070604259584 0.750207793253908
Ni 1.4061135423772348 6.15918558337335 4.207845073084911 -0.8608590744545884 -0.864485358353266 -0.588758969785386
Ni 3.795639064421503 6.182846346813048 4.482353165994793 0.48429016324633367 -0.006265521293737596 0.37508204225008307
Ni 2.849374115380246 5.0109578036341516 0.5478368273932582 -0.12510936560753935 0.6587389985189493 0.7033376110649306
Ni 0.654369138799583 3.1982783824787635 7.833901227164244 1.046487066272475 -1.714926322798324 -0.9226534820535659
Ni 8.230330327079955 8.163322161879817 11.358074428251879 0.6059015430029436 -0.4177929508550482 -0.19955565764257246
Ni 4.223280685439293 7.652923065005296 12.171999170959234 0.3511836383659307 -0.7684407713221668 2.09807725809947
Ni 0.3923427425596009 8.675561131494595 13.450195561070146 -0.8752760212108668 -0.21901222370528733 0.6744942044706771
Ni 7.888169193574476 5.848090701087101 10.331739137491034 -0.29997523381291563 -0.23448409408864132 1.2071769000877857
Ni 2.8774965702150643 0.478768924660404 12.75144409209373 0.6428634649392735 -0.13189964905649543 -0.03945846310593849
Ni 7.99103647848221 4.497918489377362 7.076271070690512 -1.653584429355733 -2.322899917838948 0.21294159203117521
Ni 2.0787250193964595 3.555802453365383 4.08346231635262 -0.2320816552947358 1.1739980993429717 -0.31845863732908386
Ni 8.715164392228614 0.1331975870308604 2.377683181151608 -2.1831275509025954 -0.5597795518339005 -2.1134547689968053
Ni 7.104521396680778 1.170950208081366 11.31760182764809 -1.4417108735777557 0.7597702401313625 0.42053477526624355
Ni 9.002469719983349 6.20561477197372 6.338271436418945 1.0786885907056842 2.021440129060706 -0.6793049955957592
Ni 1.5107287063882124 6.200361935300289 10.488327946605144 0.8013295516303878 -0.39402593034243755 0.05015656624973298
Ni 6.6931442506868555 2.727362954610144 5.951269844424309 1.3326001973913177 -1.8581421681985872 0.30998710952296293
Ni 6.0115081978766725 3.88281223485485 10.778576150807918 1.9767271024240474 -1.5523703823085522 2.0218345362856467
Ni 0.3230430158614744 3.718134425238203 0.23173197163529066 -0.6188797004301664 -1.4527234226381756 -1.2438007219584062
Ni 4.633599904607569 2.8110311674733026 1.9802062737103214 -0.5436191400239541 1.1762437008440387 -0.02960136780620063
Ni 2.198611127151565 3.085990949140917 1.6986836659782127 -0.2458080037418928 -0.6223090378266896 0.5830300377214087
P 7.9457664097082015 3.2014429635920045 11.808452276657388 1.2560777395535465 0.1663917692960941 0.5566242940343704
Ni 2.9249192900951724 0.6359584522242075 5.589433111834529 -0.1460738836743484 0.05153390621323382 2.551806260729496
P 1.4314025931920584 1.083133082188929 8.388855602253184 -0.047235535948196065 -0.04795235950956257 0.29171762178981375
Ni 5.16948123893464 6.255438525779863 0.7342462938814434 -0.8881783310948317 1.0125631598315206 1.5469957482602004
P 2.1669009204732466 8.731622053890206 4.070496733152033 0.8106821964898812 -1.8853236137093854 -1.8378970447963057
P 2.555445245760588 4.8539890607991785 11.873295831578611 -0.2648025425665246 0.49419868060929717 -0.22140643496907675
P 4.212618622909507 5.717054964526042 6.582471305678584 -1.0568954060899927 -0.9770068599934658 1.20838994655928
Ni 7.402231204781662 4.872406186929144 1.3237525590960282 0.7143820418045503 1.2607080392367063 -0.6825654115145857
