# total energy = -340890.98242933967 ev
CRYSTAL
PRIMVEC
9.07572210552587 0.00000000000000 0.00000000000000

0.00000000000000 9.07572210552587 0.00000000000000

0.00000000000000 0.00000000000000 13.28323668948546

PRIMCOORD
 96 1
Ni 6.300057621002708 2.371222956320244 11.583619859568799 1.0239212651568173 -0.5231408175649442 0.38184378645394884
Ni 4.7265270962950625 0.3310433120700358 6.001366535059548 -0.9976762154173592 -0.18958132003867995 0.16295009060439677
Ni 2.692340151265427 1.5462035258387306 4.882266485398542 0.33879323512137777 -0.10237644278639788 -0.26816760238401555
Ni 3.1282561534815843 4.353723664698113 4.832600504458573 0.5749274632189325 0.942106705682171 0.17398989335832615
Ni 5.354921010172443 4.49564072923256 2.8842154349874627 -0.9313648937846347 -0.6770704498382855 -0.6899542477794892
Ni 7.322546610232095 6.175656699881414 2.6858038162985083 1.030771198199115 0.532649785496644 -1.2986534081322278
Ni 5.1816382504898835 4.604277121282016 11.582450906578325 0.21840287225606256 0.010110606071440651 0.011549138290180108
Ni 5.7383158093150675 8.002399867711851 12.327215542772878 -0.9395224898947626 0.0227923153041672 0.8487160113341512
Ni 1.6441124145128767 6.657214507913504 0.22326366817508883 1.1622522716609531 -0.5066829291192372 0.4009923343579416
Ni 2.670077405258968 1.3213525138900872 0.09406259770083275 0.09079876525112748 1.1663953472950492 2.9942802592709916
Ni 0.5548478932748779 9.093419633579954 4.850613089863798 0.5301393603699645 0.5881534749909033 -0.2359876752173613
Ni 8.596650915516546 2.2696656274118556 1.604482366933666 1.8635718238545904 0.07031684324769179 -1.199266386991457
Ni 6.812146157761144 0.9044955278229572 4.863790130600356 -0.5427300525507814 0.5530702581345249 -0.4464350400717731
Ni 0.5476708123364729 7.613550559661815 2.3168757179851935 0.49274909264696426 -1.3795266867395275 0.8790146623176925
Ni 7.6457965998415744 3.9750845438707705 3.713727347846961 0.6859032176385671 -1.1965996387925715 1.1213992422003334
Ni 7.767011942549388 3.9514785910119037 12.793443548815766 -0.4977023228871815 -1.030779425729231 -0.9779280862561547
Ni 7.948290413292565 9.029953109803694 6.737842314373667 -0.9658143337117561 -0.059817743488580856 0.44054618539116386
Ni 7.068036138866775 0.593925229385767 0.43418344689099103 -0.5533471659449954 0.955507038248477 0.03660325304533051
Ni 2.016380378513259 6.362344300922125 9.235701542137827 -1.1423041106738006 0.378830967769554 -1.1021141687184761
Ni 0.14135618491634766 4.700452547058798 1.2471884366210364 0.7518903231626535 0.7056544321235653 0.738414914384038
Ni 6.225591322191866 1.9151134727080936 7.310694624903993 1.5488654544790874 0.5861814388661969 -1.0505370679721326
Ni 3.0988871171681307 4.590472948156935 0.4373490587161247 0.6827631293476887 -0.05725049698203688 -1.0754693124374382
Ni 6.270035132707002 5.728704619742772 4.707206699353134 -0.36712190686274193 -0.3624988062684338 1.873414263866309
Ni 5.475818702611107 2.7976548290717664 9.43027413043105 -0.6227790354845727 0.08935277683322031 -0.37331955103302156
P 0.23251455158494766 5.396723785592644 12.368021803920142 0.4295786306360666 0.7312513067560631 -0.08956823527813607
P 4.138964855586478 6.248144491301548 12.582134421627105 -0.3327567991193108 -0.3097228001179827 1.03058093656518
P 2.530329438276719 8.396513094507808 1.5914514453209168 -0.4747104899776986 0.3101547454490788 -1.4348069473690708
P 6.315350212531809 7.8416597557997445 5.705655008641018 1.100746084726356 0.019082984773380038 1.0380733882874833
P 4.912924274232549 1.2933539115949684 12.854440568642431 -0.20285386877786996 -1.3601842776571735 -1.0994615615869776
P 3.8214325708217074 6.055902548411693 8.076406934990722 0.869765890025915 0.22334350409078954 -0.33243386856225327
P 4.754843348859332 1.501995684094963 3.7760521457986758 -0.14374472132053953 -1.9923720080501555 -0.8518738402368426
P 0.37954306273612487 5.503145701480022 3.391795153068358 -1.196780901565442 1.0460201539383855 0.4694181312305077
Ni 1.458441294333448 1.037218885995993 2.6014558714004936 0.2758811689781894 0.23408711576053878 -0.17655174054823145
Ni 1.6929216472983382 6.644581102923291 4.719919063124536 0.09582347215922853 0.21317119154347802 -0.10022391521976932
Ni 5.817619467938973 5.709917875253017 9.236046419572904 0.7216286960646345 -0.9066848745394515 -0.3342665508956178
Ni 8.508117247643327 2.061504868176575 10.124403498578623 0.11741096852201714 1.561627639240762 0.995728347662369
Ni 2.125388875163719 5.443009967668853 6.707118272769239 -0.35415969027511907 -0.31162284535417295 1.7943063046895484
Ni 0.4479277202510324 9.078535449539762 9.254589934713712 0.418074486651209 -0.3193186713365339 -0.23018263849981
Ni 1.34422333326892 0.9100135667841993 11.51046863287224 0.26019512570150033 0.2691507922328913 -1.8209215932842318
Ni 4.087441981930274 6.619014794117668 1.5508448500571177 0.5024076987826509 1.4576745959958637 -0.43071120157861303
Ni 5.444180735803722 7.8239439465031255 8.06206094126369 1.6225345020284636 0.16519003567850907 -0.39389377563994743
Ni 5.009054321399453 2.880289277660763 5.296597698039828 -0.12435577527096649 0.2758181769507379 0.1170211892827662
Ni 0.6584617807829661 7.728912061695285 7.060412532407164 1.2858377444247986 -1.0004090409674902 0.03563780380826765
Ni 5.093758034598916 4.539812268088425 7.112230367027579 0.04853162905180029 0.2601547593818681 0.15143154844183596
Ni 8.062208875531894 7.199625031792845 9.096147795605859 -0.1297761749555894 0.24724499329873545 0.7236079312781926
Ni 4.933371875843863 0.5905218336448692 10.55604211302762 -0.39787615732646314 -0.5512164927552377 0.47085923455240847
Ni 8.20192053962624 7.302353128836102 4.660344208931466 -0.21070190406737904 -0.6309379171462811 0.4447170289394019
Ni 7.44063990458026 6.1489650015508 6.988642630595311 -1.0207343827884032 0.10427468825037527 -0.9038132094186112
Ni 2.360686043106425 5.270162842641127 2.540220160085867 -0.10109706185334202 0.5655632483952131 0.6565831285182111
Ni 2.415757524055138 5.1992179239568665 11.174722281674383 -1.632101062670976 0.03177600686001624 3.363248989534485
Ni 1.13788679415076 3.3941475802044665 3.586633660015469 -1.4308315076610905 -0.5928974174337918 0.5171889708568835
Ni 3.3373063334704867 3.0039459895800475 2.952172625997314 1.7987951936988373 -0.8952048989243098 -0.9691323423413953
Ni 1.2290978000068193 3.214157861981843 8.326862373777287 -0.23419870163773857 0.663111159444716 0.3010964919015524
Ni 3.5560312330855144 2.6793074145082825 7.531940760083878 1.4203023259949925 0.5752658203949575 0.0417346607346249
Ni 4.389028223183692 6.834445206655507 5.921042765285571 -1.3307731714849083 -0.07465275161888434 -0.1139849735596037
Ni 0.6453056142069519 7.258145287092335 11.323680291317597 -0.8290473292606302 0.3281049021695962 -0.3105969751928199
P 0.19430122420614793 5.777041914985496 8.011039955032743 1.0694637296733065 -1.081717093119363 -0.3286767155126662
P 8.628307033767884 1.5977627023828376 8.008967967705685 -0.11440612025742232 -0.011107679877387321 0.15314004649251045
P 1.9836442493468103 3.158814109373858 10.393242719799222 -0.6399138953926463 -0.30393036180592176 -0.2528731381187903
P 4.22396806761114 6.195387319456645 3.714311824342198 -0.9010387319972675 -0.86586912607467 0.5766938110907358
P 7.050755964224991 4.055431910521884 10.198975075764384 -0.45218248407851164 0.3897954372008577 1.1814478707527976
P 6.1714364891627005 7.696538961407866 10.220560772911453 0.6777574486029811 0.37171621110164366 -0.3558501906036646
P 2.466853838778482 8.476560962333723 5.817087630631195 -0.08735940055227535 0.5285205938196188 0.35357476430592655
P 7.125222263035832 3.879607948686119 1.6701542911500287 -1.4710103938728214 0.9617460771796533 -1.6614237228944935
Ni 5.168033743248268 3.1541764154442613 0.5234440800944664 0.4006496063065422 0.7556269073869502 0.5869000621997763
Ni 1.79808203783109 1.1241007724696304 7.219120590168905 -1.5333940983163656 -1.1861751010251378 -1.3079592589141862
Ni 7.054204738575767 0.3988961322771657 9.232074883636326 -0.8579118189008064 0.267946487512145 -0.5370936802006105
Ni 2.673762148381113 1.278687544882193 9.35923573181044 0.5842045176454842 -0.37754644463017556 1.1367505278454229
Ni 6.484557973047268 1.951833843821886 2.444101911357532 -1.5254704725939148 -0.041960917812818056 1.229836289358514
Ni 4.131395703458721 6.766513427667187 10.541204215169506 -0.35875476584496924 1.5146430429611077 -0.6550548647991428
Ni 8.060330201082918 7.332702343122934 0.05777060066429448 1.3422881141030432 -0.8971879907926097 -0.19565632258816626
Ni 7.956213518577375 3.919414065271659 8.187588159482171 -0.8991129757294645 -0.6434597037623757 -1.3005323703224956
Ni 3.1620269149532656 8.505684954153832 12.325914084241559 0.6969818440502318 -1.9991077841120928 -0.7070196879022081
Ni 0.04192439009467463 4.759998358941545 10.14917658928357 0.7389509893931661 0.20864682131056325 0.5816791801204692
Ni 8.789927490711635 2.248655331038047 5.892881707567086 0.07102981015431638 1.0314383994694687 0.2563682957562423
Ni 3.5871337322963317 2.721727339022832 11.774645655713906 0.6307823654050233 0.5842795938577937 -0.8906828426842403
Ni 1.168844081809966 3.2197394309969156 12.493335742672194 -0.2931708092965725 0.6150320445493022 0.1370256574291511
Ni 3.2140489533181342 8.224945646278659 7.9263861583041475 -1.4612815966208317 0.33106192791539113 0.2116490984719968
Ni 5.587123356921427 7.946448041731492 3.6589608111566325 0.2637730728607457 0.5264439137962481 -0.9688677758260992
Ni 3.1114388406605618 8.303940730355391 3.6620156991736623 0.8037818698256222 0.2641068020510806 -0.022256497405355218
Ni 3.6243441923968134 4.385524994501061 9.514450544183722 1.1533397996626717 -0.9496372097312611 -1.7214042172131838
Ni 7.1909486415840504 6.160119063858969 11.371566523178128 0.772307967587057 -1.1110528659690027 -0.12503917449123628
Ni 0.7452710614807976 -0.20017140118004834 0.28053419655852074 -0.4366481358883383 0.6663692613706975 0.3733236647980796
Ni 4.636060299641013 0.3803217596816423 1.4621523570493227 -0.002739253308033992 -0.9107857840817024 1.1177963553404233
Ni 6.3058025530133435 5.641423401502203 0.5287343184341179 -1.117016282641289 0.02726526347385627 -0.5418538205934152
Ni 7.882564034744348 -0.05063073018598981 11.520590785591766 0.2121586911185636 -0.09633692146053732 -1.0744526982474658
Ni 0.013651700995888985 4.786853420267722 5.494225174350079 -0.20381906090461674 0.16769737548139507 0.8831808778802402
Ni 7.798323183365647 8.958400117747061 2.828718302678088 -0.047144776006602676 -0.19776771250421427 -0.4125643554662572
P 8.588591674402101 1.7405328847830035 3.7520359703065065 0.08292733292285073 -0.5246006899399224 -0.31767110843078195
P 1.9176365234173458 3.0653069458579396 1.3956300376838344 -0.9277818044190667 -0.7071824387323177 0.06490904196855918
P 4.69460778210643 0.9395187389272888 8.373473466700228 -0.5680551615791314 -0.7933079668774918 -0.12358752964637425
P 8.776422816411753 1.5653079205976366 12.668461781488025 -1.223821193512686 0.4464592084414892 0.17752695997730716
P 6.440177692585962 7.781950580921435 1.27334194463849 -1.0026248176718862 -0.28249173231617153 2.010561534474989
P 1.91662911827804 3.148939723864267 6.228058103424868 -0.6845860414890403 0.7001584420060006 -1.2701594144575932
P 6.815041313071402 3.765589653505057 6.032967291406832 1.6674017948547994 1.0587090622599638 -0.22569529215241776
P 2.208322822577915 8.275252373190115 10.271913930566711 1.3850463310061758 0.7109226225010401 0.059318178144342995
