# total energy = -340872.3093736384 ev
CRYSTAL
PRIMVEC
9.21197541762874 0.00000000000000 0.00000000000000
0.00000000000000 9.21197541762874 0.00000000000000
0.00000000000000 0.00000000000000 13.48265718444451
PRIMCOORD
 96 1
Ni 7.450102343910401 1.3595217802967632 5.883292689074481 1.2098459622795166 0.8406679442186942 0.743435764637397
Ni 7.148622019048478 4.416340849544064 5.821703262730426 0.21672702721553644 -2.565877651220897 -0.06068317681266968
Ni 2.665024535782505 4.703441280522971 12.227934012045738 0.8086337986012848 0.5797040586719694 -0.42977583424853727
Ni 1.2946418362749306 6.030131579846596 10.576483804367706 0.03900466339797154 0.16754285218140175 -0.10902017335516064
Ni 2.4610437604771747 5.93790128032273 3.123513772458727 0.8643663162768985 0.27241763590962115 -0.2947731207866859
Ni 3.4910531742169377 8.013396226779493 10.784440468334093 -0.04379514280807941 0.39471421465871376 0.5408863144738233
Ni 7.84611596219161 8.271092031701649 0.39303262298297575 0.19032308330071093 -1.8387503939355365 0.3220751510357485
Ni 3.756791033821908 7.72232543432488 13.563149073572658 -0.8843252758973286 -0.6147093711025607 0.5776543752317923
Ni 4.43169721283874 3.4556239161297633 5.910904664683033 1.4586392739019782 -0.8261522671010224 -0.36823108076652067
Ni 2.7795938760919654 5.16474938172719 6.858209882847955 -1.2968407804035214 -1.573321787749239 -0.02242387622115493
Ni 4.293379399479686 8.506236920399832 8.463145141023809 1.5248539220558384 -0.7924448475462482 -0.046699975159700216
Ni 8.96960850413435 0.7399574657844838 3.752520361942237 -0.35292350387517285 -0.8421846379735365 1.6518741315328453
Ni 7.947254242102969 8.826822882618176 11.273847858655138 0.1928041978513518 0.7009464851249347 -0.5838327361283622
Ni 3.351989190835767 1.2061976587151386 9.107750368759792 -0.4030065365744931 1.2014909054466016 -0.08459957841895109
Ni 0.2209160712147064 3.4783867077921156 6.2051904366156565 0.8810615175443923 -0.3234800018030751 -1.033798157950897
Ni 8.040884761915251 5.465207177299544 3.5116124613201505 -1.238873716970434 -0.2256343570074953 0.07100049957827773
Ni 8.300238722442112 3.081267652441103 3.9488680942805803 -0.06405440727774775 0.08972250146781321 0.5732855567401353
Ni 6.358308209944252 0.663898789394272 4.053561275568913 -0.2567889282334287 -2.0185558655343754 -0.8444297252539714
Ni 8.550795246288459 6.15693442372854 6.575019935503476 1.4241037020189538 0.5193857213978861 -0.46433017518463904
Ni 1.6437849227965093 1.068607591427038 10.753525078281948 -0.07211918656375321 0.5328685863756694 1.5857502433205786
Ni 7.194709532883666 5.215746878547418 8.277286164082776 -1.3969587661730456 -0.39151961898081605 0.026057359208684155
Ni 5.222913795549971 5.569652556444729 6.678472263680955 -0.5005760448905507 -0.31241860178259095 2.5538037507754985
Ni 2.031599882810017 8.960212289041026 6.931474567044241 0.36306830561865855 1.2095729111237878 -0.7816822097131053
Ni 0.2881920500853362 4.6773806016023745 12.363097644965624 -0.4791849808092844 0.1898759684609633 0.18576708849891233
P 2.223089219226577 2.4521265681141005 3.3029814807411837 -0.7665988330174217 -0.39131084540411964 -0.1801407434510704
P 3.955520983045676 5.139388812950801 10.172125978604603 -1.106054898533779 1.278455078807482 2.6543200004247063
P 0.7409505167521899 5.150535303404644 4.410703120488072 -0.4332925891525441 0.70894287306685 1.5338401847148486
P 6.9196675779411905 0.7135743677185278 13.020444877326199 -0.13894755704221232 -0.17601849375258075 -1.3046875301414498
P 7.860993302756038 3.5159715681654053 1.8876120984804334 -0.5209877757776834 1.8102242614713857 0.1935233354055635
P 8.087644749967902 0.9645122673539572 9.429015253578507 1.2159950126000476 -0.5500119309241753 0.6162898282158031
P 0.4414369486769584 1.0288210688897252 5.908342814273766 -0.48129894182849375 -0.49924781299743054 -0.11468405650915733
P 8.144381307575523 4.9617634997846825 10.241628491973328 0.7825098478207233 -0.14402111491037778 1.1001089653629892
Ni 1.7979565461316493 3.5553067038992157 0.514451067137422 0.3980070264773726 -1.5424878330875178 -0.8576680783211165
Ni 5.542495652429912 8.319307511896207 12.190748951412695 1.3177212233969564 0.8226110867169832 -0.18072849763374035
Ni 1.7652724567678182 7.2261500055439685 4.963775395251723 -2.829112849300302 -1.0395337748830935 1.1414834145447181
Ni 5.9318213764388155 4.304903580932378 10.32837582363097 1.1444270705540742 0.7203912241131077 0.39162940508580296
Ni 6.1436507549397446 2.172220690064493 9.405798311519977 0.04483669669871633 0.8699263268631792 -0.2039303896715004
Ni 5.92000241176751 8.369337751280359 6.0030861407363165 -0.7065543182300154 1.2405804152488957 -0.6596327139778123
Ni 2.077586064913806 0.2968282771931693 4.168123246297908 -0.4435893430928619 1.4678947310619752 -0.017455990692918325
Ni 1.0255047576803173 1.1243308317206724 8.583585273371481 -1.7985529957810444 1.4974693593952986 -0.754276821116959
Ni 0.8546032654912726 7.109360579119321 13.244998757698113 0.6265863250458047 -0.019670996066366124 1.0574368804157595
Ni 8.184370493575633 2.8034436808729573 11.072484205612565 -0.6942143086074237 -0.06213327899563493 -1.3751455269526962
Ni 5.8891883534467615 7.127526594966411 10.006153814549322 0.2101591441900316 -0.05654755737774132 -0.29796643091300296
Ni 2.645449087671417 4.1174214538938525 4.745207456612789 -0.8983493580905626 0.6113260564526246 -1.5563586775323388
Ni 2.818606592680417 1.00560689042387 1.6478501676207085 0.028440000508247798 1.9105908729166063 -0.03864548028633989
Ni 5.318018231455325 5.9755322005739275 2.791691963623397 -0.013356880922880222 1.001996440059268 0.5525562946125838
Ni 1.5260374509113661 8.159811366674852 9.335796509074726 -0.09736047762904523 -0.0007247939811664937 0.1599408714644278
Ni 4.237821974746522 4.0003188202994275 8.531866478863206 -1.5848660409434123 -1.1984827147478974 -1.7252215340767447
Ni 8.48059078038041 8.067028348616084 5.174225741008073 -0.4838479335025924 0.3635624716462577 -0.46481765634401884
Ni 2.4063338374975265 2.1077184370415094 5.901777439276697 0.16767037889820155 -0.6385393836426229 0.6198793453392744
Ni 3.6772456246740273 7.90836128119708 4.101343792911131 2.3008383100532184 -1.0551820229433118 -0.23743829162095886
Ni 0.23146931044108884 2.05262161108743 1.9791330758845094 2.605555172316177 0.43211219569119774 -0.7692262433379398
Ni 3.6598165668734723 7.360921208304073 6.52286909934042 0.913699872404704 -0.4484029624314213 -0.7396508436736682
Ni 0.17774599004623923 6.979784930587289 2.498983281910359 -0.3365237223609107 0.6929138446284454 0.05685891797057305
Ni 3.703361575448114 3.0245218828579015 10.623552393602345 0.8505636060658512 -0.8524122292388159 1.5212482069824511
Ni 9.016792243063758 8.532398931051826 7.637238100667054 0.23738506978552018 -0.7990752083785722 -0.48241248660764663
P 6.2821712317615965 6.453771912897291 13.515555401729866 -0.5865899871585253 1.0137924042529314 -0.17079555479074457
P 0.8193674588913138 2.6830800079226145 12.149573262957663 1.434389400215678 -0.9297070464662376 0.1579760344285731
P 6.939989196074395 7.888951648646462 3.5001785572281583 1.110097958254901 -1.413612572679643 -0.36400238739715374
P 0.25664195491561104 9.087982390359047 1.7659449309852817 0.0894903308523491 -0.6190383374952177 -0.3201828191090421
P 1.5151488957738102 6.876877951364247 7.214650696425347 -1.5252676125544895 0.10679179824527414 0.6767950846897117
P 6.272065694548483 7.176138190110982 7.7916280478234805 0.19149704900415407 0.31827917432842606 0.7367462684323633
P 6.234001811444946 2.6887822208076795 4.473504842818675 -0.4798367554606704 1.7544120395977723 0.6037752406885601
P 2.3452492274153496 5.9899028824813625 0.8948319628565067 0.6547455610888402 -0.9013338946401832 0.19112372482513537
Ni 5.202021034930702 4.669909689405625 0.8606748785971636 -0.13299391056193868 -0.12941493496142875 -1.5990335906930462
Ni 7.966221699825666 2.4391008346415926 0.05137795141175169 0.15470224877330777 1.2254906107953087 -0.7672925166503367
Ni 8.228505068587504 6.555499759245878 12.067275315505976 -1.2735530135201745 1.1435248704547791 -1.6037086275712122
Ni 3.4046724791874436 3.9280416598854986 2.239941607355718 0.6607583429418232 -0.3140018871093108 -0.2033344079587143
Ni 5.262645046233795 0.9759259050996693 0.8563212989372575 -0.9601465939030174 -3.112681616730736 -1.3845940739601057
Ni 8.056674088062266 5.607265052744764 0.9282161623645461 0.6378888945428175 -0.3161384738363394 1.0854534202333435
Ni 3.081479527879482 6.457079012131117 8.809177343391452 -0.012818749031223086 -0.05026815212693278 0.22152187750101848
Ni 5.756637236801844 2.670404329522211 1.9864805476084642 0.9702721123727934 2.792972394824003 2.3420659492444376
Ni 7.992448194306734 2.7204069329796168 8.04038270924605 -0.018563879045116412 -0.16495066597419333 -0.269282175604433
Ni 0.8278019437339079 4.324469817067885 2.40788144939525 -0.6833688812524876 0.321132327506505 0.43644861828302256
Ni 5.860087722584207 2.548004809968315 12.062313745457677 -0.8575402944940006 -0.760141250317536 0.40859122975112216
Ni 1.481875239972751 3.5180718985980306 10.072934189133655 -0.7013216090761664 -0.30460707615797217 0.5142867096084239
Ni 5.004046467704633 1.3943522599711278 7.299389817406184 -0.2981993728594155 0.39257994192453033 -0.8808378315693605
Ni 6.920597987474941 0.12092744585594227 7.828880355878272 -0.8249520761453341 -0.08228095758810346 1.8084977656985821
Ni 0.2544089720346097 4.590870938914737 8.257884822310182 1.0719209329645474 1.283390054215254 0.9833204609163194
Ni 8.434816473715001 6.954765204907424 9.472240606600465 0.08151322618414349 0.7536558997035084 0.13907225554553468
Ni 3.465517577904497 0.7940842707098114 12.719322898314402 -0.3912334551989649 -0.12231431936090549 -1.3608334812053984
Ni 2.16614999815616 8.063573857772951 2.0130285400373324 0.9486051689223212 -0.48216566070416317 -0.07372895425303432
Ni 0.39280877197634073 0.6593508370495924 13.017573504537387 -0.5623956493005089 0.7801716866058498 1.0773439037523318
Ni 7.02664625037134 4.673539207784811 12.56595824404022 -0.8306496407507438 -1.7415230994502462 -1.3949203955867784
Ni 4.363906284533094 1.7523756909534545 3.8463867083294114 -2.014766316584956 0.22553974041115993 0.03571365135152559
Ni 4.72230740651427 5.946422357735792 12.003084427257651 0.2735013558921031 0.44210221702437413 0.47053373289218964
Ni 7.40798519155092 0.917369982314666 2.0012445808732364 -0.5636619176074421 -0.6179538461817873 -1.252415717320927
Ni 6.470399528822238 6.400471422181641 5.043052735910177 0.9828147249244944 0.7790853955202066 -1.5980565714917576
P 3.871599885496493 0.24161169555652798 5.680175997078713 0.2919567343838133 0.6697685168602336 0.9029284928208128
P 5.916897975996481 3.4720488685919144 7.470672685384311 2.0615930471305077 -0.6148849774484765 -0.21456190124341756
P 5.195416048438631 0.5603672382267905 10.141951231389225 -1.7761280911186252 -2.7199890604877415 1.3081361508116824
P 1.763393213749154 8.651371595689335 12.121502530965143 2.1665411072988237 -1.7882346445741721 -1.482966280683117
P 4.30463643364051 5.864021236157589 4.8109892530440685 -1.127549063851813 -0.9184618125697215 -1.0572530465397276
P 4.1236948092649826 2.6769724681119547 0.07153375398448629 -0.5988171253523364 1.9959345285904337 0.45580902508750537
P 1.8381391836189749 3.023351961959027 7.91429287227413 0.5537590566714333 1.1855089281960485 -0.24179759703091908
P 4.405332538723947 8.859046373202922 2.432109866372649 0.18943579559975116 0.5905170901270733 -1.6628797386147296
