# total energy = -381168.6581911039 ev
CRYSTAL
PRIMVEC
9.26500823243114 0.00000000000000 0.00000000000000
0.00000000000000 9.26500823243114 0.00000000000000
0.00000000000000 0.00000000000000 13.56027606954363
PRIMCOORD
 96 1
Ni 5.145479772343038 0.17276738617673057 13.218380619240918 -0.1621453353149143 -0.3749524586507543 -0.0038929072965029725
Ni 3.890515890579431 0.23240439053352108 3.6545759729419838 -1.8229674200696668 0.34040660235508474 0.42702398253501295
Ni 2.0894538993828844 8.161879205514168 0.276941284633554 -0.2841876319613557 -0.31623231910172633 0.3695400293859313
Ni 7.25530742461254 4.658112549471386 10.131370706079116 -0.010110348961124524 0.8810558611174374 2.6785482768444515
Ni 8.859497257970185 2.729980971717329 9.318323623285119 -0.15638966377805968 0.4037598698007498 0.5447473400911262
Ni 1.6310954169787177 4.1996706819940135 3.102211012007221 0.30167396167157723 -0.13472580565138087 -0.1911401798853676
Ni 4.8065379797777155 8.064522500042324 5.398278298781072 0.08953943892272967 0.09125153651782994 2.757928258735676
Ni 7.058166581537753 6.667766933796316 2.0394108109488283 -0.21839541605689486 -0.8757619597083497 -0.6601927002463405
Ni 6.673298143652302 4.926130704771106 0.1302094978141154 1.6394631594630025 -1.9267417716448558 0.6027138893035813
Ni 2.260485949536121 1.9401297632875585 7.744572121150031 -1.0186625878610394 0.483722977888954 -1.4490919965331754
Ni 5.9456521998340595 6.905571897571133 -0.29426777634490653 -0.8864106976714476 1.8608523680408986 -0.64280458667688
Ni 3.4176669354537226 0.847965045449335 1.2811032492119996 -0.041601477590870295 -0.7070698244138532 -0.7949925536687663
Ni 5.033882749369271 8.920007026093197 8.208888930285159 -0.08926870175984626 -0.5642902952200605 -0.1591813675905839
Ni 7.661985691645376 7.491509541980179 4.201882239435594 1.6492971148342883 1.1989275155947998 -0.701674621540211
Ni 8.305292266420015 6.562210696125903 13.319255248301232 0.28528369323901187 0.18467077011094002 0.3980065122567404
Ni 1.5234174924456236 6.036504869595849 7.6035855658744715 -1.2820469099237985 0.09332410277614249 -1.7056065880592948
Ni 6.634672324741746 2.48870162989227 11.150872744624989 1.404511381709323 -0.6259494627927542 1.2708921788585597
Ni 0.9571031352643439 7.24836793352019 11.843355203072344 0.6044231586852041 -0.2729179725848074 -0.7338494065005425
Ni 6.41377600081144 -0.39149013919880615 11.021656455682836 -0.13071359916819425 0.50221383760429 -0.7367868918623117
Ni 1.2010693294482562 3.1939447840425523 11.841172367155977 -1.9452776256655142 1.1450953002656923 0.5919211695634515
Ni 3.10180427815014 3.257178464556953 5.39930856768557 -1.8079740319846282 -0.3213318451118208 -0.2721646393585506
Ni 5.665923074252992 8.392661293123428 3.3520864283789846 3.5033322028430374 -0.11334014088675319 -1.994649234120107
Ni 0.84904349239613 0.4521991049966979 12.63180368927063 -1.3743878228510653 1.3135688917914798 0.35147751545726563
Ni 8.81711911076537 2.662754072697184 2.8827109248027054 -0.012639286030565328 1.6475356520584916 2.9485624455189026
P 8.137262078902188 3.9295030448072112 12.169303748230574 0.07903236874381872 -0.36009353926105075 -0.056368608597715815
Ni 1.2548712316822674 6.675994261019289 3.7811609995740865 -1.8118427709114153 -0.8477443914495013 -1.4359742282042947
P 2.043675494192898 5.180158697788518 11.3697085307463 2.095298924023385 0.8807162183898316 0.5550361236116441
Ni 4.379523019890797 2.5232971702645446 3.5164374811668098 0.4858261402748859 1.7445449169957052 -0.19918079080165696
P 5.283259708303427 3.395078845623084 0.49068038978036266 -0.5632515695429009 -1.050755354630526 0.43174015706375973
P 4.358371006320925 4.889997173048591 3.6338288402275665 -0.7442366632721376 -1.4851455477226227 0.6799074050664484
P 0.6842977502617977 4.158339480708337 7.634665962160716 -0.5771836062429608 -1.1577978354340255 0.31931892844685006
Ni 2.7425072627144678 5.64703172266781 5.314760735958952 0.3352957634910806 -0.08192100314552343 0.306042265942602
Ni 7.608220849443901 0.7195640772229721 3.527055180488349 -0.6159753822991779 0.1498829730077935 0.20513623705414347
Ni 0.9209881335580969 5.283908258872806 13.385511174468938 0.3635624716462577 0.1806549640833276 -0.3203052036195193
Ni 2.1803806892097457 8.115665344941883 5.069034190229584 1.7572441097299285 1.0937943359988713 2.233544055681934
Ni 8.382701409379402 4.825151381118877 3.8465209994552354 0.30819710750207563 0.9490504839898558 -1.642917693670506
Ni 6.340684351642486 5.567982673268709 4.094620313767716 -1.8828291294223056 0.6748749848488635 1.2384613120233638
Ni 9.022246390851645 3.3931053988905466 0.7345965529203516 -0.35386632740441637 0.457621909926528 -1.080742130800603
Ni 3.589968291721314 1.0430453507151252 9.273100192082357 1.041430477685174 -0.1640870324223174 1.6378878445560825
Ni 7.905247745211107 8.555095415728333 8.76473846077911 1.2283561052685619 0.12752723102041263 0.21988125657380198
Ni 5.130794734450682 3.1133762733094783 9.757784268598408 -2.9843234051685954 0.42626242177864004 -0.6637649909786311
Ni 4.202830049767701 7.857755313516334 1.3382785409075921 0.5429820206605875 0.18520864489228103 -0.20554607089805246
Ni 5.548118495829461 1.1440246743673528 5.0481378908842105 0.6954507521176861 -0.4378958922525103 -0.5014862154096461
Ni 4.803647297239915 1.8014418565300396 7.123524728417276 0.01863227038920662 0.42539724556486735 1.4237774290277867
Ni 3.7605648864922534 4.034781332233604 7.6558874632915925 0.2894295970865854 0.6762746934098676 0.24293453884883967
Ni 6.1871075768136645 7.102397730369365 8.940384484983069 0.11021265100136501 -1.7273668625545218 -0.19105687614294192
Ni 6.8307754869055275 3.6170499104969323 8.316516823774329 -0.7544020338409136 -0.40669478405935766 -2.5451594448369392
Ni 3.140948937516197 4.637664676519696 13.44624793529123 -1.0130778946844101 0.2705073062607858 -1.5353257681214396
Ni 5.7220319635123635 1.3889266343727968 1.832346217661737 -0.5627869712016567 0.6939335441422113 0.25823903041639396
Ni 0.5593035255262986 4.874441224391642 9.964836817374925 -1.2104874525182572 0.48841446982735237 -0.5906613290144215
Ni 2.179046528038453 1.668211039563434 3.114849409602781 -1.9104481766911547 1.1304500395486918 0.09008065613818035
Ni -0.07516886399259144 6.425060780718625 5.715656711415373 0.7782736982521887 -0.22217236660082382 0.3248131187922019
Ni 2.244299980326061 6.142394647559086 1.7673920251368567 0.10564714311786966 0.34627051733502945 -0.9876214022845183
Ni 3.6939402130008165 6.647865696324532 12.550184526615162 -0.7046514447803477 1.0207230699344938 -0.5576753610067041
Ni 8.892008171512314 8.136539408267737 1.9266037779127638 1.0642346200638833 -1.3094738957864998 0.2686013474873245
Ni 7.6453457370367515 4.534674846102395 6.339700407778657 0.32376128048891983 -0.07061971920009127 -0.9648650824246093
P 8.423189494924886 -0.040728975756967906 5.615540886521232 1.2013924321955245 -0.08649448144881879 -0.7222131078131949
Ni 8.280730729856838 5.7896943179148055 8.19131506285663 0.4282252019319657 0.7372661454915754 0.3856665026341487
P 1.6096839831810943 2.0383203194914588 0.5981479986288154 -0.24668269303736226 0.07408582337182079 -1.3592684507111237
Ni 7.225307328274719 1.6872506312787592 13.326605179253917 0.008788287715591316 2.2317316850635436 0.2555961934769082
P 0.7376679031167653 8.417185769654068 9.888709025040466 -0.15825345645967584 0.2653208769638398 0.23615094026810296
P 3.3382658157455296 1.1349264363797862 5.691763181938657 -0.7159144192886767 -1.3149158927376774 0.3206808417913832
P 7.295378584791996 0.13034754643531166 1.3060687401298172 -0.8452928445852153 -0.3809595840767826 2.4356129666646633
Ni 6.759444189282029 0.0430202122685007 6.805590415294935 -0.20435899256848675 0.45196394030980225 -0.02949800945911694
Ni 2.550156428844947 3.540372703180129 9.513889414977129 -0.0522062496899101 0.8225858899060028 1.1178392927632168
Ni 6.360900599390827 3.738597552206591 2.569794540085727 -0.003995751422954409 0.015920013664366132 -0.7168341028894687
Ni 4.402185229786507 7.9508964402872175 10.338136966104292 -0.7527246461384908 0.0040379175147994975 -0.19414348548806565
Ni 6.992375758778375 2.9569088159428554 4.813355172762696 1.1052131193587742 -0.8164923754137551 -1.2595888380305984
Ni 5.2108814647607895 3.8902194103191436 5.864941007975723 1.1088687138334903 1.1281715279271602 -0.5498946886200208
Ni 3.2057761994296423 3.134241071627197 1.3992710159543837 1.065429668813249 0.28089019215700656 2.121912412845855
Ni -0.03701741349849626 1.1181845666816879 1.4797922751459742 0.4295608900242538 -1.3701064218668921 -0.6941680287505206
Ni 9.021431070135854 2.314575067022285 7.047220900928271 -2.1244822304555604 0.439044918255289 0.9319539335188852
Ni 4.91824618284909 4.469291683700911 12.041050093633542 1.1246146638138375 -0.4649212718014187 -0.798881090089895
Ni 1.5069998980322143 1.6087296873432946 10.232692835032301 -0.5581469013264839 -1.867677618492848 -0.3593422629173231
Ni 6.9332464768673265 6.839058404177305 6.216722248813111 -1.0069905508397496 0.5710484398795004 1.5254339629290246
Ni 0.6185504730406486 9.34190770149016 3.960115558182688 -0.89882038418971 -0.8770300277874961 -1.7113782004357494
Ni 0.5995312643432182 4.013684908712537 5.1928804804572835 1.1178567762647136 -0.7260283677942271 2.1472218381449215
Ni 2.8764051602667196 8.531599355100566 7.360951679860226 0.02964379100836185 1.7682237486698835 -0.07261618080482977
Ni 7.519045146154362 8.742526530278711 13.027736399869678 1.798670238085199 -1.6408052753131936 -2.0466760208093593
Ni 1.077816926241945 1.647522276400261 5.529473593460643 1.822995702204441 -0.7216798610175443 -1.2424508927987312
Ni 0.6168975955895469 8.332355355179365 7.058164728536126 -1.0268482089956252 0.49627484641203556 0.21007069824128335
Ni 3.1252447487291044 2.2174499867537922 12.500160894698189 1.229371948127586 -0.757150028899696 0.16554279103223749
Ni 4.303642603273516 5.512652044692592 9.906202286898232 0.8329939726132041 -1.0713486054008452 -0.052773177936973635
Ni 4.566629859156485 5.563813419608419 1.5238084757888777 1.1474871975366367 -0.9471933761764589 0.3809891517631374
Ni 8.471052526945018 0.7228262865869458 10.612651745107557 0.5173846318074574 -0.2055944076374846 0.5762433538168786
Ni 6.554465149325898 1.427089202876653 9.03548330797266 0.5458020066078858 -1.4337263127103825 -0.38718473905088807
Ni 3.9504975532388054 7.0027155078558945 3.6255431434533496 -1.4933435101523829 -1.51843104924863 -0.8350400565089555
Ni 3.7131373098544196 6.4979949247493005 7.541750901588302 2.8974427440249517 -0.767711092244994 -0.4087796916128444
P 5.779567664024368 5.483031813688264 7.455250006147042 -0.49642551305728694 -0.8910479393331429 0.048679724593890354
Ni 8.086619544441863 6.793993404613634 10.849495001038067 -0.14409362001952603 0.9409833907110052 -0.4289739071725322
P 4.604885077741681 1.0342806530203816 11.335401132126991 0.3696050782959119 0.060511427121495785 -1.318990062807051
Ni 2.4398843020343395 6.662800889436504 9.475948280167675 -1.5130810977906262 1.8714257726813703 2.31810146800904
P 0.05942668867214919 5.372481736633637 1.8733661146741118 -0.16127167446070934 0.5330025408503724 0.2715941115670613
P 2.3007516748863894 8.540503027917318 2.4948063437517485 -1.0568673810655347 -0.9213869566363164 -0.05247750107342575
P 5.928882535111559 6.45271682999855 11.104645913041319 -0.38796789707381574 -0.09279908351060792 0.3794056093261014
Ni 2.6330411916115155 9.082950724145471 11.436031164972567 0.8985702158521169 -0.3324037866552662 -0.4396074756269784
