# total energy = -340895.1438779751 ev
CRYSTAL
PRIMVEC
9.05031890768379 0.00000000000000 0.00000000000000
0.00000000000000 9.05031890768379 0.00000000000000
0.00000000000000 0.00000000000000 13.24605654165599
PRIMCOORD
 96 1
Ni 6.702557517110222 1.8666192070982328 11.53347380520686 -0.2666390815546311 1.4540837933208117 -1.0847702781233899
Ni 4.50890503931252 0.34786167444065436 5.919410803486263 0.08096840942426702 -0.35873342568873057 0.588298742319516
Ni 2.5886264919077386 1.6718744466468378 4.844585889648168 1.4775849617665455 -0.33296351581347816 0.07623398006307516
Ni 3.215913139906932 4.254572979724961 4.805881296166133 0.33146044890539045 0.2714665848502615 -0.2383985986516991
Ni 5.150798901893392 4.71457353458429 2.682935339211566 -0.4302705144967687 0.09780296448310252 0.02039681848879713
Ni 7.229277022338902 6.152442937721914 2.513002027815729 -0.308469644437172 0.15332979390581333 -0.531913935771884
Ni 4.712138998820678 4.633129715488552 11.29611742863718 1.5129052343343945 -0.32266059122557333 0.37408702532666543
Ni 5.915315534218475 7.832996640120815 12.432099871927374 -0.9824699399905662 0.29209094596883245 -0.7245556399034425
Ni 1.9073184908490426 6.480607498274363 0.4499655613474555 -0.6776060106267814 0.3874919858786617 -0.363577126934277
Ni 2.6976285318220707 1.5076564115882563 0.31286771167639355 0.12414314503952814 -0.7777900737475507 1.6375356034229862
Ni 0.6970483155571189 0.08251266174883416 4.948779495171395 -0.5497427364231887 -0.727939725884327 -0.4017798632562435
Ni 8.59582086282584 2.2796576575806555 1.4145069101257624 0.6131224862314151 0.5433777134371094 0.08568946904902017
Ni 6.6860678362131845 0.7174667398555851 4.727796050385922 -0.014095301750801531 0.19370562661969865 0.10054016090860748
Ni 0.8116660783016442 7.448077530224064 2.5746754254407884 -0.03905505701993273 0.21870189155372013 -0.1793925524311362
Ni 7.587099477677074 3.853272792757059 3.594569429177585 0.9918704073688596 0.20729647793025588 0.5568888605496668
Ni 7.5739765153825065 4.14672938062008 12.703643827854114 0.335136612205397 -1.3875004489736233 -0.4471397794482815
Ni 7.9805077866305885 8.976278165542437 6.7553435016502705 -0.9869508585800553 -0.562543744842599 -0.2618455168207297
Ni 6.736695319713747 0.8541383195100442 0.38752379165425194 0.5361757963720314 -0.536924758722914 0.08348731919137879
Ni 1.9803183624821383 6.487775350782845 9.134440632275988 -0.3925436893699562 -0.038243359751914785 -0.13060895526952992
Ni 0.05803516945787576 4.941673184830915 1.454628783535611 -0.400371155834175 -0.7732420493655522 -0.429515381498299
Ni 6.257879152019654 2.033479935253376 6.81867220258821 0.7901542517398585 0.1810779105533591 0.37313674559825416
Ni 3.353070721682231 4.414808874501053 0.6894017011828563 0.2625826520970704 -0.15553837152135794 -0.3368469100282844
Ni 6.1035531154355285 5.68564559342588 4.825525013173278 -0.5257607716862945 -0.32705974873453353 0.06903771942495206
Ni 5.150798901893392 2.7285353706054853 9.662640769664248 0.2037910358801587 0.13027856851330466 -0.2516618914195085
P 0.2366766976260118 5.504123348776115 12.442418140418434 0.6892950169289355 -0.1544399962508566 0.1774562546403718
P 3.8036046430518238 6.129228869938764 12.67198581260832 0.9628475377739482 0.47899883294040724 -0.2932929366967336
P 2.5621724099856533 8.600373173194232 1.4966584641535254 -0.306012441145931 -0.6707313949941351 -0.8090927405155744
P 6.326453417747891 7.773427441622299 5.901197941885167 -0.2075528169154361 -0.08602088424650993 -1.1591597487785585
P 4.900747643109509 1.028414878909442 12.517510445763603 -1.2111669950837851 -0.3454495640956308 -0.1019370412561341
P 4.168296290377292 6.217469478471206 8.202275894058086 -0.601119548233268 -0.5259921709708103 0.2061176271308063
P 4.6547690277963545 1.1964430981928607 3.888379884506618 0.1720515386850327 0.18869171834487505 -0.9239210359120797
P 0.09222908403810909 5.6045275858078005 3.655116967140959 -0.31442946156503265 -0.04869129455811615 0.4636218362637048
Ni 1.4487116850885842 0.8902690023185793 2.7128719838170645 -0.8014563070162389 1.679446384724159 -0.42081271151797855
Ni 1.7521688752519486 6.447266123727335 4.835737392934099 0.32210677560463236 0.7888645863941575 0.40548122336723075
Ni 6.052355461849065 5.48919032271678 9.197677019961924 -0.4436705899527585 1.4123987548771997 0.7324332428793064
Ni 8.79340742338792 2.255538557915121 10.165222169557865 -0.6237694244223 0.225041974839135 -0.14969631091828411
Ni 2.489263041540796 5.264724315247894 7.0137871210795 -0.8052057467563424 -0.42526046287668695 -0.011062942682380948
Ni 0.656139064409596 -0.2543402048745009 9.099047550451596 0.6947755804275325 1.0445204294644077 0.6626265064988137
Ni 1.4794556181331697 0.9968111655765918 11.403940212008767 -0.21656633326795605 0.7717906616310063 0.12259251272295661
Ni 4.042496858725912 6.924272227656661 1.6980914102157385 0.5216241238101016 0.07649134748951988 0.03075476468435349
Ni 5.762328944820279 8.007885001072705 8.002976108142654 -0.7033466099259952 -0.22735725323587297 -0.1910882436015096
Ni 5.374758091508144 3.1809608086092607 4.686282237940966 -0.20965495086010344 -0.599010215199749 0.0965598361046208
Ni 0.7261061742048229 7.565152454529262 7.04370928517488 1.1606756712024526 -0.5037917236143711 -0.8789583551584605
Ni 5.250415761187401 4.406609285646653 7.244321367319771 0.2806605926447037 0.8183546254334744 -0.8179933854393138
Ni 8.061236630539243 7.253088411164425 8.876672166631018 -0.7407039675285307 -0.09003771871538686 1.0690844919570168
Ni 4.714437779801933 0.11705591863566774 10.539595847961076 -0.41284666259336644 0.7644262508461351 -0.6680381644326883
Ni 7.944722826001123 7.553685700579456 4.350190503130716 0.8352660564768324 -0.2919564772734972 0.5823283836686939
Ni 7.235956157630897 6.076556014384013 6.956351987759645 0.42324754621171623 -0.23000986036737162 -0.2910252237084795
Ni 2.114905653711467 5.344946341302413 2.6607747285395105 0.9338832893311142 -0.6822203694703413 0.3937719053501025
Ni 2.2991791952836786 5.2538458320216375 11.302224583779505 -0.5519155757047914 -0.6120637059495975 0.7523862889624655
Ni 1.0252110660458025 3.169738413267699 4.00111699099955 -0.6931105340202837 0.7196736292207928 -1.1858004912945386
Ni 3.8134875912074575 2.7289969368655016 2.398662109859096 -0.729241475414886 -0.6821838598054509 1.2111173727927722
Ni 1.0658560478836692 3.5699435116579155 8.491305065952487 0.7080722975364386 -0.5982771936884663 -1.7255179822712412
Ni 3.773919597309628 2.720118574099314 7.074255016237224 -0.8464426419189423 -0.40981507485589413 -0.40567097078053366
Ni 4.048506270424942 6.908615176091417 6.0839537449906205 0.7955849358371266 -0.09490713099254623 -0.531991840197671
Ni 0.581792505335513 7.294701777116443 11.170584981391102 1.0573263229798242 -0.597244381548578 0.2773955487401868
P 0.21414321381841428 5.701981418902912 7.903577361532299 0.4876125427513473 -1.228810162086845 0.852560581891222
P 8.722661081141961 1.3839747545416548 8.029613911536863 -0.9209809794471493 1.790717816007342 1.2527404476501973
P 1.7669751968477514 3.1657291220287376 10.599215728245007 0.13651400790005522 0.20595539052132916 -0.9601183117682431
P 3.921294989037043 6.196346034336363 3.8964735846307783 -0.14912655445774317 -0.34165538716052124 -0.17355074893837852
P 6.947305289063333 3.8256240687502276 10.257494695126327 0.31594692665082363 -0.28245702242349424 1.8453506728608735
P 6.277346387809734 7.681494303009729 10.132915246452402 0.6887705118840332 -0.3106669091988069 0.7608791569248251
P 2.4896522052502212 8.446246243624232 5.917026949508063 -0.46068512223288405 -0.21966914056299586 -0.005929735220873659
P 6.836764694948949 3.9316666544091636 1.5087388297195874 0.19008088538291779 0.10601918174530772 -0.16755159393215016
Ni 5.165650475083313 2.8326773893114154 0.38897546279359596 0.5880061507797615 0.7650674839745598 -0.008637621070339965
Ni 1.5982772539713688 1.0124229655477162 7.112960514751142 0.32065333098755744 1.3326418492625307 0.29356521652151374
Ni 6.739048402607945 0.8625379204104503 9.284426135952199 0.8814680089541916 -0.3376310964924766 -0.9523224698729083
Ni 2.9773738866669737 1.6356731713514767 9.358948271211464 -0.7922769545098162 -0.460991083509077 -0.0586661463826409
Ni 6.367252255005764 1.9788341101950284 2.5410969325405763 -0.09421241891836676 -0.0056068046638161504 0.4655316516919079
Ni 4.036179736186871 6.791549302105043 10.460834543364724 0.6293206932578322 0.5303867004940801 -0.42087493221448163
Ni 8.140445020885492 7.083729795013903 0.1883896265732944 -0.3754024017039793 0.17830857533833808 0.5326086478460634
Ni 7.6697560394952085 3.912443777227327 8.222012829349119 0.45414115046677916 -0.7067579496003892 -0.7357607645906425
Ni 3.1554208088883833 8.351878569248049 12.317177113438486 0.6187478028379925 -0.21071861623792743 1.5759769659838987
Ni 9.222727397434433 4.96753899602945 10.194522576750048 -0.9466009940080988 -0.4040730301657945 -0.08960165961923279
Ni 8.54630656854061 2.1014116283451214 5.745821163285594 0.36267518394529796 1.0685419891899854 0.49066881307916793
Ni 3.503342215433275 2.67476742647305 11.761464911857633 0.3859452102168321 0.13745143211266006 -0.7737662973001384
Ni 1.2059821342331882 3.3490795310809176 12.887936375095855 -0.8931552154841327 0.15342183939898738 -0.8624816976596759
Ni 3.2772562008949215 8.423348936999917 8.109685702298906 0.06293160652721419 -0.16618865214635248 0.34093650671662573
Ni 5.574263319660878 7.778993387698961 3.7858026659253303 -0.9650412029911573 0.37872632387088967 -1.0096531852735773
Ni 3.115155940441118 8.515743641872502 3.7142608006547553 0.6340042147764308 -0.7706439496210729 0.2757752395279444
Ni 3.397652592208468 4.260690995249877 9.13620272935099 0.09400313112103811 0.40276382443606773 0.47043037454510594
Ni 7.36975607112255 6.089633725084463 11.343737491192579 -0.9098817842101943 0.10189693204681807 -0.8171652331110636
Ni 0.7405061364854352 -0.28975410243218785 0.19737297303783824 0.5181747318089205 0.18451470414904997 0.26950663291041327
Ni 4.677449126768898 0.3827090220399689 1.586480163384493 -0.7413696261369876 -0.3287821307422789 0.4620349513925592
Ni 5.796050432757908 5.572706664823178 0.2705656164618817 -0.26701214862333367 0.4110168084734792 0.43168770655926947
Ni 8.024193675593263 8.850252475920461 11.283970995743704 -0.6994105080963825 -0.2784265611078624 -0.5532057552711247
Ni 0.10763001158063808 4.65921273433886 5.921556634079396 0.2110258630657011 -0.025005520905402097 -0.06790797669588304
Ni 8.058711591587391 8.919234005995772 2.0305141457748035 0.03382491896924497 -0.4790191446553814 0.9265756999261074
P 8.433041828460249 1.3807528410403678 3.6052053638593624 0.1320264044423468 0.6633042492921286 -0.4045029186143614
P 1.7547482161167434 3.257617009047188 1.7657651692210041 -0.06383509217809005 -0.6183464536345158 0.3415162904794957
P 4.7896278285903975 1.1130987121441154 8.10275858827114 0.02482245836031854 -0.6003047656414564 1.1562286911746926
P 8.65645799894557 1.3692679864529145 12.563592859150832 -0.1086216523651613 1.4436224887781717 0.5306720929449829
P 6.230022270679873 7.812036101724801 1.3194414561682617 0.3530011511906437 -0.5823970321231002 1.146568285266793
P 1.8407081443055782 3.2086638345290357 6.2397405030329125 -0.5857422944462493 -0.06979773751942818 -0.27767554187445076
P 7.058235046887145 3.9664108283738866 5.912880998454862 -0.6727435403281575 -0.13830041037651666 0.19046937907058809
P 2.3700431916743483 8.400542133563839 10.35796590451731 0.6972746927003024 -0.2109109347543916 -1.4749053580518534
