# total energy = -381167.0732297643 ev
CRYSTAL
PRIMVEC
9.32594515931534 0.00000000000000 0.00000000000000
0.00000000000000 9.32594515931534 0.00000000000000
0.00000000000000 0.00000000000000 13.64946342163755
PRIMCOORD
 96 1
Ni 3.4941051857587455 3.0534636101594366 8.814796488598985 0.07600309499919168 -0.5514764312848438 1.1787579826254604
Ni 7.691964833577535 4.848894542758621 2.3554063679036976 -0.11590867294487779 0.44419792321113827 -0.11134933570896953
Ni 6.8353301550303796 0.867951712812213 8.307186234504446 0.3597168726479224 -0.7098000788608226 0.1702869905854422
Ni 6.92210807331334 8.586770605035184 1.7153966051502292 -0.9673857919639339 -1.1074396946964475 0.16259604969908772
Ni 2.441886788540959 6.267482689546109 13.480688012500377 -0.3937716482397864 1.3991758284290226 1.3738648604680597
Ni 5.542465072871864 9.130333309723234 4.915894929466871 -0.759817291319214 -0.749494055016335 0.5263107306524936
Ni 2.1697557132592 3.3187214639716047 0.5883505555804648 0.09565249379900301 -0.37615007850328125 0.05653444475161877
Ni 8.063240030220513 5.224161243864265 12.829253034519777 -2.401101306041039 0.17800878470973214 1.270438893371225
Ni 3.522773140707893 4.51682561892183 12.70901549074347 -0.5408760300611781 0.2993707674596973 -2.0091754527607395
Ni 6.121624909648689 8.014726464298109 9.295475278704533 -0.6928379970851875 -0.9278769352360343 -0.9688819168934864
Ni 2.1470936668940634 1.084262344259189 9.92175352003083 -0.39480137505588137 -0.08763553703179747 -0.35220488054159343
Ni 6.402419787841236 7.222300917118841 13.37659647731335 -0.02132061585464715 -0.07977104668205617 0.8654842319314255
Ni 4.312167755760137 2.951857439316573 10.96997761500245 0.3766642991355384 -0.48048390212636605 1.0223379798300973
Ni 1.876156312573102 5.178799847353968 4.174128848155939 0.08031406366971974 0.8499640248086394 -0.4231153915092261
Ni 5.832968259815893 0.825005736058529 0.2934688374560106 -0.2546004052225422 -0.2489231523321068 -0.13575656090874041
Ni 4.362788985253947 7.097547750770518 12.012400972180194 1.679533545121327 -0.250391252237201 -0.5780104730196304
Ni 0.8058838184177574 4.655996696249783 12.683940822405223 1.9059801136174723 -0.921530424192716 -0.8357080291102574
Ni 8.806834929347167 6.315054335022883 4.978928059169472 -0.715515126967729 -0.794162087347671 1.5865341726744548
Ni 0.7095747843384316 6.14951881116232 8.578169285955939 -0.16263564468777153 0.767861244669613 0.9996708772498849
Ni 1.8065288071565972 1.506018881220884 5.0337991218026215 -0.88318422031435 -1.014513341579356 0.7075287663281428
Ni 8.414147362969887 0.45461370640764065 10.383665711000347 0.3508193130479764 0.1244161961952567 0.030061852382386935
Ni 3.291181948368211 0.8095582407502114 0.3071276165121334 -0.7763685108096757 0.9442438066298318 -0.7515108283360477
Ni 0.18494468060752625 8.591704029943479 5.913630223363769 0.36826964731393996 0.6598833965360377 0.5623658245038379
Ni 3.2593151942819265 8.733961995068494 5.374216631608989 -1.0805618964689971 0.32510802432480135 -1.4741196289257643
P 5.412778481615245 5.9743402601653175 7.907925742086777 -1.2461239707749443 1.9991939160679957 -1.1335718730071251
Ni 8.000010123078281 9.091322881762178 13.394149771004075 0.6131633667716795 0.3007959299419981 -1.3629106754494011
P 6.6590884463026665 6.490120974679812 3.9791056187801814 0.3972254111163417 0.6527696683093919 -0.10606597582284313
Ni 1.342106071791405 5.363910529782605 6.534489158046946 0.5978131095678544 -0.2298537944054816 -0.43403023864951706
P 5.692538179912098 4.642073060355483 12.6336021690451 1.0146228705740268 1.1506280571584635 -0.7001458436005104
P 2.465901096931998 5.483581056102534 1.946236126322409 -0.029676701128826307 0.1661248887879526 -0.10791742720928511
P 9.120960734991973 1.6227797126988694 3.8381747356295524 -0.3921189431277118 -0.7785706606673171 0.6287959311026139
Ni 7.499841040504213 3.671792415962424 10.553983579460102 0.9452624777023335 0.0860872187080711 1.4287602269543587
Ni 4.489556555723617 0.9070470068728251 9.607597871362003 0.9793941292787197 -0.5129229964916779 -0.7076987162471038
Ni 7.900063970446526 8.2894501522916 3.8808157539815324 -0.11640643851690276 0.31119964177382536 0.6331840328679804
Ni 2.205138348612832 2.9851697148788228 6.988470565383165 0.5462043842526271 0.085265237027408 -1.0254829532169825
Ni 4.569694401162141 8.810845085699846 2.560011073178855 0.3011679685694362 -0.5865187676009577 1.2628381982058314
Ni 4.597028745975398 6.82219922446161 5.709639165270021 1.0984086948424308 -1.2773700732734194 0.26224815157578707
Ni 4.342076061395113 7.934467381574504 0.521596373820379 -0.7714741588318519 -0.01777609303649842 0.24090670978553347
Ni 4.7473909573108255 8.677950369361083 7.285059864038259 1.0860568581452974 -0.2697814838383547 0.6565826142975789
Ni 4.864646063874142 4.013765493395831 6.963751215549653 0.2833916184226216 1.2488264573077719 0.583046492781641
Ni 2.6584538834756057 8.584625637683752 12.301264657992128 1.410909571926183 0.23624967062949637 -1.743494878464636
Ni 7.198184023332733 2.958338971095902 13.534411983897758 -0.20805263936999008 0.22027566379874322 -0.12381970026183838
Ni 8.90693029709902 2.2086449039351743 11.900120324683199 -0.15286519556456898 1.1657831676323471 -1.4818553070071252
Ni 6.606098426777274 0.9583434347850864 3.285179770162202 0.05388415161296526 1.6319843345874538 0.1052293388541607
Ni 3.9149291282198178 6.461788753750889 3.3163414828060156 0.49771440707203957 -0.31793027562943954 0.010066125986750406
Ni 5.981810342115306 2.807370573335069 9.172521087147912 -0.4831120837778325 0.5296354241503524 -0.964978468074022
Ni 1.3366317420727487 8.187704092273643 10.317219285425464 -0.6712903528213987 -0.9575034998532154 -0.2803826563929688
Ni 3.3596250587689243 3.5633410014849884 2.768916904290885 0.8300965964607511 0.7337239366662719 -0.46670690294693173
Ni 0.7682461695616187 4.023007504897004 2.436824665591578 -1.1429461151331735 0.8681808049269822 0.5439292150652052
Ni 0.1433369769622361 7.242538217782358 12.275207967644723 0.08856833325871198 0.4083534027087032 1.339901101928105
Ni 6.9056571063223515 5.202515725504808 8.977825198441872 1.607019694222316 0.2900289212334811 0.45800114764281763
Ni 2.6954219294802972 0.531864239272237 7.44896241492823 -1.1324950950031785 0.4606434703616712 0.5753403823866349
Ni 2.0943554478838395 4.565217947559152 10.629833355384763 0.19076916969919405 -1.77586275327238 -0.8758270086183303
Ni 9.250591370578556 2.0984775155765925 8.92407324920947 0.03440084607737301 0.23192044712652318 1.2133357206003297
Ni 9.452964377213721 1.8124974119605837 6.696249539368988 -1.0309982266082567 -1.861387671719078 0.03707659313732324
Ni 0.24260793117554008 6.3971319770227035 2.877333812771798 0.3037012765142512 1.1390570644914124 -2.3426063951289398
P 4.359767379071929 0.7928703947560655 11.759203430450082 0.20246974596557385 -0.04679407753540328 0.9316351167268857
Ni 3.632530187486201 4.151164641172602 5.0994938762099995 -0.1277768851373735 -1.1121556121148781 0.08538710731725295
P 4.368599048992827 1.4818460317647388 1.9498396714728161 1.2035614148223852 2.052284625245388 -1.0152165382939677
Ni 9.203775126647287 8.951955959589094 1.7819782569276998 -0.0874838419452816 -0.2286176080055353 2.211499931397701
P 1.5407113966440553 7.068329565066002 5.204581422323687 1.115696021167969 0.9564215796429463 -0.7460395208088313
P 5.42636638348932 2.3769688853526 5.088997525105489 -0.2464731481297175 -0.1558988401845702 -0.9733924031693301
P 0.8195556537968888 0.24290729401024003 12.024576925980325 -1.2678901588074423 0.36418622127318573 -1.303974049014193
Ni 5.886648399271746 4.629912028067361 4.503599563713996 -0.39577608026432487 -0.5469906275993484 -0.42272355538744616
Ni 6.448200851876813 1.8102964889391138 11.629356432939355 -0.2867731333003448 0.2843645238588522 -0.44605400258327055
Ni 3.686256956667085 1.3571488210864522 3.881593537795052 1.0924406501844541 0.01479027093529711 1.397073437374039
Ni 1.5824823043269547 1.9933647894113866 2.689299446583708 0.20824290100392523 -2.5902769060008684 -0.8571569430126529
Ni 8.064900048431621 3.381559681423575 4.58682056657158 -2.9649820245275063 -0.012676309916087846 -1.5437541013944511
Ni 6.465034182613056 8.885247474959538 11.368050914620826 -1.0355493363140489 -0.8210306296037407 0.8131447990977609
Ni 4.825962043988304 5.5658825207825045 0.9858307250964454 -0.23741540880282339 -0.4481468805565572 -0.28545210049607617
Ni 4.737673322614335 5.311368155617512 10.44974282915298 -0.3788445946163088 -0.5804447934927358 -0.7655583075680492
Ni 6.642926583606872 6.407605013264699 11.306533250981738 0.3976355020705668 -0.7450486176504718 -1.2621702256045295
Ni 7.430558595052939 0.5216765769474326 6.018935996590604 0.22574362889184993 0.13105555588864526 -0.02528937069440806
Ni 8.96269944823627 5.659953328060335 10.69850401884363 0.8051458400526843 -3.250596618743376 -0.2674014136419524
Ni 2.1363688301369006 8.226294852709419 2.9736997351156615 -0.045553777370398965 -0.034892441001810874 0.40189479156755303
Ni 7.294884747102321 5.231929756054454 6.54678728172666 -1.1473928380506175 0.8411988770214996 -0.5289378838626956
Ni 7.9808080023104555 7.461464776803582 7.559659516963166 0.37847178465792236 0.30639167886222074 0.007617407335941719
Ni 4.829711073880809 3.0207295431875734 0.05007752689994724 -0.6773023633434336 -1.5128155028340657 0.5713227765868096
Ni 3.5911602954385695 8.036250745372486 9.48015230469038 0.04752144261973106 -0.798288965031851 0.06821290953081155
Ni 2.6467031927677573 7.425606518254631 7.193662805193714 -1.041114231996336 -0.12095806244332719 0.7045563139633801
Ni 8.270919499564224 1.823557982737971 1.7837800295029032 -0.33058807360276615 0.531334152009014 0.5101454337465408
Ni 8.897818848827935 3.942412688153174 7.498851557739052 -0.19389228870920802 0.7001342736362846 0.41486343591307906
Ni 0.4967324718392722 1.384194061604516 0.06975433826858957 1.778573210225008 0.2327074618041928 2.5018255579359945
Ni 3.348965503626805 5.329339251644515 8.222982277043206 -0.7116790410510904 0.8297276431571065 0.1732733269072758
Ni 5.910243040137506 3.235935050151311 2.0988235081363236 -0.21027098717754755 -0.6017882921655184 0.8645462934981886
Ni 2.1385324493783457 2.461004975803728 11.871156737277355 -0.2554506690379794 -0.47477862421147266 0.8411333138908869
Ni 0.6515478219151748 3.4813939227152555 5.293043606274773 2.5590346601571348 1.177286026065624 -0.434553972363471
Ni 8.316392807414596 7.501211954420129 9.98435019550714 -0.6826973091067596 1.7970938947370148 -1.2789669854468941
P 1.3716413396261318 4.012245364359816 8.699348750177876 -0.31556588916232103 -0.2088669077411693 -0.19358221366795694
Ni 1.5280094595455715 8.344753006178538 0.5152593941886465 0.17858008383216986 -0.04621583643443008 0.8411320283393062
P 2.514479944469444 6.402820803476502 11.278619764983594 -0.15738673758400637 2.271692284616881 -0.2882808281941228
Ni 4.75007682947262 1.7589012060097864 7.0964650085552945 -0.31061754401811026 -1.1035359887666674 0.1445229942474608
P 8.293879976169558 6.860398295207124 0.739872914474668 0.6399835722883173 0.6733089259133243 0.7797348561787475
P 0.8463546893667881 8.791176667681707 8.299146337314577 -0.2377193131964874 -0.04887641398572873 -0.9126886575313701
P 9.10306424652502 3.574410898207382 0.593906953615176 0.28235674940020405 0.12316406895571046 -0.14707764234851445
Ni 6.824493406933142 2.873146463464001 6.624753114573234 1.5962555137272767 -0.8212787410588048 0.44006050400399693
