# total energy = -340859.6436022248 ev
CRYSTAL
PRIMVEC
9.41526130303874 0.00000000000000 0.00000000000000
0.00000000000000 9.41526130303874 0.00000000000000
0.00000000000000 0.00000000000000 13.78018662619017
PRIMCOORD
 96 1
Ni 4.867520525883766 0.03074741824933675 12.095613665422103 1.5632479484530046 -1.3328192553806595 -2.473691775814256
Ni 4.355198507137582 2.3228484869131028 1.8362649674988276 0.03901289092808765 0.8546346908114314 1.359360753314614
Ni 4.972086415915653 8.24107449307766 6.9232618208421925 -0.712361926050728 0.7576267114257984 0.30515189291784867
Ni 0.0810465677466671 5.251738501790595 11.188753603052184 -1.1747869137928542 0.07089611278992951 0.001897731243345119
Ni 9.037228973637392 6.943425544063181 6.398002291786914 3.3545977416173907 0.38429636175949944 0.4159178453195224
Ni 5.335901520968972 0.3092169473272323 3.5975797488281223 -1.6346816789139587 3.858855349124586 1.021805504365395
Ni 8.48483560355178 2.8526263997813026 1.1095904063961743 -1.7219246084930282 -0.7726162428560952 -0.840322130843501
Ni 2.8597066761457883 9.173458386825883 2.0485904041355187 0.060185668350960855 0.28284860143495805 -0.5622064161078382
Ni 2.993045604169522 3.6422655196439275 12.929012094406033 -1.4346591089372969 -1.1071517311423835 -0.7214104094062415
Ni 4.827552742416688 5.602165105527027 6.928498589078798 0.18463323200478526 1.3365460694129434 -0.5381414047388345
Ni 7.295622216890734 5.855699257046805 3.092342714076986 0.4770157410721075 0.36607058278009214 2.0773767923273256
Ni 5.962505979225963 9.458571324152157 9.035599191937004 -2.969437232085383 -1.2450446216678366 -1.7503692369869661
Ni 0.6873884425408803 8.241046247294292 8.22889302823674 0.9294489077088444 -0.733342127846821 0.9085530380964417
Ni 5.619319711293108 6.393753184442111 9.201388758947223 -0.013785226709550452 0.6456747091358235 0.24222491437632476
Ni 5.094484810514476 5.327390124913792 4.442911079759324 1.3206373686024868 1.6260728541990255 -0.6999663805998525
Ni 9.465632769994397 0.8105457071862164 11.102503220482843 -0.13751519547105995 -0.01228370246335949 0.2288220107068575
Ni 6.9430301030960155 6.886952807847508 7.145509059650287 -1.0200782372616433 -0.3415414872904763 0.7129170272232496
Ni 8.139417918732777 0.014988154181682083 8.736748447106178 1.5247035125209032 -0.4261024991620081 0.2534562643157699
Ni 2.4522800815707972 9.021797360656818 9.784469289610985 -0.3769257803270412 0.10207922326095323 -0.4707113961206345
Ni 7.055382414076612 8.838369243458796 13.398613307332777 1.6239102993300678 -0.6577092717028543 -0.4159399568067095
Ni 7.466471545228445 8.021623586823093 11.005973255819425 -1.0991921099756747 -0.16620896386132664 -0.057416590246255964
Ni 6.7362427230518644 3.48243204682011 5.875609709743585 1.0328931296381243 1.4592838494645126 -0.2801841672289175
Ni 1.905178088236302 3.147879573337034 7.191658903570717 -0.904496608638881 -0.08468751014706705 -0.9388033523405509
Ni 5.06454428014338 4.265913585908303 -0.1118288224621589 -0.3395655945110281 -1.1541643524464962 -0.7627136390304027
P 6.880682243939599 2.352073457438853 9.156850807731047 0.09577950629517053 1.0332862513114849 -1.5683122503497893
P 7.523189078233315 6.552588639586891 0.38606995776972125 0.3914386292312355 0.285379852497244 0.704902127338573
P 1.2386623380789705 4.093369510568453 4.751201565392054 0.8450614453006995 -1.479801252691574 0.6944791322330363
P 8.699428235066886 8.565496145592405 3.4174177857136643 1.3446902957866327 -0.4238653823013732 0.6187801987378246
P 4.946900592411664 7.78134612296448 3.712933645054727 -2.419392391040743 -2.685345502271943 0.9797941929306159
P 4.761410533027709 2.332395561691811 11.888442142724134 1.9661470129153555 1.6165636291570096 -0.10106132351940014
P 1.29585063413999 2.667174001441839 10.636636100117475 -0.18307051550335568 0.7280572252987978 -1.0932374350541365
P 3.778956280627445 0.47346241151328117 8.387062824420127 0.548989660307248 0.28406267634771726 -0.8221853120334743
Ni -0.022514713923397427 2.8945054812563464 12.323138158089632 1.4499875117642513 0.8265399894577443 2.6723305780695137
Ni 1.8247340972015063 6.592076244736696 9.858703915935171 -2.7087623385339863 -0.39521660821642907 1.8954398762077806
Ni 0.19579882878751328 5.765482224966349 3.9731997082774404 -0.13037087111679482 0.7508886213710165 1.02740176750625
Ni 9.163101599590599 8.88569976112405 1.306361831657692 0.46369716958633045 0.32193708279598754 -0.7346284507584122
Ni 4.030720363056101 1.2939769971765156 -0.15760393898989428 -6.076262647145659 0.6557398066813094 1.0603638242545674
Ni 2.785166053835105 4.336302078063749 10.550316986141935 0.034295687958076415 0.7241224090207659 0.6217444235724712
Ni 4.308046879433666 7.531747550594109 13.436922121789983 0.2429188551195558 -0.1389051338400511 1.4305250321642653
Ni 7.895656808258658 0.7416438847620895 4.715951769273706 -1.2207520676690589 0.07847418224750356 -0.7609935710155024
Ni 0.9952590075275255 0.9331474714252965 3.8684426884447567 -1.971894199811778 -1.7631625320968922 -0.8678640450175118
Ni 6.781134688086263 4.526057250736417 1.2702834925605204 1.4567104323103817 0.39969469859244067 0.8452951585780604
Ni 6.257712076476079 5.919930168427818 12.425332343844639 -0.3967271313236845 1.3523750660254 0.4246315710434364
Ni 2.9978756331256142 1.4828377200425003 11.255063404089153 -1.3074884899253547 -0.5076190677802612 -0.26856689470496325
Ni 8.448417373528068 3.1113860212243383 10.340789765110996 0.3569279970488756 0.1612135675292643 -1.4759649096646195
Ni 6.268897406690188 3.991458724173248 10.653627821866129 -1.4092216427007986 -0.6723864140990549 0.4450026785006207
Ni 8.80915368819417 6.283359247775095 8.878767304359194 -0.5519037486302495 1.4374556978458277 1.6786583416052252
Ni 3.0988919697141357 9.372892447932982 4.645783594228537 1.0853636887330145 -0.6811366494878592 -1.08171529334715
Ni 5.835503521938 1.98638471542206 7.353479938017598 -1.390559033294289 -2.129914200104409 -0.6476320899725105
Ni 9.337585218721783 7.734778241450189 12.728799391204063 -0.01525101262179954 -0.53829644225946 -0.30709821801094206
Ni 8.422186456039428 4.721838190527796 7.312869092215821 -0.16038387253911732 -1.3686720034132107 -0.6971865038618703
Ni 0.7148631160238669 4.407302562192189 8.99504389617585 0.10574741614115982 -2.5810852121992713 1.590161742124713
Ni 5.774511460383294 4.14764849094247 8.167172225471116 1.8996901668437027 -1.4586845253176168 1.31272145618952
Ni 8.1200130655583 2.8152760589064156 3.6342484247977045 1.097477441277413 2.27998332098108 -0.6769701768149955
Ni 5.252228095368991 3.062859765396466 4.20031087098167 -0.1371776096259831 -1.092078381749029 -1.9502861346236995
Ni 1.9401557833081966 5.932094685798718 12.430596416338501 -0.8984429462456334 -0.48344632718879965 1.5982265214107185
P 4.0115791371930705 5.712210677532493 12.270594410340582 0.3689887848681516 -1.060856961840902 -0.1551236525814425
P 4.746204886314086 8.125699883276585 10.365291099131344 -0.8653369077202838 0.09401392975431551 -0.32273026812124417
P 0.6183736369832774 4.638852078989794 13.72852405708222 0.6621012301229628 -0.8841180449825291 -1.0839673226061204
P 8.551034304507496 1.2471737341341502 13.388208502265764 -0.8078285290911701 -1.4783807181949635 0.26245486826995446
P 1.553734636298588 7.909327767409234 0.4297699507459505 1.5910626566724275 -1.1813434839644494 0.7700361408337447
P 0.09120563449836945 8.2025472445624 10.520511094004899 1.613887367876427 -1.3725088606607976 -1.612873839010248
P 3.8440816418151416 4.835169688665184 8.720156873955252 -0.9225809769444177 0.764256300927174 -0.03582189479461573
P 2.1391661576647607 1.6118456279496602 1.0625790660829908 0.15579599605811878 1.2268119007098937 1.1521234107570675
Ni 8.329351981366782 1.8203183397348257 7.315846197782909 -1.1061418018206306 1.2361987412414324 1.4717763255045686
Ni 7.290622713234427 3.824780356513019 12.838957946343003 0.5361310591770251 -0.40115277119520587 -0.6396087054474017
Ni 1.3536697526962498 0.41190355123897143 13.221041482553254 0.10104332579727114 0.5653971551309941 -0.2185553386735268
Ni 3.5304404632862183 2.698573897286999 8.94068111997784 0.14984209246752905 -1.0936768365844003 -0.24976133196268593
Ni -0.14190964022398822 2.3754421355461046 5.452102790696645 2.795578722098598 1.7589970878652934 0.2780015577553019
Ni 6.960420090390171 8.91196833965718 2.3021320878641958 -0.5020600856352451 0.15566255580404806 -1.5323366035861288
Ni 6.9939760810324945 1.0302367025994201 10.658960625766188 0.41990434077109623 0.3063027186928402 3.8359743307613554
Ni 5.5546180368559455 6.881934473668956 1.9115051437109492 -0.5367594367896432 -0.9400917321346712 -1.5556585661415208
Ni 0.9098409340414558 3.48876851755588 2.0408868374846914 3.018280993060963 -0.7936293547726525 1.2278316002236596
Ni 2.6147969038146655 2.3342032918274245 4.1908438259225065 1.4288093350247393 0.9865176276973785 0.3234715171626429
Ni 3.579644617914945 6.802761542885763 5.577255149173942 -1.8290442223913659 1.3255939412768138 -1.5932725198395528
Ni 1.9963366464290566 6.76539237148863 2.5926597418623 -0.3420526225989399 1.1650216068759742 -0.8858738513313711
Ni 9.21272944096986 5.437228561174551 1.6914761404234302 -1.287248508729396 1.2652853741947434 -0.6996388220571047
Ni 3.6091520462743847 4.032848212069896 5.699319302002899 -0.7569649094720834 -0.5762513242366786 0.6176558553253944
Ni 3.3596193807318753 6.976040008593205 8.464369650448743 1.53533039610713 1.0496829475019536 -1.6470556270982797
Ni 6.786011793347971 8.058032401585683 4.725474364373494 0.8116432748515701 -1.9065100179790133 -0.10577981204099203
Ni 9.185142725879508 9.253346877454423 6.3739284106215495 0.763340473981124 0.4959835404238619 -0.5184362130004233
Ni 2.7210575408486903 7.939061162035625 11.793042009395474 0.015981463029920866 1.141838998111924 0.08425942147071294
Ni 1.0262728776666428 1.5196608062945 8.793977228790029 -0.0006234925166118295 -0.28814147440278115 -0.26625264474948984
Ni 2.1932662480774403 -0.07312456703778633 6.681296200664228 0.4433502304988623 0.5842423128619552 2.2602840427799396
Ni 2.927910827720702 4.785673660941645 3.45462407309337 -0.32350956948942994 -0.5235758482198338 0.1842802195407407
Ni 3.1041174396373927 5.096038328599769 1.053714597735699 -1.7690778691400628 1.1080850415899304 -0.7737765817127835
Ni 6.097662052646434 1.7398931792222754 13.724100767406643 3.9901628731230376 2.1217738303854623 -0.07070148028062016
Ni 1.6525572170454537 5.537811795751415 7.467014805795242 0.9676626997744043 1.3647513282025658 -1.8973967428238356
P 7.747884284933387 5.708557556216773 5.474992232012737 -1.8739287416088823 -2.1723312316180396 -2.568594793041744
P 6.609645121992189 1.8923921636312866 2.752385880709315 -1.056360102411813 -0.6914164341473125 -1.4299331642165374
P 5.314820751314604 9.311674420111324 0.6842550436391505 -0.7576745339445984 -2.030203219965317 1.498888608340328
P 1.4733471368305302 7.755670705882095 5.382995715580037 0.32559987635955534 -0.3313488630281906 -0.15671490832796237
P 4.786502203920467 4.590071611111601 2.0763983778622594 0.7208169987966166 -0.09597748123858955 2.032995437998473
P 6.975333864008982 9.041861282109902 6.588693341415207 0.5675553391245773 1.3577952085997067 1.720200940933702
P 7.22823719303352 5.8856868637235165 10.52414915090282 1.9888120586130396 -0.5917131673177035 -0.6213513018991106
P 4.500344172609541 1.5997846784511147 5.554834587861774 -1.2126281530103438 0.09164440108087443 -0.6413817381874245
