# total energy = -340862.5376331728 ev
CRYSTAL
PRIMVEC
9.31669903012074 0.00000000000000 0.00000000000000
0.00000000000000 9.31669903012074 0.00000000000000
0.00000000000000 0.00000000000000 13.63593077695379
PRIMCOORD
 96 1
Ni 8.241645298812813 4.676219040130147 10.41494706798953 0.22561558795441788 -0.26540726603005904 -0.6259080680318575
Ni 3.446172508640496 2.0001928392815183 2.740385959074512 0.04172977563861845 -2.392078790827455 0.950072754606783
Ni 2.074987300636092 6.84002243444999 13.152646091008405 -1.0782548456023753 -0.8822100293265386 -1.0727079476422172
Ni 6.541021606316915 6.335187770404285 11.01406859150217 0.7160974818337603 1.1729359766270444 -0.08541538945202709
Ni 4.023369975543821 7.294546922696655 0.41756048408320284 1.8546372403691218 1.731666261260824 1.2833229484227444
Ni 8.283113927050133 1.634531028214715 7.223756778667716 0.5042743196777444 1.8575646984285623 1.3170740767312608
Ni 4.433891693364769 5.181547489234621 13.229607616602026 -0.9132116199143756 -2.1862830658124413 -0.6619197102397761
Ni 1.70008332394102 7.865725801902539 11.034304462212452 0.16876566884490934 -0.5877734659436652 -0.08392363539784901
Ni 7.996271391401826 1.6913535767699643 5.035762574817834 0.4067960855239123 0.9089538730792862 -1.615788441553882
Ni 1.4471069899648448 2.6719268531909295 7.473813259107702 0.423270943250484 0.039033716863694064 1.243170030352943
Ni 6.094770346979426 2.9457912268229283 5.981251025308424 -0.16976685641591407 -0.08907895434654335 -0.9865819052764104
Ni 7.122858789432819 8.832137695505995 4.931366165025059 -0.4019019906564046 -1.0901294855527741 1.6286925512100594
Ni 9.016897157778361 7.849076860392745 3.6182538066115026 0.3469017231611251 0.7134104219199005 -1.4186159394315052
Ni 8.920851305498305 4.570977605717933 12.771385330434132 -0.07957692839337907 -0.43650106878751277 -1.9679233880894884
Ni 4.788662283041003 5.0976226626424435 9.305854584150072 -0.9073142805933342 0.808296212756208 0.5081947377780731
Ni 5.030467894649947 1.6705400707079168 11.386588424866321 0.5527995209716414 1.0391781913158875 -0.06544768808084857
Ni 5.92399525023935 0.8058124957536981 7.125415291699348 0.13646464271935851 -0.15370646051894174 0.4068727043981187
Ni 3.379464942210657 1.1699817716051302 7.561832775007967 0.6454134850546369 0.36743326745557364 -2.0979813559515548
Ni 3.1949383974188432 2.827264179320078 9.495653449031641 -0.8961302389520566 0.5376721784118997 1.1700154605461397
Ni 1.7518748549163656 2.0742326479991062 1.3264520083596794 -2.7612550091160637 -0.2646189658008088 -1.1042710671604787
Ni 4.7551407992400865 9.034962237569905 2.348939251240778 -0.13134763320776735 1.1123906109438197 -1.0452997308325933
Ni 7.091163378679423 4.1719247446393215 3.957419856760734 0.969213332090976 -0.9667646134401674 0.2202900619764464
Ni 5.571302284489632 5.595153034498066 1.567149864431122 -0.28100152092389025 -1.488371253748772 0.6790193460345403
Ni 0.9106113869528659 9.171386664278304 13.230561646602364 -0.0012894082353848762 -0.754122812037598 0.17123418499005993
P 0.24781488260716253 4.974185714649576 2.767875811799077 2.0735677029938806 -2.910817365559645 0.745642799591045
P 6.87465260545833 3.551153075474494 13.287778291534705 -0.6006585494364494 -0.5248894248249347 0.15266336396640806
P 3.810259797538774 6.339408235151871 2.421018826442048 -1.8826427244431125 1.1538234241673095 -0.12336924298798109
P 6.198567693012223 6.021718108379375 3.6793284966916935 -0.9146092715928508 0.6078126439827274 0.6460575463965389
P 4.177691781457766 7.572659711173905 9.195485238486045 0.16009539476442106 0.6950355189571386 2.9400394956495557
P 7.815937361259933 8.142767169969256 10.207094303355484 1.726763167532252 -0.3295472910430776 0.23466921351625392
P 7.286562511463362 0.33983405748345197 3.043403216242211 -0.5116667554870736 0.13224186288726258 -1.0441679312209953
P 4.557757209521851 9.076691733385442 5.786680147085324 0.7746857237906142 -0.322627938215425 0.9599085097502823
Ni 9.329928934939835 6.731212704235732 9.270646777789965 -0.43662088219482864 0.19783790362051734 0.10393170308865973
Ni 5.66001589448194 5.3045465523640525 6.858641857845245 0.27608454323824705 1.0375576249933292 -1.758672614646339
Ni 7.351024753380689 8.946500178456592 12.160127874514856 0.1683938873277874 -0.735093820430605 -1.1333366170678676
Ni 0.6013463512868643 5.556572583019579 6.958633332245839 0.6829883579846173 0.8769765488417413 1.114790478634564
Ni 5.826533259677541 4.205902746702117 11.486458782177028 0.13559149608578583 -1.3519505768934716 -0.12740124696550964
Ni 4.904403637476462 8.718967750055821 11.13973782062864 0.4569215414253937 0.22153781834061845 0.2494263172207704
Ni 0.8760818362961246 0.6599213709657804 10.51057553214444 -0.5419396954390021 -0.6881218225564407 1.2711282061287656
Ni 1.8476598396182053 3.463799703568604 4.21512534726202 0.32398830889806135 -0.050656131593970824 -0.2434140495884195
Ni 0.7100181943526361 5.901010953258566 1.036513533559887 -0.1446939726076863 0.587091352274976 -0.7573963405825472
Ni 2.8095810841966373 4.269274934810464 2.2733006969366873 -0.38667360374242443 1.737224472074892 -0.9908663915843775
Ni 4.5971388971334335 3.419163397595789 7.727577785838062 0.6031041827634644 -2.3806178413757064 -0.46107413014118653
Ni 4.362059942362806 7.3232982564958835 7.207721807636655 0.9299381886404372 -0.7551299131458737 -2.193095203638268
Ni 3.0866410856617974 0.25955951364647184 9.585418914366118 -0.4930853929404605 -1.012955510173933 1.5659859162094578
Ni 3.563777202920364 1.3476605424687416 5.011954681625822 -2.1261256795962544 2.4064345453284943 1.1285425381133338
Ni 6.702489320534168 7.615600377888309 1.817778390203342 -0.8141727261416429 4.484418118001884 -1.0088412308952432
Ni 8.71518517017167 3.424315532265579 0.8936689694175779 1.1730159379353606 -0.0941118887847605 2.6060071722519313
Ni 4.054394583953229 6.5901671947132 11.315299837429004 -0.8820524207027518 -0.8134767285158829 -0.37595107511859766
Ni 0.4318998158558516 7.829726076108558 5.822323974969022 0.09090238070852732 -1.0883947622498544 0.08922525011642052
Ni 6.639480483695482 2.568949376689671 1.703619011295786 -0.252166598970069 -0.802411986061289 -0.451019574118662
Ni 2.535418576189533 1.8113247126522318 11.93378518860474 0.49562281465033353 -0.925154908319181 0.5269308807349958
Ni 8.862957336532519 1.6088914719556482 2.310390476539647 -0.07000471132391169 -0.9956494147953174 1.275871377240706
Ni 7.9743678315308 1.3846385216810364 13.50344404013636 -1.900686983539333 -0.7448028201882527 2.2515746879313996
Ni 0.9881850196853753 0.7853148257952778 5.997054942198778 0.2658042443581616 0.49669625022017044 -0.3009851631346687
Ni 7.812257265067225 2.3464479658688036 11.44178707274717 0.012532328139055837 1.0199555956408497 -0.074870009836013
P 3.6385064473803834 3.0726660368287306 0.6804059975452899 0.6742759178122839 0.6558981866360446 -0.6740488894031424
P 0.8480497516768369 0.2852363367024266 8.410587800815915 -0.5526599100699837 1.1026612994711977 -0.9068170292419415
P 3.0696940097768985 8.775641231423519 12.593764323105699 0.22875696179687702 0.8613853792717037 -0.6089963798781833
P 2.5247230054826253 6.575912644903472 6.091661364449029 -1.331544502433294 -0.025149759792750234 -0.8098190771586377
P 6.763942268602775 3.915613032341654 8.06334883079078 0.18961114483535085 -1.2208968207770392 0.9033087589783667
P 1.2691207680269063 4.542561673090696 8.84047427796988 -1.450880713002482 -1.19035828586855 0.7876607958940435
P 0.4511024646224076 3.220885404752237 5.738736412888683 -1.2152653335228747 -0.720689729190133 -0.35505854794030467
P 8.870876530871257 7.804449871119152 0.8064534846601746 -0.46847170815683836 -0.42291870211738775 -0.09828504632584363
Ni 3.8540482838823835 5.642761367522714 4.4964207201935205 0.7739467887420606 -0.2822559621562816 0.9054936824448276
Ni 6.888944422064946 5.968370688633947 8.840337322491317 1.4273623181655675 0.5012514736910205 -1.7480971531233376
Ni 2.2941067496393575 8.355849397876636 1.9314206923040746 -0.27708933035367767 -0.28749535617835004 -0.7635808721267042
Ni 2.568502175127013 8.61656790890633 4.322644714634024 -0.4303964985516716 -0.2153178055728356 1.1139137324565653
Ni 1.8172501333574522 6.399538211930946 3.6102218802121784 0.15751349296985775 0.17809851621006104 -0.5841168430276844
Ni 8.063789510663982 4.354168698121734 6.317568028835554 -2.1045235279454464 -0.9225184991375983 0.26796859899933206
Ni 5.719065134151259 0.15562614380503187 0.09775919326699106 0.9603659090026752 -1.0938809821754063 -0.15528280386712612
Ni 8.117230097401631 8.743591786099685 7.4473184298600525 0.4544106020780819 -1.3385643853945528 0.7535412285025151
Ni 9.271503914118393 5.478526593636513 4.725286368252967 -0.5994125928444903 0.3640782349404117 0.2014209929860854
Ni 7.8431421229883025 5.947659666263343 2.3410983171755055 1.6219585749203358 -1.949055604650708 0.8375211710595964
Ni 7.1690603008749365 1.255891055131603 9.499962422421838 -0.935584331182621 -0.6824353136946246 -0.4147634200001051
Ni 5.560364479602952 1.3905639423862566 3.9724737793637135 1.901832409997686 -0.6016173138052929 -0.0798209260833851
Ni 2.418074749487882 6.447808030600359 9.172345352628252 -0.3718334534057984 -0.4606203304332196 0.19059459179454272
Ni 8.80618137147338 6.808494724282591 12.327044926107083 0.6384859046968681 2.5674036009471206 -0.9379116937642169
Ni 9.282115634532301 2.3357523951618964 9.43880481371857 -0.4109833841323825 1.6858345476386902 -1.1387603591866002
Ni 6.201204318892063 8.312014328036916 8.973860529061971 -1.0437804659745895 0.3871610849018042 -1.2271296890606285
Ni 1.7850982043421764 3.959401518685263 13.296505243695995 1.5485034431539784 0.2726361796783304 1.630029010633296
Ni 1.0163959849297262 3.5471189447113485 11.23134333405947 0.7161111086805151 -2.379378826762283 -2.6868614246958376
Ni 4.881670891374674 7.797490296800285 4.138695805193977 1.0059605669133385 -1.482955996270472 0.698853607151648
Ni 3.7216114044410205 0.9311193052804304 0.5894945782065015 -1.0030593341061433 -0.5026128728149215 -0.9751986031401334
Ni 7.3629873951817935 5.754813309066243 0.0405872684909148 -2.332145861917248 0.7381063820046836 0.49846568341576725
Ni 5.029033122969752 3.4159305029657396 3.1013018435576067 -0.007483967081870981 2.980608932431486 0.8685469300171493
Ni 2.2828708103775717 8.311492592880482 7.420455590993131 -0.7764240466379596 0.34597586891274607 0.41813927845087345
Ni 2.8091338826339793 4.7543209297085465 7.395419756843653 1.2783982574276176 0.5884003008943867 -0.90055176505852
P 7.909868322816585 6.621033419235833 6.754681469576062 0.210409826748257 0.11714383090355954 0.0075770410163095315
P 1.371408808785733 0.6245952425255542 3.1517135713781674 -0.01892383348769644 0.8995554625835217 -0.20616082166391592
P 3.9876963342226124 3.7160213849077937 5.375979548639313 0.4327110056174612 -1.7741383143821057 0.6938425270903018
P 0.9423468595129162 5.550050893564148 11.42313317756479 0.7577894622559078 3.1585907205580246 -0.544190953367024
P 3.607696123053082 4.427547021194557 11.049195342579045 0.5503741993596005 -0.8528647433952021 0.6909888596915906
P 4.939658027332679 1.4529206102794008 9.191940234432057 0.38524509882601393 0.06572896676669325 -0.1488596739496017
P 0.458646195982497 1.8903582721528356 12.82663894684039 2.0973192968875236 1.9177025442607234 -0.9205809157952533
P 5.83555182452448 7.167597579097076 12.752050384538624 -0.44400869001846754 1.157781123263477 1.8529176865748542
