# total energy = -340868.4135995397 ev
CRYSTAL
PRIMVEC
9.26348133908598 0.00000000000000 0.00000000000000
0.00000000000000 9.26348133908598 0.00000000000000
0.00000000000000 0.00000000000000 13.55804130679658
PRIMCOORD
 96 1
Ni 5.60650909221879 5.80444190052615 11.629247712340835 1.478273503193138 -0.12216570959818315 0.12821294423352758
Ni 9.201823725149376 6.7843422326065035 10.310077003611774 -0.5604855767619895 0.5256314451972819 -0.43328770405653766
Ni 5.217526242327164 5.942875367430498 4.661932267633061 1.4132374487284112 1.1367746962151393 -0.5375104560230549
Ni 8.832099653208376 8.135207943143195 12.944770462071839 0.3185985053410577 0.7886689254435837 -0.7188979273970328
Ni 1.2742196649554156 6.06809910977612 4.220781195564071 -0.308799516972765 -0.33654891917189134 -0.5573130925712789
Ni 8.7561113148106 7.984435518937147 4.799017897985308 0.9910839069118221 -0.4924930107721002 0.29900027149415603
Ni 0.8865096174160817 8.927513512223015 8.212621004989169 -0.26548028535983953 0.1508885314541724 -0.0025747027057116947
Ni 1.3269751918571993 0.2907065751065469 2.0146163893386895 -0.4135606579412555 -0.2264018313011391 0.5085109834669114
Ni 3.302588618866254 6.268922124298292 12.472950781940737 -0.9318341201115695 -0.9522517645359729 -0.864279412990047
Ni 4.24726919444431 2.442780060403939 2.174642105172865 -0.38928404478207795 -0.09763764254983184 -0.4112217253954338
Ni 6.459786896253404 8.096903447315473 3.853372067639357 -1.3173697535948088 0.5064553864894632 3.1351725987444006
Ni 8.138459425134858 6.201937889877432 3.630789135172971 -0.6742826026805032 -1.294319042422932 -0.8148527829278032
Ni 3.984316009785128 5.182287958861951 2.1894470012386122 1.4354191270317729 1.4263500748509694 0.49161472193220496
Ni 3.501429248356472 7.716146568958313 7.138132190092061 2.0834605366275607 -0.4272957481391609 1.7163741109884443
Ni 2.9491219568835723 4.348296723222336 3.943193562897964 -0.7415177216790778 -0.7403231871503443 1.5233148597034925
Ni 8.560373951608721 3.135521730776057 6.168216964674996 0.1866579757442979 1.04989969149845 -1.5623879144455544
Ni 1.9017371623836417 2.7001844196699394 1.9885035614574889 -0.21387850202314776 0.46901601069608256 -0.4920271268792752
Ni 8.724948963186788 0.9413735126976456 4.173490196374203 -0.1327833372130294 0.9928463981288835 0.2375416499680425
Ni 7.01737437215721 3.4796693304122597 11.551925432613144 -2.9616928122532737 0.9547061396137364 0.1139849735596037
Ni 1.61354099075214 5.8644785238537125 1.1448792314499776 1.9628241191897098 0.7050268258418955 0.6802051388125253
Ni 5.221861551649383 3.7801025610494254 4.038683382460557 0.29540484083341384 -1.2593965195141343 -0.17645789528284447
Ni 2.6303470329600973 8.217087855748087 4.114893118065173 -0.1536036163924903 -0.13161631348812172 -1.6922543351221049
Ni 9.268020563646331 4.493140519295434 2.064022241345358 -0.42185992183557025 -0.07680579340614514 0.5923585142111862
Ni 8.719196341201537 2.2345925781228693 2.0840878685309514 1.2896249793813725 -1.8509736754746058 -0.321822154484678
P 3.8687633420813787 2.2345555241970385 4.895171909168421 -0.8822213421804485 1.1937727108667375 0.14891161023345967
P 3.5499235737876993 0.34972328912561196 8.360782980120428 -1.4083605802520842 0.17718885991159805 -2.4939232723697824
P 4.168057164499243 8.061998649182739 2.247868999748091 0.017270099934357352 -0.12879221377576527 0.678932956968321
P 2.774144055628472 1.1547392811135877 0.4719011987679314 0.503789666731842 -0.07029807419461441 1.1158158345752849
P 6.862238848184573 7.012159032096507 5.86674066602569 -0.01579608649199215 0.835579216841877 -1.2256916710625212
P 6.66484332180176 2.1973904365886177 6.47681224882457 -0.4065703426663514 -0.7646126558253283 0.543812744091999
P 0.8480355998776833 3.6318590672813396 3.7416266908147353 -0.2312769000052533 -0.919018713514456 1.641126148987722
P 5.096887923303119 7.837590810869179 11.624176882590872 -0.5098713541495478 0.062022978670015765 0.4855435760374606
Ni 7.567449164598797 3.385728364949399 3.9524940982815275 0.9423874701473833 0.2727927598608528 0.12339598246085845
Ni 7.599037636369664 5.1504493730917265 9.83216936346665 -1.0486599055540777 0.19939676346720497 1.1498323007300455
Ni 1.8670732147688085 1.4273264864888107 4.206328311793717 -0.2246424254078712 1.025438730242608 -0.4208222245996753
Ni 6.606826137431984 0.7045905895047027 8.475498229100397 -0.6357589926840083 0.3114395256987733 0.6012668724444097
Ni 4.859400049171244 4.383210784836527 9.892340307275347 0.5343066043737765 -0.021808354124343083 -0.27123827088953933
Ni 1.939337633620576 1.7969301331708616 7.596556876035282 -0.3638666331502379 -0.09325905386616197 0.29168445455903314
Ni 6.482195257899658 0.7641649651075231 11.149143700742082 -0.5514630615484051 1.3893146193642265 -0.08684209459622463
Ni 7.7549142388589205 6.038613448296159 7.619754486301735 1.3511982721084794 -0.6746356151445478 0.13303839064662895
Ni 7.113547836651384 7.616814257287051 11.053071208195794 0.4927339231383127 -0.2009365971504991 -0.4559144403171181
Ni 6.500388735482643 4.551759829959963 6.176989481615469 -0.23210890898824543 -0.009227689245855077 -0.09000840813934821
Ni 4.682198912366287 8.87995479841902 9.864329392043457 1.1420385157172397 2.57778057330607 0.4875467225104184
Ni 8.683467093219065 6.313025559518555 0.9040389033785481 -1.8349875844589947 1.167708409679518 -0.6061360276112528
Ni 2.48341895355901 3.037023132435992 11.377311586179333 0.21903124986868086 -1.1539170123223805 -1.198440291545736
Ni 0.8407193022223665 6.035315648897207 12.365218345283603 -0.9741331379900964 0.9340699514206235 1.2890505949351412
Ni 2.143199070060885 7.884584452304254 10.361244769791702 0.8286169265914309 2.9502801995409578 0.5066872999946113
Ni 2.172888528132916 1.133637070352874 10.018254178989569 -0.12157024210602935 -1.1311367812030713 0.041305800727322414
Ni 4.30825069288056 4.045751418812808 12.209247255283477 0.7387352738379342 -0.34615353214119093 0.5918412082551356
Ni -0.05532521665815884 4.017321794219027 8.407341237926989 0.769036753034953 1.2239708317166726 -0.6658637824891886
Ni 1.5227773994292817 6.530198618813626 8.635645296541668 0.5693188587829033 -0.8973661682416868 -1.5953818528730717
Ni 0.7667893094044986 1.7816175983212303 -0.1940819790653813 1.8293725522650623 -2.193469299148235 2.14668730579769
Ni 5.553920307983246 5.09370128568166 0.371072834841247 1.035471688998578 -0.1094983985431598 0.5308014194339955
Ni 8.008937427392848 9.243453810820425 6.584774419821853 -1.472942577898528 -0.2224024803337589 0.6484360739310446
Ni 8.738464382633621 2.1746671165728007 11.752706761468758 0.36358072647870293 -2.070351510049428 -1.8346659394535174
Ni 6.716663237076313 3.3979376335106903 8.405118002377133 -1.3648112349062238 0.683137739078288 -1.0746745844502845
P 2.022477379703721 5.8807729877378625 10.651129674092948 0.9828427499489524 -2.0634619820184463 -0.23069557358048656
P 3.341309971359574 6.527002717710707 5.218652681672424 -1.4212616045844684 -0.3918222378228994 -0.14421908985379678
P 3.268184048732237 4.333502943334338 0.488273475896327 0.5132225300099678 -0.009464487847009507 0.10788297442692389
P 1.781460119136449 3.149824546146795 9.237188918310562 0.36612200484331786 -0.11627634069694168 0.31490074477449637
P 6.638775884979703 1.3208890845394694 3.4708041786572106 -0.12319183686985236 -0.18155562152072605 -0.716038860681683
P 7.958534824781328 5.315237444743321 12.30746146474279 -0.4813771033645967 0.9967917559298769 -0.44425371614973813
P 5.405417436734343 5.486278366378886 8.013141195278369 0.19629935548880384 -0.6386723096760613 0.349924569147849
P 0.9760837777197675 5.4020733199281015 6.897856934389552 -0.20107132295615046 -1.2343411192074032 -0.9055895845927437
Ni 1.9521212380322464 8.153447738133469 0.0800966924242801 0.1781566231415061 -0.18613629891287298 -0.059281925589768865
Ni 4.2549856744986005 6.810752418242498 9.472922289054344 -0.7465475707935014 -2.5722246764848475 -0.10605363452766897
Ni 5.461850565774847 9.030810593958186 6.222679751209441 0.4212503132760294 0.4446946603418987 -0.1362324721038944
Ni 5.188457437512801 1.8746229521568598 13.38851160355641 -0.2191649472330677 0.5507840332035095 -0.7042308123031613
Ni 4.061119534551184 2.4720063444030838 8.848723897032421 -0.7154613909116582 -1.0110693488948135 1.6797132652323008
Ni 7.883370936233291 8.699863455399251 2.3328234618488057 1.6129298890591641 1.397295066466542 -1.8713761503903579
Ni 0.5104539558987206 4.096682039867418 10.78543533365973 -0.6558567918751479 1.4488479988431695 -0.15798014819363115
Ni 3.4256447065507665 5.0707463786294 6.940524529983866 -0.9078097321725139 1.7003116582089426 0.2929476375421729
Ni 1.6399511763881343 3.3376231057393966 5.917203481266686 0.7819470333387178 1.471263390423892 -0.7968285784362406
Ni 6.134786912790333 7.634952153981291 8.0194459207585 -1.208031791888913 -0.2094862864927231 0.4294243644463895
Ni 1.4589149582596768 3.9568497872629527 13.144643043396448 -1.0352035229388559 0.1072769654118088 0.6903429985774756
Ni 6.520601652023415 8.765661964193521 13.199634774722128 1.6507582727608474 -0.20934024783316202 -0.8353066799067808
Ni 8.605320363641637 1.850528636885299 7.937854102426941 1.2088725426226536 -1.5276643949214401 1.321149275241899
Ni 8.721790116009702 0.02997755234536666 10.591609953030728 0.8054831687874451 0.07292085652944216 -1.3954901520473193
Ni 4.582625750177126 0.4378773577218274 4.048715732879281 0.6063471151807944 -0.31601686065681056 -1.6466465645853188
Ni 3.0506311866974003 0.4483080378432337 5.9656329623277085 0.09501640287690087 0.03679634289274308 1.0344108518342314
Ni 1.5224068601709722 7.4635777470132485 6.260439554327448 -1.8598462953738875 -0.03652509150922742 -0.6555749989686709
Ni 3.5493121840114896 0.16565328081974745 12.215334288949354 0.5134858109736834 0.5925462047419602 -0.43220964050101046
Ni 8.357438863314187 3.5154263688391056 0.03610719802594795 -0.3809318161626407 1.3923392651231634 0.6203560278653767
Ni 6.220733493755171 7.068184567952872 1.8797817849806708 -0.4908714160082771 -0.9729820551047887 -1.0372619481297813
Ni 4.530574247866129 3.1715103562393456 6.812346663401374 0.9386786538372286 -1.3817190664051557 -1.844365940350101
Ni 6.614227659116712 2.9272879310876982 1.7758862823433315 -1.7736539185465197 0.08484306188832484 -0.1976468706556338
Ni 5.714150746757637 0.3030140365712897 1.504901659260296 -0.8713869705691057 0.611903012002017 2.8466876249592716
Ni 4.6745102227563695 7.513517175551881 0.13672342822725028 -0.9374152137437727 0.33159517471104183 1.7046082287017674
P 6.529105528001613 5.133163716691598 2.735117934595193 -1.0254531284203112 -1.659391265845497 -0.8501206049911617
P 7.7159520358477 2.3168800839119035 9.851991361089903 0.281768738107218 -1.1583279969058826 0.6562704823737987
P 8.140645606758882 8.087000785637157 8.606169824891312 0.5390706014213232 0.3697390327706149 1.346740750557758
P 0.7051362085625629 0.38538306099715147 5.995541964910288 1.663329681667955 0.3605491387412307 -0.4394334119429594
P 1.3060304602812673 0.052088556236827274 11.785327185074014 -1.051725174742963 0.35665314612093413 1.0673646810524327
P 7.404689795386445 1.5080299369485721 0.04553834849806494 0.029873904741296937 -0.06694124190723956 0.02068503915317728
P 4.6230979006659565 2.1693869321418937 11.190102184007442 0.08072029796920291 -0.39778925403961174 -0.6036873089604441
P 0.3732062146209627 7.562307932389756 2.6289176777711694 1.614084828599214 -0.6809877826148207 -0.2504041077530075
