# total energy = -340872.9521757783 ev
CRYSTAL
PRIMVEC
9.26152368777719 0.00000000000000 0.00000000000000
0.00000000000000 9.26152368777719 0.00000000000000
0.00000000000000 0.00000000000000 13.55517608622455
PRIMCOORD
 96 1
Ni 4.510223022651242 3.517545149129823 12.644159742945833 1.3391403125026808 -2.1509591937001664 0.454910681642952
Ni 2.2042981626315625 1.0138497162471303 6.192343524103695 0.20490586621089227 -1.2969562229354632 0.28821346529129716
Ni 2.19058184632501 3.627896201656881 10.293407256871479 1.250884111167749 -0.010718157748452509 -0.6392106986780346
Ni 2.683128189211625 9.201823721566848 4.022755699253157 0.31739522906157597 0.8427099143493874 0.0060840014105508124
Ni 0.963513336013428 2.198194818643704 7.916981827649408 0.6539426055715706 1.2116043397315197 1.3152437083907413
Ni 7.691584130179748 -0.030247209605381457 2.7765612167574685 1.947080226091892 -1.6365061337172075 -0.18576837405049298
Ni 1.4704613479457482 5.148054884714689 0.39675625760949734 -0.6437368686831623 -0.1041286495908142 0.8113278004936803
Ni 9.151089095822558 2.7527007537591084 10.620303842704928 0.00475396974521762 1.0297676966352651 0.4130873178492628
Ni 7.5383059162206365 1.5571769924955468 6.497755227717064 0.28804685780644584 -0.26266364184665086 0.8089032502125876
Ni 1.5160836127169015 7.906794151797142 5.742039916062329 -0.8865014576130409 -0.6742491783394066 -0.5393199984279679
Ni 2.40842214061699 6.535959012163065 9.524395175924836 0.05139506664252439 1.367981405104089 0.31429884952443937
Ni 5.138617392266089 1.038976229508222 8.911674082532526 -0.1822588182353377 -1.4977866335254013 -0.43271820470631284
Ni 6.490484931767945 4.0611965787008115 2.7972866540503807 1.293845188110307 0.9350210024799832 1.1568408708373947
Ni 9.124351077472106 7.241122150086499 10.60898533483306 -3.172046588952614 0.4535521107325285 0.28420897211759444
Ni 2.20181607433301 0.796937426610057 0.3623376578187876 -0.05012725567369432 0.0420943580668888 -1.1735941790363336
Ni 2.8313959189561215 3.063332252018239 5.85419603951994 1.26377870774223 1.8024029656547538 -0.25456800932270995
Ni 6.079115842376895 7.276278893300321 3.6781427451126136 0.5943202659232475 -0.7207910306546877 2.0647663026521665
Ni 2.864200235200422 4.840248151123688 7.91954356505008 -0.27556903705440927 -0.8106099484910492 -0.13544211499211511
Ni 4.270479225276887 8.303076219403334 -0.025501604962925334 -0.9934490647098891 -0.6738725117262782 -0.45867837621550045
Ni 4.468666566697493 5.0656921562108606 5.861135699080035 -0.2594993851860563 -0.49676978377058323 -0.1450744958755566
Ni 1.9039376939362178 5.313002618286398 5.707474984200288 -1.659547588917703 -2.055643514415292 -1.5000399483359521
Ni 1.3026240190413965 5.823432963055494 11.600072078616824 1.2629649535916831 -1.0649293321380626 1.2869852277656801
Ni 6.124497307536995 1.4366660486867273 3.036413633959498 -0.9296224571722311 3.8035339508444626 -0.32802365530969957
Ni 5.609834446527458 0.993955963764703 11.415247263304991 -0.8497704207405946 -2.3201843186799977 0.14951916191047152
P 3.0738811272870867 6.667861629879419 6.548600065591028 2.3482196275506593 2.293633821884979 1.8809126291258833
P 8.062591500148814 7.840027828870784 1.1066094310343737 -1.2829092579240937 0.6666500258359099 0.05553222873934952
P 6.8008385843220145 8.019016032071617 10.679133039990022 -0.17434187738110618 -0.5987199376528399 -0.7868724956647932
P 2.54448318238577 6.892388744139888 13.312388851295395 -0.1385680622156065 1.236160174694013 -0.0942180753453216
P 5.94904700631395 5.431531596065778 7.872480207222005 -0.6498699781640936 -0.7100849570910931 -0.43942749840568834
P 0.32160177284732183 0.4028660846638071 6.842734012035938 -1.013929444051428 -0.2925277763959349 2.7563753124262593
P 3.4014149059374783 8.860999656690998 10.006579726317346 -0.08016648234826193 -0.7396107344643521 -0.5892179116996755
P 0.30618318852109044 7.268971551257196 8.584642278455945 0.9331597809015285 0.3461049382914427 -0.484310732071624
Ni 0.275261740004759 4.058093968327621 3.712979965765616 0.18134993326782314 -0.8851138332368951 -1.0983436459324505
Ni 8.932452310509401 5.662338023260642 5.132965084472782 -1.1133156938612503 0.9746825827356632 0.5893678070139785
Ni 2.473604743024496 7.839657367930701 1.9268006908534059 0.2363738549121865 0.9119643777708357 -1.7627732670782739
Ni 8.064165959144164 7.835452636260766 5.488897472637543 -1.2032816787984373 0.2722407440121247 0.0244290795766418
Ni 4.514816738308264 5.359430635602231 9.701737606399353 0.7693704822252878 -1.2015785800644014 -1.1945363285056394
Ni 4.471537638983133 3.311216928550905 3.3372844125998062 -0.08843077923958317 -1.542458265401163 0.9697537779754783
Ni 1.6077541723403026 8.434839914267158 11.273555215246958 1.472209556387245 -0.6381208080479656 1.5365028191486765
Ni 9.107847042591434 3.288470626829843 13.176593615251125 0.024713700696596147 -0.10148426998943168 0.1347466315869873
Ni 4.859123136020889 7.674487357794942 8.841377266847182 0.8225609502053381 0.31077052465620675 -1.0541720936215586
Ni 7.850947165079713 6.623758254962605 7.43982628451852 1.6300470083554248 -0.9280882799158919 1.2109731339054242
Ni 4.606950374106768 7.200797476758523 11.038684831539388 -0.1147907572903507 1.0242403390591328 2.169097298061774
Ni 0.5473162144207542 5.039102322236443 9.439783749514707 -1.1663860913236686 0.23324662213711442 -0.8069620673258168
Ni 6.837708709383719 8.02824050947967 12.824294522756222 -0.29438282732680265 0.04273764807784253 -0.10633645587541041
Ni 3.044772158920108 6.86539140313138 3.963424527394253 1.4063432927117392 -0.7307435138817092 1.4998288607664105
Ni 5.738764115199651 7.104570247572108 1.5102905297663622 0.9377291454397657 -0.06628355371858262 -1.985616434493877
Ni 7.966419840103412 3.6315637649636976 8.677400140938488 -0.36112763695252 -0.6753287845568304 0.1601784413965306
Ni 8.22815049427166 0.8327711871918817 0.15003019766693892 0.574408614600985 -0.40373415876913693 -0.09819994281120507
Ni 8.206663759746878 5.795305716179734 1.905220414941253 0.3633444420981807 0.18567092924068024 0.9235184011570223
Ni 7.435827158670329 4.175928331844345 6.4632838372423915 -0.06925960562777105 0.6601911575844437 -0.4087794345025283
Ni 3.8346874984109025 1.111679188999402 2.0820340124238026 0.4151138613609883 -0.23632654661401878 -0.10948554302735339
Ni 0.904698957165939 0.5647037986435238 2.389222076244867 -0.5277628897179878 -0.3463350520243777 -0.3028355860798462
Ni 1.1679244212274194 6.197061344175644 2.830144687130993 -0.9801598038001508 -0.8604530972654213 0.45734783032953497
Ni 4.9324188330162 3.035482850847541 10.378669768383803 -0.38963525747390965 0.26439013761945435 0.09314412555485249
Ni 7.04059164321987 5.771855538672515 9.653792551533883 0.6353465877369381 1.0473355303156995 0.7675974494852651
P 3.4376645089245454 2.423777746583407 8.714948209520545 -1.5015018775934592 1.1920428726598247 -0.015818455089495337
P 4.034384468162345 1.2637348818562417 5.186264226074793 1.4732613946905273 0.5508855917783803 -0.5893351540038302
P 7.902728342979737 1.9948210240619435 4.383743953097694 -0.8575752614969941 0.7129941603180882 -1.0396556451729384
P 6.458690121585369 5.051957316857304 0.9012416304426196 -1.1097534304312888 -0.35135770204994976 -1.8334593207399261
P 0.850822822649749 3.362470199611311 1.74640844068966 1.3482469027896393 0.42992007313588537 -0.9678215939497717
P 4.414375515928411 1.169526664793276 13.191056410351944 -0.5801074647579751 1.5613934117427688 1.1516572697539262
P 9.227116942250976 7.826144805141194 3.6821279786755508 0.833621321784558 -1.167494236786183 -0.4792533721533746
P 2.8437600528313736 4.539859897857837 3.8243349674402984 -1.16075820361393 0.3182796885490583 0.6044169880376171
Ni 4.296522629364683 8.702146005583646 6.6638467594412765 -1.3232326401334888 0.06295551778661417 -0.9641035216682363
Ni 2.2643961886364368 3.1072040888475025 12.747409059251511 -1.1515361707950298 0.15492953429276543 0.07810908559860097
Ni 5.680397994089662 2.8866501681694188 5.53242292848783 -0.5213117347760053 -0.7519859682002532 -0.9395042350623175
Ni 3.0440219755164413 3.567270268812389 1.5057357125080486 -0.5734459935773996 -0.7620790907701972 -1.3569585716310242
Ni 5.986185715557214 6.862094300764645 6.255266314776698 -1.1482101917455902 1.1912322038330712 -1.033200376465898
Ni 5.289348687262135 3.3097536078375795 8.024121909978303 0.7121125290440833 0.9438080046439938 -1.055176366516357
Ni 0.7482431144932701 0.7092919251006515 9.780927336951375 0.27401429097277974 -0.7355278226442301 -1.2131464874076592
Ni 0.31760727776088293 2.695714599650926 5.708301112096672 0.006738861385730329 0.808648196778988 -0.2508483943792777
Ni 4.1862549305491425 5.448859906538133 2.2950675760182127 0.36128010336998423 0.706595455880596 0.1057132204691147
Ni 5.840789058098356 2.854772004275324 0.9500618992790344 -0.19168293976271503 -0.5586405531334507 -0.5415141778658092
Ni 4.367271407396928 5.692604682065378 13.407288904163968 0.36837377699197205 0.8626804439340434 0.9967087092977673
Ni 2.12911311484183 8.572179046279222 8.026250208079077 0.06295397512471738 -0.3370664822382582 0.7080424727397676
Ni 6.188086927902147 5.371813292524487 11.802410434871055 0.12864591800588812 -0.4419068131841163 0.8192984774039825
Ni 2.157731222463199 2.3276246095850084 3.467780204896198 -0.39859555199099095 0.39549171625468665 0.25990433393395884
Ni 5.97156176994746 0.3125430767099559 1.0482284914867812 0.2892444776589729 0.0931801209991105 -0.40852772350303834
Ni 8.345197628290707 5.921568066083333 13.037422553890353 0.08083008407418982 -0.4197675580829158 0.16084461422561977
Ni 6.079217719135418 0.16853009086230605 4.763315453849116 -0.6472037441858401 -0.7114358146920329 2.7103386818821713
Ni 2.628726000160518 1.3309457579106994 11.133381130890912 1.9621718303176916 0.5705730429049787 -0.06154346793043595
Ni 8.126394135554513 0.6829012138815284 11.182030061542541 -1.2226446567060816 -1.6572251114321135 0.25273532698934537
Ni 0.0186036222585902 0.3570345094615074 4.815652323159265 0.7980125714420128 2.081312379936306 -2.001038682586218
Ni 0.5639304614311017 7.820328568381899 13.527496070001918 0.7241206092485529 0.4246436552282945 -0.6072074062985607
Ni 6.930925943431965 2.7371877018931556 12.001142353873583 0.7270177282906899 1.4209088492307398 0.4912483397317217
Ni 8.27959825732561 2.5086873940503036 2.018094306470273 -1.0244537406215195 -1.072196298113121 0.611310886943973
Ni 7.892475836462956 9.20717688215104 8.670744810149907 0.3336073200450642 -0.25126208487792856 0.5129548781708779
P 0.33076790265731176 4.613211163994161 7.23973847847529 0.030281938812993008 -0.8275103237908136 -0.6266284911376498
P 0.7450145474004516 1.1884294342609827 12.161717722199969 -0.11422819991866136 0.40319782664969267 1.010130896240944
P 4.425192975378819 8.368184729622824 2.818730785567053 -0.12559299011217726 0.0516316081333627 0.10884842366398674
P 6.9254709060892505 1.9944968707393713 9.811398675425508 0.5584865440540898 0.9130995198165436 -0.16628249741173942
P 6.394868963132666 5.190055893796537 4.6728896429843925 0.19110469866174182 0.0626690968944469 0.623515656540281
P 8.27964456494312 4.734703829294199 11.246647711016418 0.3322981143153374 -0.5282339158171354 -0.21701139122517465
P 6.2872593215622175 9.16979737329672 7.249904852823502 -0.47349307263082974 -0.9666591982105546 -1.0343080077077802
P 3.5070518430019875 4.971011601449289 11.562930590916507 -1.1433940013038697 0.4023496197167844 -1.2726050477846083
