# total energy = -340861.69731420995 ev
CRYSTAL
PRIMVEC
9.33843060342672 0.00000000000000 0.00000000000000
0.00000000000000 9.33843060342672 0.00000000000000
0.00000000000000 0.00000000000000 13.66773713114836
PRIMCOORD
 96 1
Ni 0.08160480800951288 3.8822750141444624 8.95775303285747 1.299768752683594 -0.8928371700230817 -2.6206465194316606
Ni 3.391727264534718 1.2269110029883312 1.8076810641929657 -0.5457174173138795 0.1763761342023156 1.698014891754966
Ni 6.925781546998279 1.1852802802059166 11.74156995587743 -1.4502564491549217 -0.2505460326475104 -1.7195329683323999
Ni 6.957326764934349 3.076910098442129 1.8965212880866902 0.8454818206675696 -0.5873965422202206 0.188025802626102
Ni 0.8438131013999012 1.8188180763038466 7.416510462158041 0.17480724705329895 -0.548795542018571 0.9209514117607946
Ni 7.560187817124644 4.7243492998014105 9.590035743907855 0.40151323985841814 -1.0364343100221634 0.4076797736804463
Ni 8.4068379336841 1.9532354436726391 10.008842869553638 0.47251451076764434 0.7683248145695929 0.09017424429325115
Ni 2.480361825211212 2.116826067652527 11.53805754188076 -1.016930692771597 -0.821902490685733 -0.5181467067844624
Ni 3.1919969148554257 5.0632129242082025 4.407694330603487 1.3100788763603501 0.2496579736156023 0.4507933170404689
Ni 0.17131070440254856 4.502552239055531 1.0827788664606008 -0.7278523083768432 -0.21811105204725661 -0.2724556882364082
Ni 4.394095708235665 2.792526877066429 4.959885059371311 -0.24813485210285655 -0.5421039889310083 0.7187398045526138
Ni 0.6549424124482157 5.555180115240765 10.36654117426098 0.6565574174865983 2.2035685923657664 0.05408341210796491
Ni 2.4763929922855668 3.6079959744759336 8.287077232848956 1.6675462908524636 -0.16244358328162348 1.238833350650802
Ni 7.539858054114928 3.2341038975889185 12.829617564777205 -0.6426117539397836 1.6913019985111644 -0.005775983251828763
Ni 4.227852970018405 3.3890377965756926 10.41592279428642 -2.362991386543195 -0.10439887253306537 0.13757741616756308
Ni 3.877969997723939 5.181035900732591 7.018711069569981 -1.0439943817576085 0.961683342262518 1.1015678092967027
Ni 6.026658789946587 0.2046162164715216 4.471591606863333 -0.5621153990559288 -0.421125614772707 0.8099854275331727
Ni 3.391643218660999 1.0538605489997879 6.604550746897847 -2.388309810703326 1.1064696174736943 -0.8431961099571866
Ni 2.505500879883769 4.520444671727381 12.276402410193043 0.21504295464489417 -0.052887334917334716 -0.7642077070774258
Ni 5.751091046881025 3.740657716927029 8.764368146644005 -0.16080321946472306 0.521872749485798 -2.7086227276323287
Ni 5.251232882149237 4.904991897715953 12.145246956567611 -0.9963955489327228 -0.33888759460739704 1.2736363172626002
Ni 9.186213997546268 7.527400587943609 6.7516842549604075 0.23585963427992926 1.366823637350562 1.168858207013245
Ni 7.893681844043799 6.806445744746938 8.966910297720736 0.7833192310958961 1.0022694912149965 -1.3662446249186404
Ni 0.6548359543415042 4.265991119826252 3.7704090223807065 -1.1625767448799076 -0.05787604638117774 1.1138911067487463
P 3.8465741946744822 0.6707775889000193 3.99516169635239 1.8664293479080438 1.7810754078215714 0.9650131779666993
P 9.033922874366453 1.651893632666417 12.138043291346804 0.5224250224448421 0.6294628752626514 0.061341636332275
P 8.010981868465045 2.3758928041778176 7.805644725165617 -0.6307911071557717 0.2679562577041579 0.19410954692633667
P 8.645696306795047 5.7573571336883385 2.8539055786438126 1.1409555670657061 0.02534156408858216 -0.30724374244987085
P 0.9410056174552656 8.456593090926072 8.50444881142198 0.07605683105526256 -0.23167773498809777 -0.3568737467721725
P 5.067919493136498 3.640941956973996 3.14377045867211 -0.32304548536881783 0.6824309428192505 -1.4603084340742851
P 4.542502044363554 7.068584824878199 13.778308710462602 3.046297275768231 -0.7253542245453379 -1.8241300729192003
P 1.7876650724451353 0.010705576625787375 1.0469641181395788 -0.890376624297731 -1.1799419756312324 0.6155979443551012
Ni 1.501600933595044 5.991322169262724 7.725141851944872 0.2100550145119995 -0.4876171707370376 1.8989041806072975
Ni 2.900787300847616 7.643327863094101 6.934544730098103 -0.08856139128017651 1.490432250042859 0.9123664983052611
Ni 8.28209518022347 0.9697586446977633 6.122585948680951 -0.3189324916417088 -1.1299710430297445 -1.7406188424684217
Ni 2.7157276253475913 0.4873642786818562 9.171953280462144 -0.46167936782535324 1.54412408313936 -1.4271496879341294
Ni 6.608414989402864 7.50251367089221 6.940873384389185 0.028729506724208584 1.250332095319021 -0.03296359941021419
Ni 2.6920266889586792 8.574967034844844 3.2260775166487017 -1.1227197607839696 -2.2517322965551863 -0.9356275257157305
Ni 8.79390653588426 3.187056885166799 5.529037179298781 -0.6733855447875307 0.21261480481937575 0.43382300773471744
Ni 5.294721952583895 7.19284197995734 4.098695006658374 -3.008631385786341 -0.15800534500461175 2.785225146778416
Ni 7.608308749044291 7.513645079944843 13.106061252615532 2.587195438862067 -1.238873459860118 -1.3071763580015745
Ni 5.091527045221276 6.075106566930698 2.0408392593796445 -0.4007282820632776 -1.4850339618454231 -0.5543072158654196
Ni 5.8472488648465974 8.72086133319156 12.842588644621255 0.36179329556097695 0.5289443116205986 2.798802371242219
Ni 0.42546729421653534 7.2306999768527875 0.7453860448439007 -0.9630205730167029 -1.465928865584856 -1.8447873441582356
Ni 1.5896903476835405 3.975920794328862 6.218260035951117 1.3838101446062296 0.023279282242914746 -1.1734185726904178
Ni 3.826141708930219 7.892785354724124 9.21190401961321 -1.168704197933884 -0.699917272529472 -0.7226100861412975
Ni 0.27944972858836314 3.7034907638821637 11.537415057868326 0.10805369567683325 -1.00899421153334 0.8505841748911416
Ni 3.7504163767089094 -0.1889043073011733 13.547310494230517 -1.4935479128537053 0.6038713999467923 0.6696695293885241
Ni 1.3147389410252557 9.014779092019223 5.182204138377292 -0.3541368074569836 -0.1302004069772016 0.5108062072589913
Ni 2.5804884761024303 3.0244094426586536 3.3202490504653692 0.41277415748421814 -0.4631060729695508 0.0073554119238066875
Ni 6.82038802135397 2.357356019807451 4.328995642138588 0.17131903139438234 0.8764335318540777 -0.26372165079752
Ni 8.168241036624726 9.44983788811324 8.27476264466296 0.34108794469282544 -1.1526913674453956 1.019177836934561
Ni 0.7120020899594561 9.543689113766733 10.47648438320264 -0.007649031904825536 -0.0919876433529061 0.0592947811055753
Ni 7.889386166053689 6.462016415813829 5.184815163520847 0.1870914637372907 0.2620002972310391 -1.459336814189635
Ni 1.8760159625852035 5.465755305603169 2.3746330499150656 1.0425823319014302 1.475826584314542 -0.05954314967095552
Ni 3.6208830084462638 2.33055472452133 13.394833536285477 0.8797556542487752 0.871219591753306 0.6698603052430916
P 9.212464325438006 5.135529729328664 6.623193989374925 -1.2618897182496331 0.8995662612167992 0.05884663782456317
P 4.543678686595628 1.0788782040769724 11.855340053602456 0.5196508021338148 0.44638721755297317 -0.4834805228608447
P 2.837808926140437 4.7442588334425295 0.644395589139454 0.5917198521859228 -0.40597436095356537 0.4598726536339177
P 6.1411946389655006 8.477483159760585 8.978254622986793 1.2328483367119607 -0.520371225239607 -2.4260435778086733
P 1.45803715571708 2.3513514090517105 9.727451681282353 -0.5619487915710774 -0.09955491417720273 -0.20951199752433594
P 5.4107052583168675 4.664265838522349 5.813202815245852 0.912770675722215 -0.8371946409581129 -1.3537673183872363
P 8.094794281424257 8.776807869797539 4.552354088449568 0.9370169498640896 -1.187912909651851 0.5726808332766008
P 4.495744523284248 2.0855703410592694 8.162618367672888 -2.1174952576147663 -0.11659335771672823 0.1699278074738106
Ni 5.094319235914847 -0.11417912097712586 7.086174692404659 0.9974103633504823 -1.626987909814127 1.197212589786222
Ni 3.027210971782638 8.976454173603111 11.41827349496958 -0.840233684894753 0.2913687230908272 -1.631507137840719
Ni 5.1510875543971935 3.811685818650458 0.581980321786196 -0.40872698399803803 1.1152465923353763 1.0423049098703274
Ni 6.206264822085254 1.3905296422594589 9.248957977650074 -0.2236453516019245 -0.5007213122191634 0.15625725196525347
Ni 1.3651010962440897 2.149062329439179 0.4166695589241816 -1.0986429223404242 0.15809276251209547 0.1903577931933883
Ni 1.0484722746513238 1.0749840785946336 3.1656121135657367 0.7038849989279684 0.00290920322699499 -0.31130891365818
Ni 7.96673638516691 0.7490663202697755 2.7762724050890686 -0.5399645739905024 0.14254761568864482 -0.336238329910008
Ni 1.2067213164348138 6.278058675102573 5.169629941825808 -0.05838769591027364 0.19645387878879714 -0.6162764584793644
Ni 0.4161886297578975 9.248828173467329 13.073599934655919 0.15450890181557905 -0.3900003541228122 -0.4482142434593829
Ni 6.072333053097953 1.9582408423741586 6.6678055391452595 0.9254708968977029 0.9955334580427434 -0.21448965324458547
Ni 4.700900501033657 8.418006696458388 1.8926402364069297 1.590441478148661 0.6460547181830616 0.8305213427029955
Ni 1.2026217454833827 7.537336677903342 11.694676093714088 -0.9603815927319589 -1.3094918935086286 0.5231022510175248
Ni 7.133309486072663 5.43628321921885 0.4052103709640423 -0.1858560486682928 -0.60791008879254 0.2642592684685449
Ni 7.046518113811612 7.136689997882271 2.987958747226487 2.0592921669114723 0.9501804838292409 -1.4561316769887762
Ni 5.377329708019795 6.302665439241572 9.26299457240428 -0.6865830173144112 -1.4777767660623775 -1.9848456177661236
Ni 0.16568616776462833 8.035373848704538 2.7643957892894555 -0.47532704051577485 0.2531379617444028 1.9439946451880326
Ni 3.4339463084331694 6.724883893517327 11.500881250405481 0.6939715964689984 -0.9426525508833119 0.24228070731492468
Ni 5.37691881708161 8.420556087961213 10.824888148119642 -0.49691942197457006 0.1230969631632009 0.12579713570318332
Ni 7.064279808457676 5.3298998199507315 7.04873879256389 -0.0765697661359391 -1.9351150833102155 1.2270615548268544
Ni 2.7006273833693126 7.1696920109628115 0.8391186724311439 -1.4605406046897493 -0.1593096656383321 0.9333790960011861
Ni 7.971863183463803 8.16438426486404 10.75188963757901 -0.036474183666633964 1.2959532355922454 0.8710151890519838
Ni 6.63070582279937 6.103448703235012 10.942840928826776 1.4971613412365765 1.8334207541925072 3.004143782328633
Ni 6.700109037630888 4.840108483204464 3.9182942740915356 -0.08012071671199104 -0.09578824804591891 -0.003763580807490292
Ni 7.843711902902323 1.1490471702023795 0.2253615396346293 -0.9484151643987021 -0.7538479611096565 2.158234644315657
P 1.713704703571936 1.9293477386754618 5.451362916650218 -0.3346650718856171 -0.30773816558778616 -1.5748348819596556
P 3.1760935678616056 7.212060469747875 4.960718981207217 0.33888528061455186 -0.03652509150922742 -1.2953652242992595
P 6.252462037339765 3.4726260872049863 10.82592751542464 1.9279946702153503 -0.5952584614668006 1.575127216389094
P 3.1089222378988626 5.518340007260365 9.636738168247724 -0.1437588623879266 -0.02005049089297192 -0.5332812484330558
P 9.043905656478252 5.507199259777319 12.814227831456115 -0.2341529360014677 0.5603896746140736 -0.5967255329306304
P 5.317507722792306 1.618209914165706 1.1388206550567934 1.6764513066515772 0.246428153824395 -0.7385594103817023
P 9.266739283000005 2.7130101420973256 2.443258373493157 -1.129812663075009 -0.4672707458702017 -0.8155261548457438
P 7.37640750659124 8.366075684930122 1.3003418828570976 0.38673119645323717 1.6003638794686954 -0.05260399934896101
