# total energy = -340864.75722575403 ev
CRYSTAL
PRIMVEC
9.30835153716740 0.00000000000000 0.00000000000000
0.00000000000000 9.30835153716740 0.00000000000000
0.00000000000000 0.00000000000000 13.62371337723960
PRIMCOORD
 96 1
Ni 6.091869224191238 7.924823250279656 0.17481828694188542 0.7641796820529678 -1.114495058881332 1.1810642621611338
Ni 5.370360286476155 6.718293351828402 8.879786573235577 -1.0643870864813476 -0.8751662351058799 0.5768874151587806
Ni 5.195828696758978 4.496147843197857 10.112065233472201 0.4836396741465283 0.051521050697427406 -0.3616557415418481
Ni 8.497054155765706 8.350103211399569 12.59335152317423 -0.16664990805348717 0.1178269730135132 -0.005461537335203498
Ni 9.051115159218266 2.227209251820206 9.73140485503545 -0.7713065229057361 -1.1509031651967212 1.1223088984987963
Ni 3.121872143237631 8.273625795873365 8.876830240814556 0.04166909760401211 -1.9898399856569213 -0.23261644475228324
Ni 5.502231701490728 2.9790447985645447 3.874188931752017 -0.20664676016139896 0.0318143162971194 0.7769578076542425
Ni 6.586384703408023 3.510756450181855 6.387273480847797 -0.2958514414525292 -1.450106810950935 -1.2171926324525748
Ni 5.065446617976658 0.8389440304633957 2.9959906523821513 1.2232822902900804 0.20334134993724978 -1.9514287328685747
Ni 6.097668327145573 6.131466951266271 6.572610204929971 -0.7827659296955873 0.2883566757373808 -1.0195629881881216
Ni 1.3010096656848185 4.220592715176653 10.674697366941379 0.17464886709856373 0.9205798873539888 0.3502593267794484
Ni 1.0979572871199923 2.050583283026423 11.791542229991778 0.5385514956930596 -0.8076043288955058 0.2929651210436696
Ni 2.5676808228647485 3.4986742099977004 4.4487822968364785 -0.8127406216808067 -1.5612288611404468 0.8211532712245341
Ni 5.253568400813147 1.9197357866715243 10.377427716653921 -0.09007268571838037 0.7231474467020061 0.22974246563859788
Ni 3.046446571425456 5.426778204624198 3.5322606037053013 -0.09320531781009109 1.5802817640068396 -1.7798685319976635
Ni 0.6674376549679835 7.31832830310033 5.570340909061958 0.6624005065309366 -0.4101048381821711 -1.3836756759108944
Ni 0.6710381253094556 7.5853662895433365 8.97667813433025 0.46944461359306894 -3.6433107722529257 -1.7592212880609572
Ni 7.237429420634624 5.075313470515336 8.21745641070908 -0.41255509949487656 -0.8205578037323803 2.593810115965107
Ni 8.832145499671233 6.736286395184312 0.6983544134792704 -1.5094458150308843 -0.5381730293077184 -1.2064996715151028
Ni 6.324512852020645 7.578794593418518 10.961298715630175 -1.260731436275474 0.2507409222671359 2.2836857095333314
Ni 7.236061092971241 5.038294156792392 2.285351076657082 0.20395918602690682 0.3649022735036038 -1.4070755428920736
Ni 2.6578508233762306 5.573654682178722 0.5726125478955648 -0.2462116669382147 0.04497450782816125 1.2422855708654605
Ni 3.5170675124660282 1.8996762892933634 1.4365392628198634 0.7725684203372952 -0.9260627648454308 1.1965893543799264
Ni 2.0223789781281276 2.2227412431234463 9.400430594976958 2.3696328031191123 -0.6399583754773365 1.8337711955533904
P 5.875105643938229 5.114548171883757 3.802173939911701 -2.1680477737513373 -0.3033269238939679 1.9953218347070991
P 0.900297236551068 0.435049075968349 13.49634538914082 -0.4682721905515226 -0.14796184472568066 0.08345800861534014
P 8.212860877597432 3.3257901984874545 0.9457694642271949 -1.6173429305251954 -0.4942837841239358 -0.4322482070484297
P 7.152351088367157 7.706914742798104 2.657564126151522 0.510031790986812 -0.7761021445221666 -1.4614209504121733
P 5.762018482152951 5.720782485222439 0.6174890410787903 -0.21982289253204076 0.3588540104269949 -1.1465533728684576
P 2.0656069622692774 5.512694288522306 9.026772889337233 -0.6560573379217282 0.49325405730784083 -0.38597503501350305
P 0.319832163370948 1.9922850778851602 3.5351769102150823 0.061706218760545335 0.7318413749315783 0.4869527976801614
P 0.3497184873765447 6.220240699060016 12.128265327906767 -0.5061838779956315 0.6641375438267014 0.5272342709080274
Ni 8.975028694453028 4.217735051281017 12.612493217099264 0.35944407860251004 -0.9455352717477458 0.23534001433103338
Ni 6.108307772854732 0.41470381220062463 12.348083909106185 0.9724534362948285 -0.5748292470781713 -1.2763645148270406
Ni 5.518223449284547 -0.07145649075322018 9.248443832475512 0.9295509805043476 0.5460588598136983 -1.843027938264968
Ni 6.902524243758128 2.595335935027401 8.574097519060166 -0.9537926266605316 0.7604585244476387 1.5391875650696911
Ni 1.4264583181977992 0.7695484087215559 5.256096549067395 -0.46653823857955135 0.6537865396096805 1.58941612220794
Ni 2.6064501066605903 8.361831734228563 4.218596073790288 -0.5626447891968375 -0.9237909380921189 -1.4132994123145983
Ni 7.113656271382927 5.731552247851921 12.495751596534094 0.03573627705934491 1.5084443703495636 0.22903592648987653
Ni 0.7015862731032599 8.970551377404817 7.187230412091383 0.7566856876687679 1.0766016262696685 0.43995354611248744
Ni 1.6098980002541405 0.00643951753420495 2.098079146308124 0.41259058071850235 0.04928779049153447 -0.28211532281335927
Ni 8.590900955100562 8.926709042067863 1.7071330395173743 -0.6111329666052119 0.5154095103589574 -1.8095848281151738
Ni 7.576169638309173 6.209424394673277 4.662866002706575 1.2078294460701198 0.08327571740120496 -0.3486279618236125
Ni 0.6519131864170337 5.030605458493384 4.406903092820662 -1.6721053709780556 -0.20321870831645647 -0.7971728491495368
Ni 8.0515285302386 0.7959627176357124 7.779576665064304 0.34753729986259496 -0.9675984221953723 -0.5561908060413776
Ni 1.5538337994612577 7.569653792293064 13.525527070941532 -0.6343022056328237 -0.004948602254526961 0.35760933938661643
Ni 7.444651940649759 1.8861698713371169 2.5029756794193614 1.2142327784933022 0.19834106850918098 0.7553888232342151
Ni 4.102395268444455 8.941295228792493 10.91297533990443 0.11934160988582673 -0.37936087213109504 0.4668046048670606
Ni 8.19214048726621 6.280596049872077 10.209828987097884 1.2532659811363642 -0.6144046953779484 0.2726361796783304
Ni 2.52328929479215 3.735134261922257 7.5652211553318205 0.29814023748670593 1.275092332982836 -0.669057606836138
Ni 8.359523263068569 1.6557416311531858 12.879735987274204 -0.6528701984429982 -0.08648188304332848 0.5436042276256186
Ni 2.3815882606447056 3.177573318323902 0.06346154769145575 1.0357892202389967 1.5819342120085982 -3.9643777937391342
Ni 4.494584040153991 1.9616512932580015 12.60671645418841 -1.5458919736730603 0.03316980188374932 1.3552012226202856
Ni 6.131076000505304 8.083800584721239 4.412965622121079 -0.16161183140894747 -0.233437655101998 0.4183159132380537
Ni 2.963006509013468 1.3858273641116408 3.885932347943333 1.06689134096044 0.4911041008443735 -1.7236994410052637
Ni 9.327712822602049 2.646699418337234 5.963181265373105 -0.5217663058149207 0.3858346527808968 -0.6605567684539785
P 2.298771857779974 7.109374429715199 2.189425722443086 -0.3937965879404508 0.7004422917950066 -0.038602799973862546
P 1.4935715321637109 0.053108799207005404 9.657386705962752 0.16470692539450343 1.3992910138506482 0.8007559385151048
P 5.961310286731338 1.0570191574359313 7.2556626194579845 -1.6494665505326174 0.293913600999868 -1.109835962842766
P 5.195270195671883 4.284755181732413 7.76103442897275 -1.4504446539063278 0.7711399154208849 1.0499482853481983
P 7.122499205261931 7.851222115351991 9.063979300924354 0.8312314813961426 -1.0041859915114189 -2.7054319886091727
P 0.9731695275600739 2.1115902184400963 7.701308322718815 -0.6226957317421469 -1.1926889908842557 -1.6652461819643773
P 7.50364827214989 1.3203896534070139 10.824626052936878 -1.5036891150527651 -0.3301440440868121 0.5027023472049342
P 2.108406762243655 5.397782689852518 5.722204801324241 2.3268223928218057 0.05467168051126714 1.2782874428813664
Ni 3.9230419526753586 7.19035708734397 12.9375957690621 1.145414631278324 -0.7945415821742768 1.0625348637639571
Ni 7.938236584721387 3.754895892053968 4.372326290518613 -0.6296148274594834 -0.6938093598595213 -1.1549752783835656
Ni 4.104526880926867 2.274588760708762 6.228584705301214 1.1908485952414072 1.205372499889195 -1.4871111560894261
Ni 8.401755253604401 6.8182557380669495 7.186018464732387 -0.5755270444761442 1.6753627015730888 0.33661216830965895
Ni 4.590543835268358 0.2016812583960081 5.065909243043802 -1.2032117447924502 0.8652870283189549 1.768984023874676
Ni 6.272041674888073 3.509443972627182 12.212064692684786 0.20465929741772496 -0.6788537669909535 0.2043469083836287
Ni 0.11467702821320923 6.759138397997948 2.908785361807998 0.33275628489867853 1.872196332298808 0.8970851466661584
Ni 8.584087241838004 8.735254869411708 10.183602706883049 0.07348058568765409 2.4883362652003083 1.5506192039454005
Ni 6.227789772087249 1.8734174298484485 0.5587561359247387 -0.09070389154447604 0.3401600335619174 0.7252069003341962
Ni 0.8192010170345887 2.3010617122370634 1.1240951379960367 -2.267316524146689 -1.4522727082540021 2.4123362555249104
Ni 0.019744875099097343 4.021812869928103 8.494739168759697 0.9473468710351877 1.8207051063980515 -1.2300872290270557
Ni 7.000839051789745 1.1239927461300692 4.80131004468111 -0.14010198236162968 0.4361390574624037 1.1346759047045814
Ni 2.9577007486860656 -0.11010755848562725 12.749070934607758 -0.8507330417641801 2.475627302274072 1.5624293092064512
Ni 9.046339974923605 9.29074005063636 3.922062714102652 -0.23446841035935748 -1.2030160838418766 0.34538091564122453
Ni 3.951097323950429 4.543276026597221 12.524879289896385 1.2308852994483188 0.28761774068882723 -0.9202433299501764
Ni 1.8340431032082536 7.373526827208215 10.939051755660893 0.6095982751282405 -0.14004413254050074 1.0380055111640254
Ni 4.198029271258016 6.796604512590568 4.850518644629903 1.2161827031308217 0.8514390666922691 0.7809530448565647
Ni 4.971171634475028 8.15432996366988 6.982970740343286 0.4752375661257622 1.7561819870140012 -0.10603897923964964
Ni 4.735372475503534 4.138930547891918 1.6570522470375686 0.1328578992047067 0.08271984489773494 0.01175868319782491
Ni 4.684316167791602 7.8124621399076 2.557497486376717 -0.7118423061018321 -0.3990879182463772 -1.058641956467454
Ni 0.1763867441614771 4.834217859567891 1.7370919686642932 2.3599410297526453 -1.9754847453765139 0.014134896739485335
Ni 3.6785301767451823 0.8458927148220022 7.793295313433646 -0.4688396330192184 -0.04490611648407104 0.4815997608983642
Ni 3.631848794215495 6.347402088240087 7.197571059718946 -2.017485515288332 -1.8673433750818809 0.47990514680476054
Ni 4.440930702387068 4.600010428694618 5.5460088783675205 -0.08151168352224672 -0.7499905350367794 0.16550371026418592
P 8.326171439817548 4.78610299091466 6.376538159118686 1.0578991647641587 -0.3343154018556823 -0.7839568646798949
P 7.783569017001888 8.444434045009908 5.580872377894279 2.1832499354130723 -0.06044097889487655 1.7265268831517298
P 4.633446027108703 0.11689800086955689 0.8072099986946598 0.1543230110570181 0.25523366793116686 -0.38909352603782665
P 7.595288992190723 4.277140950245018 10.745554399861115 -0.22969798555390764 -0.23131546655267257 -1.2985549348811507
P 3.963123714025874 6.667460444551309 10.968560160597557 1.2095741966753686 -0.8092886585764643 -1.8798101400903235
P 2.5150234787031445 3.9115182135782987 2.045082978153683 -0.5176281152768311 -0.7235292555214572 1.0527934681064772
P 2.7476484898296496 8.3176449898879 6.414779659387224 0.30054576160440494 0.5158008322601053 0.3017112426674159
P 3.0818369236443734 2.779715760580352 11.324126154355984 0.33696312389117444 1.1360414175935403 -0.559576691794475
