# total energy = -340867.6307036717 ev
CRYSTAL
PRIMVEC
9.19650211520480 0.00000000000000 0.00000000000000
0.00000000000000 9.19650211520480 0.00000000000000
0.00000000000000 0.00000000000000 13.46001044228348
PRIMCOORD
 96 1
Ni 1.8280622568526543 0.30245547449715654 8.541735805435403 0.9230008380906555 0.0015866277608295256 0.2713354585890359
Ni 2.6570257426027943 6.8240067409588585 3.608413061791356 -1.4054395499505472 0.026551525236283305 0.35317238666118533
Ni 6.410697552077434 4.15400473415973 4.2307099976483 1.3823811254691871 -0.49950672308577193 -0.15647296752048537
Ni 0.5189714779369692 0.15313095331904708 11.269918561923898 -0.06106909939717869 -1.1342118205839693 -0.10877026212788364
Ni 1.4341576870033101 3.7739776856939926 8.661206642110223 -0.5943891714879699 -0.3659559115790988 0.4805643776553143
Ni 6.067649637795583 5.230206977283557 7.159514443323931 1.6943855225324946 0.24096327405508178 0.2731241750583425
Ni 4.04501699001319 3.6439299521714035 9.687909633348612 -2.015844637250799 0.46168168181819846 1.8809334550614893
Ni 8.419765359541191 2.162309118805736 8.763180214249289 2.2853499846096317 2.45025848449198 0.13730307946025386
Ni 2.588539392872031 6.661706875234605 11.842830282519099 0.6488585061804438 -1.4322522992680171 -1.4496111022614389
Ni 6.413658825692756 6.037016089930245 0.3470134459058476 -1.3688298691473135 -3.0716326692092264 0.7609799441687476
Ni 0.8632682771783253 5.541802855029996 12.569509354365584 -1.6504075742896478 1.1467510907015606 -0.13765120682829196
Ni 5.323275576622261 6.14410015818122 9.35441136665108 -0.9120764778686679 -2.193561858862042 0.41460683981758273
Ni 4.401684923625142 5.133119506609773 3.7453149481881693 -0.756724254216187 -1.1731516921822764 -0.6521752292585026
Ni 6.938935425339865 2.9631588982141355 6.2873457915961986 0.2338462033943263 0.11776938030270041 0.9267945008051329
Ni 8.525249236459663 2.2358995270970707 11.55253810144935 0.6668382305873162 1.1142099235407457 -0.09236688106919577
Ni 5.1445139724774265 8.336095585155467 9.841825048280661 0.37657173942173205 1.3402260893676918 0.8586533250525211
Ni 7.381857350374514 0.9195756994284322 5.128923142787811 1.1619038871825988 0.4126042075652572 0.10003725313025998
Ni 9.054701047974339 3.54695283952055 5.47697211480883 -0.21375123241666416 -2.0947381664239084 -0.633558899708896
Ni 6.504299548526973 8.1045092740342 4.038595072728781 0.20970483026143238 -0.8415812000615829 -1.9651689652728026
Ni 2.445561377662661 8.07191687126183 1.7570431904956179 2.175143247145538 -0.3561492099013221 -2.9642574876566563
Ni 8.648785846629309 5.127380889417347 0.6956795032050909 -1.883499673126769 -1.745393895259562 0.8774069515109405
Ni 6.207031820757777 8.93367508282638 12.158750355464061 -0.004435667173850425 0.945677453752565 -0.7044051330974966
Ni 4.96426253502302 7.0909352089238675 11.755528809528744 -0.5783226049434105 -2.4306265691936653 0.348083145063736
Ni 2.7150096871512654 3.5437892428631868 3.9288017150148438 -1.5578866841410912 -0.6895906937924833 1.4546651197455787
P 1.2456385943309696 2.0017106059350063 10.141471911094216 -0.15055994447016008 0.02562412832600748 -0.3960329334701373
P 3.122267577775293 1.5383448571523395 2.1963233007735354 0.9892645943148962 -0.41291453971682435 -0.15771840989181224
P 0.6625288727667288 7.2674804561081645 5.429525522149914 0.7618860009227847 0.12277866059183373 1.1901646818005052
P 2.0471873078846 3.6179038517634456 5.928394366559761 -0.2605339970981577 -1.1349224734977488 1.6175105664513112
P 9.090034008316167 3.023966168849265 0.2818525512660796 -0.28811833447432966 -0.5092447763091423 -0.7283726996566876
P 5.2013575507889405 4.585007992717802 11.234639860943345 1.4605580881912457 0.8822794491118934 0.921434007824168
P 2.112482471452268 4.409097304165359 11.158133241896051 0.29757947988722944 -0.10712167078086712 -0.385069235369782
P 5.301700583139198 1.5164663791062152 9.358206762989726 -0.01252255794704295 1.1850088486311785 0.7178733427872604
Ni 6.806717317366293 0.7994629469202298 7.7196788926203785 -1.1819062984464548 -0.9864008996138561 -0.8006551512711824
Ni 2.1550438822960944 3.845765579610784 13.33959683488189 -0.33404235069995375 -0.672120819142494 -1.149515540820575
Ni 5.579434940849558 3.28215795999888 8.187912349864506 0.13843333640995512 -1.1897401926685767 -2.446981613512921
Ni 0.8324967817843231 7.261116476785795 9.838985168490563 1.0704132380707694 -0.05394842919199741 0.7641015205168648
Ni 8.854667934909502 8.784296302286995 8.642511073375475 -1.1216488963172941 -0.1180527158710741 -0.5377968769152222
Ni 3.6000166555466686 3.650330717501417 1.9202452330573345 1.7557819233621053 0.41568181804931637 -1.3790068096803154
Ni 7.946642122231018 0.8295971247318039 13.414488548193624 0.9850029908250649 -0.4584508335857266 0.41879053888162715
Ni 2.5402761508434226 0.09561235176726954 3.6409190174457615 -0.6757489028133846 0.8686394897309557 0.6580553421883635
Ni 7.5543285472122665 7.925618918862612 6.023071434082688 1.1792961145171175 -0.844862441916016 2.0610834544839407
Ni 6.96102542292994 1.6842657529732101 2.8215410456373933 0.8278520234009485 0.28442340212124567 1.1536275061064196
Ni 4.022614311358143 6.952187584593529 7.396006168564495 -0.9066910451870385 0.39049631992262424 0.4643450875829745
Ni 2.6866292822541076 8.62735799717682 6.006542561198157 -0.2584907414158839 -1.647280855735208 0.3470801577205184
Ni 1.4763696307745209 2.823326086658306 1.8247735877693023 -1.7315518471701468 0.14534728992096904 0.8387205906843361
Ni 6.97433276119507 2.7843329185559242 0.8771255662577284 -0.9153127254177784 1.148969438509118 -1.146776544622857
Ni 5.0067227843458255 6.700019502195578 2.3347334134837423 -0.2659474548042452 1.4514774660462164 -0.011914492049398836
Ni 7.199564289495879 0.9100315697452597 10.120931524076134 -0.6672128403179154 -1.2632074086197922 1.3523467838906258
Ni 0.17934190341541464 5.057073632308217 10.334690416243047 -1.2627523233602447 -0.553772169297556 -0.712915741671669
Ni 8.572693989818198 3.5452514866670266 2.8476131285549053 -0.2946003426542475 0.7950388335256694 -0.2009165425458411
Ni 5.50541229696841 2.214140603575789 11.394719691106298 -0.49596117182635874 -0.06532581779100362 1.866973650447288
Ni 3.449423936755041 2.0652676306415065 12.796081732645007 2.3834275429103595 -1.058633214716706 0.254866000179103
Ni 7.7172997575760185 7.453148633188114 13.00919411072758 3.4502684902488383 1.3159397060165015 -0.5769992581462965
Ni 3.1153885943459105 2.353495197032249 7.8526235242449145 0.19197553130246936 -0.038030472410160304 -0.9588831538095616
Ni 7.340142017706495 6.021759093259997 2.6724988570679495 0.5491233576716349 -0.07421643541241411 0.5232236070867375
Ni 1.4697757389043773 7.139584704032735 7.492487589762347 0.05478763726384112 1.6041166616429083 0.6530586603047204
P 4.865501301001444 7.441901311351036 0.3853812518782855 -1.70198210393283 1.1880036695934444 -0.41750575863193257
P 6.005996288984647 7.652133345035104 7.777140475860309 0.38565287578739393 0.6621485384211305 -0.4246254003958494
P 1.1810331684066222 7.922556483726268 13.049600781173675 -1.2390873756431369 -0.4848439788672747 1.191296224301787
P 3.8055952592638014 4.778419624406762 7.658651825589578 0.1498192096493936 -0.2545217294658068 0.8158699113384079
P 1.9345209629736855 5.177437449318589 2.506496479674352 -0.0057826681200481055 -1.881043498276793 -0.7292612729092279
P 7.268271355272505 5.998160869356527 4.962611762930006 1.243032476333814 0.2228562800417259 -0.53550910932231
P 2.9459430466368572 8.205164987449427 10.253835691092263 -0.5047476597697371 -1.1450971000379053 -0.8626958705530109
P 8.184951076249183 8.318649821030416 1.7662222190529262 -0.08994464478094832 -0.4220530116829828 -0.8899197392659707
Ni 5.239228745658188 9.064081479923496 5.935514298339211 0.032401556259157104 -0.08917588493572384 -0.4166043298635857
Ni 1.3600614711068737 1.4164820103304852 12.993930676505997 -1.4540038320124957 0.6097142318808144 0.1612657609234384
Ni 7.169877981327367 6.143465599549366 10.87419400434638 -0.5666904200211208 -0.08156361980610469 2.1306940156932277
Ni 0.9182799123091809 0.4707928437259414 1.6124281979461006 -1.4844809175554305 0.3706736287697423 0.9454308849593975
Ni 3.1657394423083023 5.679888331222746 0.6573264116357105 0.43539677997974047 2.176573037613529 0.3741536168985427
Ni 3.344593011472246 1.1154713062835373 10.481484979745458 -0.26585746619360023 0.5591375473745275 -0.36872601812506817
Ni 6.2159892136190305 8.988532216725131 1.413503263361532 0.011387673011651356 -1.396493396500853 -0.6877909215795832
Ni 2.8766198152321985 5.692910577928636 5.5949899041817215 -0.5347249228581178 -0.7672310672847819 1.4280179494716956
Ni 4.436769578415374 0.26563360049594736 8.046529008086493 -2.5652857832731693 -0.3276043083840938 -1.8223485555387453
Ni 5.23278199781862 6.3333181849987925 5.436942500941086 -0.4407012229117894 1.6631347920483293 -1.0041319983450319
Ni 6.848386667524759 3.429844584186651 9.98481042069156 1.285115007326161 1.7129617428727855 0.8666592260761332
Ni 5.016581434394352 0.579558032526236 3.1518766353277528 -2.52993697146023 0.3069238972166069 1.1849944504534753
Ni 3.4094375464462776 1.490210366150484 5.515952407808538 0.14822229747591892 0.9502252210242473 -0.4476789397812032
Ni 0.103833104825458 8.27412955527956 3.573067226346853 0.2642618395717061 0.6476423743851557 1.0892928485840918
Ni 2.734883327780805 5.756200904079719 9.532028925958194 0.4018901635818627 0.29518526862344 -0.8581445037369028
Ni 4.492987794596945 3.54577568727595 5.830580372235013 -0.2853155749182118 1.7636914080171688 0.580499043769439
Ni 0.6043904269861539 6.733641913181971 1.6922998170426067 -0.14547301686555592 0.43052453948910374 -0.22506331499537371
Ni 0.7247018239356325 5.187783513968395 6.86187241792696 -0.8987998153644199 -0.8026454422283338 0.2080626666723191
Ni 0.9049780919451985 0.9791975409672415 5.272568824035916 -0.4729199737361791 0.09888205647989422 0.8968426916380489
Ni 4.7808842869188934 3.969127456244121 13.403558505672473 1.4612887957096834 0.3471945718111956 -0.9329227251900578
Ni 7.668309991896447 6.608036090082365 8.785496445786373 1.1538907870701354 -0.08441934408734493 -2.0310395998236825
Ni 2.9936820880565422 8.733504022232879 12.446552123816327 1.8966588362165464 2.4606380279540914 0.8090027519049292
Ni 7.411589641052581 4.25056800422459 12.230222809365307 -0.19802945080603312 -0.11863095697204731 0.7084178538013154
Ni 0.5627008445234847 5.3471404990811475 4.325010928243069 0.03213441864069949 1.07227805919365 -1.0837863169435658
P 7.9410138630615235 8.144495664342962 10.52072093549829 0.1463271373357351 -1.0466516168747975 1.0948693142306047
P 8.059317663643844 4.406411925607364 8.276425921806721 0.570381752829779 -0.01688134913637093 -0.29040764472913855
P 5.4457545890721475 1.1851715942665446 0.05628351134513844 -0.49913931244402415 2.3068629189807432 -0.506830767551011
P 9.101943478290833 1.5936066371351725 3.5189310981979185 -0.23929719920656856 -0.21374814709287057 -0.6204724988385831
P 4.186597136932098 8.031341904830766 4.360370558440438 1.2366234874836768 0.06415879406609597 0.0011626528495334815
P 5.5745424018329395 2.1477970387902743 4.678323058307719 0.24775998526194107 -1.461292395254109 -0.21549495458064824
P 5.82172598019516 4.219143557194911 2.1086990305661075 -0.07146406947825756 0.8836691303705684 -0.629162056192781
P 8.840091479380664 1.0043223841879272 7.118165131431966 1.06406415592429 0.12331499271127795 -2.9733324533747307
