# total energy = -381162.73772514466 ev
CRYSTAL
PRIMVEC
9.35129248456538 0.00000000000000 0.00000000000000
0.00000000000000 9.35129248456538 0.00000000000000
0.00000000000000 0.00000000000000 13.68656179430136
PRIMCOORD
 96 1
Ni 0.9023931894653043 3.25985124715325 3.7282060611029375 2.2307598080685773 -2.4589344149994234 -1.824619610961109
Ni 5.708169269077224 2.7932030441020608 9.778884188909984 1.9378160271811469 1.281527804195535 1.6314711423964612
Ni 6.73625972821014 1.9217373846345762 12.963378044690382 1.1593016736730615 -0.6917985000770794 -0.18029783785422498
Ni 6.945120848308499 -0.4237285754301711 2.045771059349625 1.9648288083245644 1.8237202390752916 -2.406637919588552
Ni 7.075795811024168 6.672465210130399 8.020489572540734 -0.1954449779083086 1.7987998216845278 0.2296195669074884
Ni 0.6136262092761252 1.358985947589618 5.110411268204722 -1.0517046059176727 -0.35954975094243885 1.2165089761219887
Ni 0.861992800069247 6.169178642693924 1.2944928879530677 1.1572517331225682 -0.12473089922219807 0.2766278173362268
Ni 6.166232985526653 5.81957121775561 5.804402486038057 1.4026766424934294 -0.34805949091465216 0.09887331472914586
Ni 3.7490454166498 6.408571733113355 11.981490452008417 0.2567878997921642 -0.7975598001753104 -0.16614314362039775
Ni 8.225284750619 3.5700336225131144 4.758297696851078 -0.38348954958748793 1.5946472886998924 1.7172032917579587
Ni 8.326886544658342 5.177595629849971 6.89006137264129 -0.17680576554056648 -0.8143799570564426 -0.09101088126193357
Ni 4.431063239445127 8.605863656630328 11.91787454361723 -0.05985528159473563 -0.048733974870593486 -0.6564759135163856
Ni 8.089195389491111 6.762256321622875 13.262347285100171 0.07233953010467542 1.8216602712224692 -1.1453421261691756
Ni 0.012721498445570073 0.7271639931830971 12.661123695192144 -1.1913093369279095 -0.3834111309410687 -1.2233563380611254
Ni 8.081845273511828 0.09821288560309045 4.084425785034829 0.2321045381128712 1.3361884289632084 1.348424566018084
Ni 2.9136009362563646 2.120284029001192 1.9420680298642985 -1.2979651238159517 -0.9941725731394749 0.5836681855260399
Ni 1.1224917578744849 4.936051742133802 5.382021431870755 0.5398720142766961 -0.7390674603663724 0.553492433273608
Ni 5.374599310938493 1.9129004131327652 1.6545270041342595 0.016236002242888167 -0.1030878670311257 -0.07834048488311669
Ni 4.252416145719627 4.559409730304763 10.41146359801666 -0.6516694932666777 1.0468151390358553 -1.236432197408477
Ni 3.885929637648223 5.108611144380278 2.1287665865136707 0.23846261912041514 -0.17537957461700118 -0.1875087537803674
Ni 4.021775865168656 2.411053120934855 3.9754121564850804 0.9807958947222528 1.8424355560966077 -0.18996724262318895
Ni 6.840723017783401 7.621050979624799 3.8004298343273684 0.08506726208398899 -1.551179961544877 1.506771867743147
Ni 2.375920314657285 1.4035355055098588 9.984415313715438 -0.35621708702478005 0.7264034917454586 -0.8169718861533349
Ni 1.1026950714519093 8.553010150886163 7.1773835781246165 -0.36975394516895027 -1.2963268168815805 -0.9286521228391621
P 2.345696936991832 4.277281232728426 9.177127575324068 -0.1743598751032352 0.1316325114380378 0.9445546530020313
Ni 1.4841810528449046 7.215999740893642 13.045893850544331 -2.061356248529353 2.866815248947082 -1.5741021175586891
P 1.4701354113679521 4.031379642663217 1.399547179218301 0.4909472635515351 -0.5797739926779563 0.04887307155161905
Ni 6.435419294152191 4.610355572359649 8.729836547943513 -0.15029897749928953 2.081742525495189 0.7966583714069635
P 6.03735347098913 8.8777150836453 5.3344196120476655 0.6633302174340576 1.789141215548841 -0.1338205202282921
P 7.39831254131619 5.633630115806392 3.854819757444811 -1.0417395242851608 -1.9769716143346852 0.9560443988091857
P 8.150839110274115 8.560809128909984 8.664182057766725 -0.10437264728082025 -0.23826592972857677 0.37762383483533035
Ni 9.424513215524026 2.122986552561005 1.0338405689492798 -0.011649668423786388 1.4621706840940043 -0.015276209432780144
Ni 0.12365214197719278 6.9310190990759795 5.508444361843701 -0.3117539716153986 1.0080439318049286 -0.22645736712942288
Ni 5.053419815487486 6.77663860963323 9.46175286802314 -0.6332513957708062 -1.0383302414932956 -0.2642232730242869
Ni 8.477937973937445 4.73108075975476 0.3028808861020716 -0.09201386860515122 -2.929920404937683 0.6141439855173939
Ni 8.029103983278794 8.700171442445951 6.487129136812047 -0.5342448978979057 -0.12126530927110084 -0.38112362045847265
Ni 9.084603081006218 7.670248129964512 11.22537579208198 0.21323006980587147 0.875398405721344 0.23641499256276702
Ni 1.170276863032426 5.449269382305648 7.723737523605103 0.7350989626369275 1.2117053840857583 1.1951400235279093
Ni 5.466709542994406 9.32538951402223 0.1650390927419708 -0.6292664429811292 0.09325622565268456 1.4969240284147898
Ni 8.66914385361737 5.603911707941043 9.565907564940781 0.3302013796873088 -0.23607586405579342 0.5105879206005981
Ni 1.5447119698091616 6.270556005710996 10.723243174151666 0.8875759216241422 -1.9543649326787633 0.1229036162054722
Ni 1.5405599958971996 0.2639346227044604 0.6123338606395641 0.5837347770979172 -1.2442195546633796 -0.34332429022251193
Ni 8.311419506707024 3.154415423150161 8.94284029066124 -1.243800207737774 1.02935760568104 0.7366305687901056
Ni 7.931457786006932 6.361871377896377 1.807228001427035 -1.6620778115387247 -0.20762455069363597 0.4822335378276211
Ni 3.409967547172903 7.783969199206336 2.7595122071425635 -0.6034888197963929 -0.2291878786867085 0.6397722276084594
Ni 0.9075840919845163 0.6506853818281645 2.7705841375744624 -0.351628182102517 -0.18239611514415038 1.1885276604177146
Ni 2.6614433314454287 3.2278511238948404 11.58718010795131 0.4549973278194873 -0.10276365092248753 0.3891176944075428
Ni 5.056973306673399 -0.04959925592127584 3.298078396150344 -0.2615686090102592 1.2901610543905004 0.793723971368988
Ni 3.295816318471732 3.5729605770951953 7.2849056755055415 -1.370508028180685 -0.5647543793406726 -0.022472984291535488
Ni 3.7134263431573156 3.3964455780812433 0.32703246948591 -0.26961024836781305 1.2542805384438076 -1.2853343224258187
Ni 9.657921478682972 0.5598768497014063 9.9648299665055 -2.3821877569659877 0.3927534913879171 1.9346592267197198
Ni 4.297938238069697 5.53882671148326 7.339706120367882 1.4931131393091315 0.9358018465100659 0.5450725846410289
Ni 6.463893980102471 2.149572277407194 5.027949699847822 -0.732282833344371 -1.8540343166778006 0.4972017291016792
Ni 6.924529302015389 8.818558806692435 12.39251155593191 2.4155640184335883 0.18050789698250203 -1.9261751005081083
Ni 9.715525441065147 3.261525128527667 12.514389757703924 -0.22254414811794576 -1.521860386645153 -0.006702608831156198
Ni 1.7945411027640645 5.090703419061794 12.816588934575856 0.6982915640005909 -1.6507999246320602 1.0401719226877246
P 1.7658700396693 8.007801738748503 4.294309001413767 -0.23873361339361468 0.27651288902491733 0.39935017076882834
Ni 4.169638503673032 1.5246160420235615 6.189788891572222 0.8780211880561717 -0.6477614164615232 0.2689121938595239
P 8.94629746353343 8.320256478208833 1.0116658488199206 0.5409202530355522 0.8133288900841089 -0.8231065382961631
Ni 6.885375439922181 1.2846057662928931 8.668876406649169 0.29740361643099744 -2.237854767242146 -0.5461272511577885
P 3.2849875216472904 8.64068787025228 7.3315349608988 0.2409365345822044 -0.024180711011261583 -0.6357805899505631
P 2.015970360109444 2.9888507877643784 5.611586313773356 1.5320805217112647 -1.4744561863295766 -0.8043436558663631
P 3.6965566113168213 -0.059313378668451815 1.2038601601270862 -1.2191330440083972 0.9682612525903517 0.9042346132267459
Ni 0.5074806221651128 3.321392103717714 7.106131404200755 -0.006120511075441073 -0.9565593907723913 0.06377698524664499
Ni 3.599219006700577 8.933140194852955 9.402805124895133 0.5827220195626868 -1.1459023695480202 0.21996353187496312
Ni 4.326936596405269 1.8429527445258378 8.555538740403719 -1.3554210519405754 -1.828924151873734 -1.1866872647748659
Ni 9.32435152054424 5.1116129093031155 3.245850491880751 -0.732940521533028 1.171051615120138 -0.45947747507802805
Ni 1.2084675419884008 8.01378656600899 9.439292933469648 0.5847933002694186 -0.5018723951044711 -1.803266856316946
Ni 4.293533779257682 5.136029134267379 4.626277083131059 -1.0311987726548368 -1.9971563168126767 -0.09767980864167693
Ni 5.704279131357907 3.229366033295151 7.175946284452841 -0.1821847704642927 -0.08192203158678794 -1.0743066595879047
Ni 3.2599915165421676 7.178388842078526 0.5309168316654713 2.130279039642996 -0.3703748665824009 0.5608293332546535
Ni 4.291233361279434 1.479280975525382 10.931251456365406 1.0680578504647154 -1.5870342522393248 0.21753126828438665
Ni 9.251776138718256 1.0747534091795163 7.833627368270958 -1.514725575372585 0.5458608848702793 -1.059631316963917
Ni 4.667407808478748 7.279102263321389 4.815219950003114 -1.037701092549729 1.5883740540966709 -0.014910855673561416
Ni 5.933722446456781 8.751781226275048 10.04527913669606 1.23364666424354 1.1594256008454353 -0.11276344244767675
Ni 5.608147843486355 8.570992686545404 7.367955440166635 -1.0127120267045593 0.03615639531589903 0.9290563002561161
Ni 6.979458794715536 6.763659015512052 11.08240574986305 -1.309604507827093 -1.1455226176110982 -0.5539238643840719
Ni 5.719306658557284 6.9880152274395115 1.9222227167202313 -2.2976282877563525 -0.8889656028828173 -1.343663140073699
Ni 6.065388646187469 3.6476587023401335 3.2511059183188653 0.05335681835458552 1.5547604798072836 -0.3725762451090938
Ni 0.7358139388330179 2.8878287738658974 10.19383377085243 0.6683243282145394 1.2718432299179194 0.09076251269655337
Ni 3.378453691129408 1.224841655321386 12.980335678681266 -0.2882684868989487 0.08179604753188494 1.0170168247275002
Ni 5.453898272139929 4.998509025372528 -0.040878240447636736 0.6105102454195486 0.0881602991870159 0.5425279638423043
Ni 9.256021625556164 7.6736707030541025 3.0634357623689232 1.3697287268124991 0.4702647955015191 0.9535208610563835
Ni 2.142390484694611 1.2259077026771599 7.5956173340262545 1.0173649520955381 0.8081344903673632 -0.5743335383886754
Ni 2.0437156452373517 9.024343351527202 11.510220840157022 0.001437246667158815 -0.527309347120337 0.4945282960345741
Ni 2.6630704563568734 6.726459573571094 6.252445357343211 -0.3623255139153631 0.8999074466063017 -0.8362255921766243
Ni 7.146435475283089 4.1210491873519635 11.281723875868712 1.426925230628149 0.17403385922238415 -0.2625564268448252
Ni 2.1235102249462976 5.921537712206137 3.488019981071492 0.4386026885115479 0.3426840855353518 0.19523311900781862
P 5.814315791317496 7.017677527549294 13.025349995843452 -0.8466935815874838 0.4985009075290769 -0.019548868666205043
Ni 5.21000720998254 3.1868924623308907 11.982722017243113 -1.6128722963483513 0.8411132592862289 1.896832385679933
P 7.765135695920995 1.6950059443881107 10.87161919861948 0.1838215347367673 0.4641275722555297 0.230978394928228
Ni 8.009195081345085 2.1507785941518858 3.0054184728540703 -0.13885653999030279 -0.5664744473555728 -1.0547307943385063
P 7.704660886712306 2.5128512921186803 6.994038394999635 0.6039426195043599 0.18491631046284282 -1.8003026314822994
P 7.147679197198159 3.0563390664189503 1.0378625598941782 0.587631283938846 0.28737168611629216 0.9957193488013046
P 9.097648134175557 5.201422723380779 11.869328243242098 -0.27329721030109705 1.2469091856804009 -1.4691692268990246
Ni 2.8118869267058897 0.6929840836209071 4.552917127856396 -1.252255794704295 -2.1472094968497473 -0.47453282674925373
