# total energy = -340857.3725491071 ev
CRYSTAL
PRIMVEC
9.40338529880223 0.00000000000000 0.00000000000000

0.00000000000000 9.40338529880223 0.00000000000000

0.00000000000000 0.00000000000000 13.76280489354308

PRIMCOORD
 96 1
Ni 3.6624681311205665 8.170197165996607 6.789962625510333 0.9750080843958823 -0.7445256552674662 -3.0577163162384497
Ni 4.670548651831685 0.2994855982983116 8.24330096421414 1.2079366610719453 1.092498500005583 0.8779725942064235
Ni 2.7413689246941564 9.073900109566075 2.4324103560163404 2.350035083492843 -1.7575009629357412 -0.3925534595619691
Ni 6.853243647414157 7.869326449039469 5.969162748008786 -1.1034935655645057 -1.4248292673310687 0.30619190414658876
Ni 3.3595380727765805 2.1144828384126053 7.960874047239491 0.291798097318762 0.8124891677916329 0.8376983200674089
Ni 6.332531184871919 8.011806543530485 3.8090904168486004 1.1115627157258856 -0.42325011731487755 -0.1397901075481657
Ni 5.751890947633847 4.175488624464439 10.88161630842084 4.420219728947104 1.2314056907281632 3.3142154811456015
Ni 0.579646299408893 5.491360753734159 3.3989175698535 0.6145921287984061 1.7624907028408483 0.02180809701402696
Ni 0.7745333410103451 9.043884503598855 9.200889067067617 0.515802117811686 -0.7733266386595584 0.0011775652478689398
Ni 7.218649797877885 1.977973893604918 8.519520706533724 -0.8624068785576825 -2.0665725026229698 -1.4418031761812458
Ni 8.817046639329664 3.6074019066393506 3.507520088023054 -0.9278195996355375 -2.2199182373683835 -0.05335347592047586
Ni 6.869906446215508 3.096675839315529 13.211590886365776 0.2624306999002384 1.798590533887199 -3.834586706385209
Ni 7.978283474835892 5.365778542677696 5.042209934215649 1.2779521710291346 0.15317861303992975 -0.07475970951039383
Ni 2.0558621342773757 0.3930022653860329 6.229376047822918 0.07447097462538142 0.9951987004111442 0.6101515765285492
Ni 1.8644938394656903 6.620312389452373 8.718668422027328 -0.4413252296490335 -1.1149532294646733 1.499801864183217
Ni 4.977813670811914 0.6494260009129507 12.232711638452468 1.036839515880382 2.257546075023486 2.7833173882327418
Ni 6.292265888897095 5.727667827028722 9.518011654887271 0.3344614405152433 -1.7550887539498223 -0.39974354955250513
Ni 8.804549540228649 7.156154898987487 2.463734913221229 -0.3939652523078312 -0.8624863256453663 -0.5412120732443583
Ni 3.938194195710427 5.993811841969274 10.791896728328593 -0.30672849337634917 0.11014940186359738 -2.6979989293698954
Ni 8.0829149433814 7.4655262762812065 7.954915121957089 2.0834443386776442 -0.9553967379228577 0.4286926284866875
Ni -0.032000660609977305 8.491285161409108 11.76959303036763 -2.2613824180504407 1.4586719269121267 -2.4787051698684475
Ni 4.815172718177502 8.420148551402209 10.783088577291785 0.8947657545043622 -0.18744293353943847 -2.6835310747710235
Ni 1.2685448909135106 7.8227608848948345 6.851675162741435 -1.3905358933658374 -0.18768076058185743 0.19177987035189553
Ni 4.435689699877646 7.27435545256141 2.754047509132002 -0.20962615450469704 -0.7893448684646858 -0.9537538030027962
P 4.574681138411945 2.860086664461123 4.745965682839925 -1.0166111046486492 -0.7681654061735932 -1.4790121811313754
P 4.098719386646022 8.759789426067005 4.350478102711681 -1.7032213756565697 -1.1385736970970906 -0.22361784079809874
P 3.9800956807323367 5.759065730639171 1.2692388607507228 0.12587041214328 -0.3733612029042344 -0.202416009909503
P 0.9642419383116254 5.486621447528808 0.07330973235621759 -0.6070726804929093 -0.10754410303026642 -1.183328375604962
P 1.5855518170936271 0.4994156754512112 11.043797435512706 -0.09484259630319794 0.772287912982399 0.49149413719394064
P 6.961974991962707 5.95192916371802 2.8563873726730575 -0.5243093839517486 -0.3807662371190539 0.021505221061627482
P 8.374664376570303 2.764322588279991 5.707738292164397 1.9009533498268423 -0.022532890995193452 0.11260403405167703
P 3.127923288760727 8.277988172012348 8.743964468898387 -0.36939836160174444 0.5515260535758566 2.6344705697989466
Ni 6.046047647466739 1.6966622181301798 10.353015345926876 -0.04948730809685026 0.4614289423774441 0.743521382372668
Ni 3.940545042042446 5.2983374631047315 8.443714375372902 1.6370740904055352 -0.5621765913111674 0.03400798151432853
Ni 9.074436102529775 9.044016150993448 1.0253526588817292 0.024462761028054645 0.08730823559936576 0.2825035593907135
Ni 3.687321278542673 1.0700958469497832 10.623440722207299 -2.415955854555368 0.4385965178639608 -3.2644780047111586
Ni 3.4726702016586697 2.006531974846286 1.8064091282941612 0.15655755681449166 -0.6274576719071645 -0.02985179325410988
Ni 2.088040518870054 2.7657801130058433 6.214952195068182 0.6108676287589673 -2.955983163463006 1.9703247984421293
Ni 5.701178490559531 5.2558905817337935 4.833318430845091 -0.6815086881152973 1.3581050265306418 -1.0943931459251344
Ni 5.988179214157755 3.862102001635632 2.645803259943447 1.0800875279357398 -0.27466349452100436 1.0461438240004435
Ni 3.556379137849207 7.795998850251128 0.05935416819081918 0.6136595896818077 -0.02847496751124128 0.35625565357219935
Ni 6.365348999666906 3.1278198515221183 5.7480769345447795 -0.602967142964968 0.9321619357646334 2.1646994261043946
Ni 5.193555540393975 0.7105310794518577 5.5121271898926825 0.08932475180876229 0.6689956432499511 0.7392003863998108
Ni 1.2584738652271408 7.752884328521898 13.202837274963871 2.2673525195909465 -0.6149885929058764 2.6294219516314454
Ni 6.307019800476847 5.918791633821878 0.531012930830614 -0.5629443227151273 0.5843014482346647 0.17060246494333198
Ni 2.4530423237646732 4.016514992107977 0.9998224677160016 -0.7407024248666341 0.6698790742961689 0.005075871861010613
Ni 8.454847043262811 4.914933233123066 1.0668639034125234 -0.35149988405476884 -0.8157966348983111 1.0774516329747894
Ni 6.670112718149867 8.294105574464671 1.4103573450462332 0.46706557183793107 -0.083815649065075 1.5089858446753304
Ni 3.741804493133549 4.503290637001188 5.986916339508195 1.2384762244216994 0.4010956927050254 -0.3873469756603652
Ni 6.914760594230434 5.300829360216672 7.2682883883477345 -0.06011213480054808 -0.4124342576462961 -0.4193867777047294
Ni 1.1723576623926155 6.179528702198785 11.422522540955121 -0.45493330735077137 -0.3988320934818292 0.3031649443948069
Ni 9.227024836248473 1.6692983668254773 10.62041283213166 -0.8520373623979003 0.3036267145225739 -0.6387072766790548
Ni 0.9669030963594711 3.4353293585208777 12.524702738644303 -0.21241940097911802 1.0193637276931218 -0.3366131967509235
Ni 8.260319210980892 5.5507243253103065 11.949830537966474 -0.9850161034511875 -0.9056181238378339 -0.6465938785159833
Ni 2.870778313579146 1.9668873023031155 12.631048444335118 -1.0291079515640793 -0.39956022989710543 1.4484479351912734
Ni 0.12269819277634124 2.7602227122769496 0.972413480161724 -1.010404204506989 0.46918210396030163 0.6090637427810092
P 8.264945676562306 8.96632538141288 3.2401771414531737 0.24793353472532786 2.8269785765661184 0.6120040563562557
P 7.794118173185513 3.394575086508994 10.9593211830794 0.9290758406401419 -0.2701429809428315 0.34097558748467727
P 5.122484754084373 6.3794070607323805 6.666152012249682 -1.0249391648983703 -0.6748695855322248 -1.5932954026576882
P 6.788708213907568 9.016793350468665 7.886348457160353 -1.3135771193215957 2.544099893224173 0.03246249140407958
P 7.0839839165945 0.00011378096246972624 11.213988366227031 0.9158480290959581 1.3991830275178743 1.347716484207466
P 5.6296187282128685 6.765716936780421 11.610605292933178 2.123309807414014 -2.1853458987101524 2.2701974452389098
P 4.7859846101191525 2.9235501120403113 12.346570649020418 0.09762221593086413 -0.466925446715641 0.2901664752526099
P 2.2402155036343165 4.728670976544526 7.422913895328493 -2.502248504406026 -0.47404894513429974 0.0563917485261674
Ni 2.365468596204296 1.4759741678655511 4.279791914861997 1.9891380744938907 0.863349702086926 -0.4666968756446027
Ni 5.433896665994283 7.400135134709762 8.470194308456765 -0.7291430021638088 1.4698631676422556 -0.0409882694869036
Ni 1.1667062278104416 8.524413287919922 4.166083358459297 -0.7693393718770364 -0.775903141137483 0.25906641141369574
Ni 3.314505260440422 5.643169006470627 12.88897672151453 -0.991333561028783 -0.9278653652718084 1.3140064935495306
Ni 6.159885030248433 8.37599965728689 13.079674554952321 0.7779353410761635 -1.2942537364026356 -1.0999809244255572
Ni 4.046521194689869 3.4248351804947443 10.199490975368034 -3.4902270329196474 -2.4629579343365195 -2.3535243275930244
Ni 3.5947731601437436 4.3363711440425 3.359500459235268 0.44417735438584793 0.19024929263998203 -0.14616592916752247
Ni 8.402536010682722 1.124362783678113 12.956345395020467 -0.22822680032501985 0.08852411028433786 0.04703421857066739
Ni 9.486323186670186 5.453286446540777 7.447452969680643 1.1399996309103397 1.3868497027635018 -0.6525166717583214
Ni 9.344868061179929 1.1342551450432494 4.6673110662632284 1.23791366705001 0.3355181639145318 -0.3553650234371299
Ni 0.36895780910214115 4.264388229356075 10.033057637430808 -0.4460172358080642 -0.006409245960453478 0.165221917357709
Ni 0.46784286887366133 1.5118292761215073 7.882825008677923 0.11766087974929415 0.8698867318744955 -0.6732209941852082
Ni 7.320375620357017 7.492927741127221 10.352381557755765 -0.5159692395171694 2.435597282935379 1.342425925232488
Ni 1.1298261505537255 1.0625637353019939 2.477717747204079 -2.4390939832347285 1.3898800049493933 -0.29215959442323874
Ni 5.275600077381442 0.5199432656224022 2.9610263639268277 -0.6492901944012237 0.891889975618464 -1.487725135524341
Ni 4.917801265648129 3.8653931865004583 0.607958011954666 -0.8711452868719448 -0.31563350917546285 -0.48306863213440676
Ni 7.119754394382503 1.6232876024151985 4.057660444949509 -0.17161342270634963 -0.421793330263693 -0.7589120058961253
Ni 2.594384608630992 8.025159350696354 11.160946690606952 -0.6248801409879754 0.14893397883096285 -0.28406550456119467
Ni 8.484853245844704 3.6469995622558806 8.165389215078362 0.1110613721549055 -0.6497434798885584 -0.5231631861624474
Ni 2.73739129270038 6.5146183383647935 4.365189699057456 -0.08570026768229758 0.4715750296725104 0.6482915779333802
Ni 8.265434652599366 0.1890155678026011 6.444736139960659 0.6615530709289769 0.6620480082875243 0.8269919893934983
Ni 8.560625724818344 6.936059261998527 0.04261896332244135 -0.6633034779611803 1.0687242804041208 -0.5346745292361567
Ni 1.8576011580202099 6.644403862662906 1.6832323032046208 0.7804586217186494 0.4106123739462089 0.22343529247364746
Ni 1.2942067294738318 4.374200963217352 5.305932577434219 -1.6919303761237827 3.06906156604794 -1.23101205483417
P 8.529895461566191 6.0741261560563755 9.6137183704179 2.2837921532042085 -2.0689479448336816 -1.1494859731342204
P 4.364929225283869 0.2959480447378892 0.46197515642894155 0.01647665749878453 0.36984727621370495 2.087345987724895
P 2.391374922783147 4.505049070057538 10.843369919275954 -1.3255330061318915 -0.6520939823986059 0.7177761550877638
P 5.603486720386144 3.5677290239401955 8.054255305578488 -0.27192989763992526 -0.1400698435721136 0.3160448856812686
P 0.30652873390904095 6.6719557816741695 5.420893664762619 0.24004281912334144 -0.6404759385437034 -0.9870822419515968
P 1.5921059766672967 3.638846827176438 3.0849460564572864 -0.47864736313825956 -1.8323115802887282 -0.7119024699158062
P 7.079348047627758 2.416256280361238 1.2344895906093487 1.2483106940136177 -0.6790306588884499 3.7223901921845957
P 1.1720567540621172 1.058774171014779 0.32628336580626416 0.48054329460939177 -0.2108659404490691 -1.3614400044411457
