# total energy = -340864.6088068391 ev
CRYSTAL
PRIMVEC
9.29850070242284 0.00000000000000 0.00000000000000
0.00000000000000 9.29850070242284 0.00000000000000
0.00000000000000 0.00000000000000 13.60929568485135
PRIMCOORD
 96 1
Ni 8.233608608686703 -0.16024943324473226 4.224529296018299 -0.6677512293198887 0.07932470317325693 -0.1365165790032165
Ni 8.890873138996378 0.8805243244964804 2.064339709868914 -1.3712467061189222 0.8662133967879662 1.9066794536773422
Ni 2.1231080947378844 4.053885998559375 7.552097307644406 0.7424268637569085 -0.23614862627525784 1.4953502561697667
Ni 4.922654228471848 2.556474023854567 13.5451010354088 0.17538728792648506 3.5580355079231882 -1.1079757697055757
Ni 0.6590284559148205 4.476939890269062 3.750572621281459 -3.346651747297437 0.5297729781694812 2.088477273115861
Ni 9.107797864575984 8.535995855283161 0.6859234396803677 -0.0015881704227262972 -2.0009481797549413 -1.6367935830506393
Ni 8.336942848275463 1.4838361635107482 8.855623452245993 -0.7716006571073873 0.5839088407819363 0.06515741053393939
Ni 3.750531707877861 1.8630662208659123 5.622666756591421 0.673108379866744 -1.3994753619473124 -0.0027320542191823917
Ni 5.061545935188064 1.361291221232313 1.6412811689088171 -1.004974034630353 -2.4406698123622803 0.6181438507054063
Ni 4.101382740736949 6.055462687607969 7.6207834734856945 -0.7158743100793606 0.624417342418944 -0.5828410616390544
Ni 1.9038122514497278 6.28749747701658 3.1880997978591856 0.16776088172947884 1.953691560760822 0.6299290162657926
Ni 0.16308082674376734 8.461198714704382 8.828894911645087 2.934830954865423 -0.3397340017680923 -2.625279390217982
Ni 7.789084478588602 6.864478751264944 7.492161960922795 1.2863833325156233 0.40006493744766586 -0.8166978065563418
Ni 0.2363995056925087 5.9160967573500445 1.5820804037518164 -2.639699936518686 1.0568918065455668 -0.5624465571431023
Ni 4.884288614097403 9.01352036478381 4.5130599166959975 1.1440156940482684 0.5233799301589438 -0.2683447513918282
Ni 4.9506985069384815 3.9681631195196228 11.40230336518912 0.5336095783067519 -0.630141903607547 0.4273646537038833
Ni 6.6566758549876495 1.0898307883560219 2.9623898487068763 1.1436233437058563 -0.21401631315259273 1.6137924941697754
Ni 7.978532134251463 5.425517152701136 11.539390232896588 -2.030936241476599 -0.319064903454515 0.8165170580041035
Ni 1.8160622992316844 0.4779689778397416 1.6442074071161945 -0.16528233828199923 -1.1186458478249122 -0.4017472102460952
Ni 5.140983027674949 6.8989575922975295 1.5287321150095698 -0.6654446926738992 -0.5035112162594748 -0.0007857291260889693
Ni 9.048129384827845 2.822745893274498 6.965823111678683 0.6256003069834516 -0.7216708621564798 -1.3925318407499436
Ni 1.4259065034155476 1.7658596933161161 8.339109398966022 1.2127289402542663 -0.7412138172854138 0.3938932614193152
Ni 7.411193405351209 6.819474007306554 0.5395129652028404 -0.33633937426424654 -0.2711040593045202 0.27493166058072654
Ni 6.000183100245856 5.487361481640652 4.360023330535672 -2.0661354150855513 1.6889689795026137 0.09029894279657351
P 7.62640720678033 4.55762298186554 3.2369848062088646 0.48551863633679615 -0.5714377048981192 -0.6189452635607792
P 0.7537969165501766 4.964562571657895 6.104585737578585 -1.9557114194043288 0.07408479493055628 0.11471490974709275
P 0.5098265714917749 2.688735899487655 1.5944102158362845 0.24921960052660305 -0.23014124373891334 -0.9524805927173274
P 0.5612444914642359 8.366084349838601 2.912335088954312 0.9478045273978966 -1.6263765014823732 -0.06110972282712702
P 6.461928053858614 8.371263614794143 2.402367180250106 0.3411578786988125 -0.6620544360454275 0.13483224932225812
P 7.512630750773126 0.6631923245810534 13.370806216678707 -0.9131054333538146 -0.4760484920628318 0.011180442096851713
P 6.08122883337423 4.9439663923463595 7.03925895173773 1.5349527010527373 0.698099759704759 0.869165794548071
P 1.2670137214401394 3.0222080343181825 12.03617007789084 -0.013567711382105664 -1.2580279213013819 -1.5015481574503622
Ni 6.126103398321171 3.0735264603318924 4.19899840232273 -1.6021374264293504 0.23466252864803458 0.6209157570235886
Ni 1.4050406675802936 2.2162976699343697 3.4660431455056813 0.6993248903611118 -1.9125770501086996 0.021488766001395248
Ni 3.3652204309878235 8.224496077885211 2.6575003755403355 0.6433105797790212 0.4389060786845796 0.1042338077101108
Ni 3.05282799751136 2.3191111934773287 1.5306782912307457 -0.6012848701665386 1.7212982877629388 -0.4519366866162926
Ni 1.7900636909449776 8.284787557188146 11.690249110165375 2.637436594405806 -0.2869189148495897 0.2957527110911358
Ni 4.426421135325688 4.1464153801977925 6.062355666264241 -0.6294991278172256 -0.6053112177171123 0.5181811595668238
Ni 3.037866709695441 3.33077878395851 10.175071419797984 -2.127694309634955 -0.6237439705010032 0.10409136859497556
Ni 4.521219351163661 7.7329773246536995 12.566429175079756 -1.440713542661493 0.10409368258782074 0.8679774306669246
Ni 0.751027823006621 1.1295632823506916 10.790007314684646 -1.6143257409654264 1.4302951755416464 0.23437739330744797
Ni 8.381622144705227 2.473029277515187 4.211369127810797 0.5085418367048468 -0.5645466342052406 0.15697741796072964
Ni 6.5012886078205705 7.817435607582225 5.844879539586137 0.0516226092722982 0.055513973906904386 -0.3760958282265781
Ni 0.6177198660315252 5.881199483780656 10.456212521875738 1.4155936076654136 0.33617739476508557 -1.246297520238331
Ni 2.5855411374111634 0.8844836261447206 12.791812746853358 0.26867230993457597 1.9840447191313828 -0.7925636325122996
Ni 5.517628101802751 2.0835708692603894 9.310404758596265 -0.21771715904294764 -0.5246973634187866 0.7731924270745394
Ni 2.6247808108624873 8.918684954942565 4.921719729139655 -1.2242793640960272 -0.032105622285293095 -0.2188404740141134
Ni 3.600007576638517 7.442799009631078 9.864235555358428 -0.1724631723011546 0.6378215316399918 -0.018973455778709257
Ni 3.920647780340413 4.45152708753388 3.775667415288671 -1.2996098585082263 -0.9838359671001573 -0.6269550212391332
Ni 8.219130842913312 0.2535682576025856 6.661491548561213 1.38870938168006 0.1875995137219608 -0.38286759973277285
Ni 7.049249261016426 5.65991376131748 9.242413190766069 -1.1990658409448771 -1.261097047145009 1.4350550588241349
Ni 5.678427076445818 3.9507191319853376 2.061304679201968 0.06100379337688203 0.5856494776221268 -1.167518148045583
Ni 3.0104082367803313 5.972613045320933 11.613097589179517 -0.07864156106330328 -1.171485617333763 1.0315715826132235
Ni 1.6256383009829494 8.734286385223797 6.999192641563698 0.3219172853016456 0.6159594414595779 0.5579198729173425
Ni 6.256579961797231 0.39833382728543526 7.69692796683298 -1.2767717775677883 -1.0631480718679238 0.34575192582739805
Ni 8.15143775695937 6.513320867878867 4.126161385716354 -0.4461946419261928 0.2511337868301804 -1.9113195235525149
P 5.375574904808468 6.443172977709012 11.13730353068107 0.7516596952090862 -0.9626500770511616 -1.4594352874407124
P 2.864877400480173 5.449088852274384 9.460475122995698 -1.0734106301361965 -0.44522970690976227 -0.5832619512265568
P 0.5436842726697276 1.0505539209014265 5.415900643155316 1.0630634825739176 0.07494714293085158 0.13176929412621824
P 3.974002578033232 6.526515440539395 3.884855061142266 0.784362841869062 1.8519234409823848 0.007925682604979898
P 4.169085125191709 1.7430690678115677 11.27992858547565 0.9391388813030987 0.2913370985219434 -0.1304300064895044
P 2.0451308668794006 9.34201780167679 9.794692067741735 2.067081323938589 -1.9146920395691736 -2.650875236409215
P 7.428609497383039 3.362291403230201 10.024811365981869 -0.5966874806038434 -0.052855196127818645 0.2459635554831506
P 3.620752531963139 8.977535166618733 0.4992430178608989 0.9505656350828017 -0.527079233387402 1.9412849595663533
Ni 2.54011796091597 6.03310909164186 5.597503153678158 0.6244993606097891 0.4479077679625576 -0.08979346391506471
Ni 5.436759040189916 0.6437714757728935 12.706020129057475 0.06572922387700937 -1.5882334147537485 0.4718545085861422
Ni 4.834253381196556 4.342567254950323 9.154496795383386 0.9165093168290409 0.7749495189749621 -2.1777459748757075
Ni 2.043624509746909 7.2906941332527 0.8625121985622246 0.7785372363262205 -0.20962024096742607 -1.1656193883609731
Ni 7.193022680662012 0.9679646366372895 11.014112342595794 1.5027084963070507 -1.0980225151476057 -0.8208354828737993
Ni 0.13649641290553635 7.634571290498401 5.452904957010029 1.8413937450956546 -0.15923484653633865 1.779630704955245
Ni 2.029128146971882 3.4089140863308973 5.251568238201467 0.7102297101990735 0.17430151106147398 0.9315505274328796
Ni 0.13140548370776386 1.3482268275832348 12.961615459838349 0.4249449885187972 0.8329147826358365 1.3850812980091696
Ni 6.9444179627959945 2.7138418516958476 12.287642453409083 0.6701719229462395 2.408833127467658 0.7287007724200676
Ni 6.841390573734224 7.8677219000051535 12.064354763719823 0.7214479475123962 -0.04095921602118107 0.14396069398608755
Ni 5.572331182114159 5.370721087381551 13.144661097688122 0.31630482421087464 -0.08594323693103909 0.7916778874732365
Ni 3.0522235949581997 3.680792951743991 13.042754177974903 -0.9148147027354374 0.5662625884550828 -0.40737201263204037
Ni 6.620737149326662 2.598540441554517 7.226114185372573 -0.12404904266382508 1.5994719637820451 -1.209539229672375
Ni 1.3769220011071175 6.288892252139257 7.898780752436934 0.26117960110195665 1.4441441656095968 0.022351885332638922
Ni 0.3418342766160196 3.415711290428745 9.974443246751743 0.34965357487464943 0.26323211275561115 0.39469184606121055
Ni 3.889079370063815 0.07743884466113037 8.416763968846126 -0.8118718459226082 1.4058396136024434 0.2889133195717992
Ni 7.7494263726004755 4.540299874841887 5.456443036571221 1.6545259673333956 -0.1585388489105786 2.4447192998413056
Ni 0.599657528192853 4.855509754066159 12.749202366855565 0.2697884258168902 0.4992187595317079 1.331366324984217
Ni 9.005625937589455 8.064478177310843 10.95825903773322 -1.7415112723757038 -0.46886637249209573 1.9699059657371556
Ni 8.906197068344195 4.804684148595794 8.158269365510243 -0.12851196353118513 -0.22384358365565962 -0.0073204449208132
Ni 1.6834470805675184 4.341795479382442 1.895026098026942 3.6556836919959816 -0.6089837814726932 -2.4290571678240167
Ni 5.352403040770388 8.995955496738892 10.537255465453867 -0.7584237534057972 0.06932079788300964 -1.259015996246264
Ni 7.65922161616652 2.5793018433623867 1.1094431862810294 -1.1342812403693239 0.3706142362867166 -0.3833645939738494
Ni 5.6826207003146685 7.536992822915891 8.549223902546634 0.7657879070803522 0.28404750683906566 0.6274422452881968
P 3.8681019522187468 2.2907693629845243 3.4997799661730022 0.3457496118345529 -0.5940050486756738 -0.17358623016200428
P 7.692370771582151 4.595616656207272 13.838884379198502 -0.07827440753187165 0.8341671669856988 -0.7710157311381947
P 6.397098906156569 1.2583196231754503 5.307243941698421 0.620274523895164 -1.025070548269912 0.8987080269815619
P 3.630311390803888 5.28430082078046 0.7699828169238067 0.05265773540503189 0.41849383357681474 0.22816175141503928
P 3.6418601288196566 2.4402520621322688 7.7726503082431355 0.44991091443551545 -0.15727618014807107 0.7399971712694934
P 0.5374514875715233 7.0079825143868115 12.763995351806683 -1.126267368925912 -0.5925413196459537 0.6128926296087961
P 4.464814645202587 8.184001106823478 6.752047788326083 -0.4281709516552626 -0.4017364116128178 -1.2367610415028054
P 7.610869411913704 8.695474442810093 9.441027308535165 -4.235239140905229 0.2733445185992648 0.080708470894661
