# total energy = -340890.8240179964 ev
CRYSTAL
PRIMVEC
9.06809660246318 0.00000000000000 0.00000000000000
0.00000000000000 9.06809660246318 0.00000000000000
0.00000000000000 0.00000000000000 13.27207599495523
PRIMCOORD
 96 1
Ni 6.383287055686744 2.0807110216890736 11.484075032450125 0.34557349126800485 0.19514081640432845 0.02339523899548874
Ni 4.728776571008952 0.6991112498140557 6.088312757211583 -1.5592434552793015 -2.2887808646680514 0.9182527818827089
Ni 2.5076642107125235 1.6637327388509944 4.674239224845266 0.8044518993094533 -0.606936154915045 0.8593194978816104
Ni 3.5131891627770537 4.415446631533403 4.905531908613715 -0.13583960754084995 -0.1620903137072628 0.07485689720989044
Ni 4.670876774651143 4.527165580809552 2.10841496340446 0.7664610218879767 1.0733782342363642 1.8214579254036758
Ni 7.05508791917491 5.9633707095722475 2.268728935186774 0.5652500880301685 0.19425507136526543 1.237756058426223
Ni 5.102182650010027 4.591549066187852 11.597365482855297 -0.7659465441454035 -0.540249966441405 -0.6609102951386553
Ni 5.44805798793948 7.741089421832429 12.745877994658152 0.3214146346336142 0.5137161818169346 -0.3901512778783797
Ni 1.746778366892469 6.775364345447526 0.26901052448429486 1.571894054163777 -1.1174752245555786 -0.3580209730027382
Ni 3.167322892944133 1.6868563850079892 0.4535707727742842 -2.281305382226613 -0.4704815394980155 0.9346417647636936
Ni 0.4201276327636968 -0.18699593901852612 4.8865659847167136 0.7060143865661453 0.09903529422830686 -0.4174039429467457
Ni 8.796788152009372 2.317923358873714 1.2205766749438902 -0.9982670549238227 0.26075896862477027 0.33437813677281764
Ni 6.942516568824738 0.8822967746697703 5.307423599251249 0.6152518738695921 -1.0588198768062154 -1.1793159120114594
Ni 1.241957432947405 7.503886152744321 2.37923185271796 -2.671191579369064 0.2903081430367968 1.4875302459047155
Ni 7.575560387734473 3.9619511239603358 3.806311755940348 1.115918164481104 -0.690419874561998 -0.43919121402516625
Ni 7.718011116158094 3.937621420964564 12.678521987236612 -0.17646355170979933 -0.2611906568455502 0.3809847808877632
Ni 8.204750265618042 -0.7480880391842244 6.884132536112112 -0.7465110611286111 1.3002698606897283 0.08572186494885235
Ni 7.073949559961791 0.7688476325752865 0.2336286254351328 -1.2168864140660656 -0.6285581040601949 0.6506469655394342
Ni 1.8885036475935182 6.523724666680228 9.333322033146688 -0.18302372142582027 0.09298908803422695 -1.073545355941848
Ni 0.14899970773914384 4.93269085772752 1.454659612015284 -0.5635917264911391 -0.8664411965280561 -0.0012760384989461894
Ni 6.187742622067356 2.2629706938888554 7.221521949306775 0.8692074464192837 -0.5004839993973768 0.2841724624527041
Ni 3.146910607650252 4.078276666274819 0.36371681785646753 -0.2006666313185641 -0.09485416626742374 -0.31167246764518586
Ni 5.964132429680948 5.468071276985945 4.78376006752202 -0.8763350586030003 0.6915300769070413 -0.011073227095026091
Ni 5.475108119894898 3.117103774349059 9.284785953267981 -0.6111427367972249 -0.3247719811416213 0.5492948502524927
P 0.37106288285716627 5.437330429741941 12.530033720141882 -0.6508598528811887 -0.30786877762837944 -0.8486638179399771
P 3.763477695161061 5.964712787859006 12.850316169228634 0.5852237029386179 0.6954106429083701 -0.20773845056368093
P 2.570487983487293 8.67894823757402 1.3403199828413426 1.1838652219450385 1.6018494628752864 -0.39934631411408644
P 6.2127252280134435 7.777552237988223 5.867226216090075 1.1585205725326628 0.7293162945168795 -0.6858188854548769
P 4.710867080357946 1.0183381724644647 12.507670887283934 2.2817172729530513 -0.09297366141525924 0.26728699955127516
P 4.121195967161508 6.3367223799941295 8.192639822699348 -1.3640897833591668 -0.5645294078140599 0.4340320384217299
P 4.815712412462721 1.0883257414996363 3.9433724077852568 -0.10426106140362044 -1.7389399121041018 -1.346670559441455
P 0.4106995327992154 5.824701377402534 3.5390785783763556 -1.3209903810665315 -1.0148702106981426 0.11458635458902847
Ni 1.295114614818897 1.089359504504302 2.6248983762995284 0.5310793556857305 -0.17252410744607705 0.06287169982355624
Ni 2.0743089455373727 6.686533271818537 4.66274541249076 -0.1115200569588789 -0.5269103119097055 0.3038699408816315
Ni 5.783677308691065 5.672720079523618 9.41128227265293 0.7222143933647756 0.45431469993016593 -0.19921447225306982
Ni 8.68214927564987 2.2604044225702555 9.95489289632394 -0.20094739578377652 0.5039768430419836 1.226186608421069
Ni 2.2580467174718954 5.20029038639141 7.08381111494051 0.8137011858218631 -0.5177510140079405 0.3281547815709252
Ni 0.4252112076796229 -0.002184504454596119 9.451482958199279 0.5463385958376462 0.10860391175334845 -0.3363655995164917
Ni 1.6637508750440586 1.141274357150889 11.641641370983196 -0.5271190854864019 -0.22918299359070207 -1.324068762881539
Ni 4.020268052758624 6.943414310381422 1.7236048462045472 0.7369624982082276 0.5282580841868515 -1.3882944056298285
Ni 5.728271238879599 8.023977761249533 8.071678669437627 -0.4866923449299231 -0.10584331828907578 0.12078811252436615
Ni 5.258090433687367 2.7058655966158334 5.096795293860274 0.3440974209431106 2.7923476167558103 -0.19201229807767578
Ni 1.255886029220795 7.286750581281871 6.823771658355477 -1.0716954472173028 0.14297313326183764 0.5976380174425707
Ni 5.076420187762174 4.699359665858641 7.076259204148531 -0.0695586249254286 -0.4668691395564088 -0.12053665863519242
Ni 8.161531717545792 7.297795522858035 9.058855234978996 -0.8207586068892768 -1.1830938909966529 0.5933301340958362
Ni 4.5469612355392455 0.13196528840349084 10.514841509516934 0.11322624101670824 0.5503353757018651 -1.1401248436342946
Ni 7.869167217252584 7.112334812582404 4.3330276089623005 0.5785689166262615 -0.014345727198710778 0.759435225389447
Ni 7.03687011324181 6.158742849357525 7.009952375495762 1.0082629897942699 -1.0592975877735822 0.016179180863023748
Ni 2.2869920816025338 5.380908733118873 2.495534724791113 1.1424241811914324 -1.2291958275610377 0.15520104278659724
Ni 2.338743708511542 5.104984691838463 11.2316799812417 -0.8542212574230965 -0.1483346546840671 1.6279376753219061
Ni 1.2319099819897772 3.5787424326080015 3.8831702217179336 -0.17257835772278018 -0.14318216394885017 -0.44439949769898307
Ni 3.825702973564708 2.620788714951156 2.860424047529188 -1.2006447553962225 -0.3547608141942277 -0.4159594971907353
Ni 0.9980800448116306 3.055875986563949 8.13432289390106 -0.8566321808574343 1.6779268627558392 0.1128840271859411
Ni 3.634338932446643 2.785392803202832 7.430849889655038 0.5623722522617411 -0.5532733752842665 -0.3144330611094585
Ni 4.085422326342157 7.046047026932351 6.09447090156657 0.7590742425056024 -0.3763323697174164 -0.778708214686446
Ni 0.584593885948084 7.352185965857901 11.448466430987661 0.5261968307824485 -0.1643048048600783 -0.6029404034920907
P 0.13420420143727987 5.633038089098908 7.898663921652378 0.025974055466258493 0.19410157650653667 0.33317743159649715
P 8.447811525065921 1.297635545654836 7.841938443795484 -0.26692216001268865 0.13078379028449733 0.0495605845369469
P 1.7920463047809863 3.190573492452578 10.322768343250054 -0.3371770396741935 0.27945654503427353 0.18499061534420397
P 4.059025097337054 6.218166085932736 3.7825950562701505 -0.17868344217925355 -0.8548239240041019 -0.3381355469327209
P 6.971090140997559 4.072754195486737 10.550119125455975 0.4776875703281515 0.051474256619892 -0.5005817013175056
P 6.307405223905672 7.6992129520469375 10.312031716955982 -0.2375971857963263 0.28270281988571316 0.35986342552811573
P 2.558799207057345 8.629608724342564 5.696839402679844 -0.3066243636983171 0.8771351859067926 -0.5335386158595005
P 6.894945334417054 3.8013551343758722 1.6383583911347184 0.6274720700848677 0.4770730766726042 0.15987865076792465
Ni 5.3694647952952925 2.6951924469974875 0.6127729959217555 -0.029006414534679077 0.5644499607263762 -0.77632505916625
Ni 1.5772321660307687 1.0890783935118051 6.898068386862728 -0.4290250721254418 -1.0689878184781525 0.38170597532450395
Ni 6.696861833768662 0.8718739045157113 9.384578541985041 0.2232969671235703 -0.5738671402752181 -0.7616535731970044
Ni 2.348609797538526 1.4862156811375298 9.13969550194385 1.8150813324533708 -1.6073775917823672 1.1263131345621828
Ni 6.564866620646615 1.7540872526973859 2.6211423707159103 0.6225028990050504 0.7709676515090788 0.6498946607544421
Ni 3.9568820579988615 6.913933928555386 10.831845841707311 0.6514411793059556 -1.1604612411988016 -0.8019743843032381
Ni 8.410514444029168 7.11572628068543 0.29297841042843353 -1.3115991696596185 0.41602531743166415 0.8829057698419827
Ni 7.645384731032065 3.925306945873898 8.127540864504661 0.49242410520737767 0.6350118301053386 0.1405598958346547
Ni 3.1753028178924287 8.534547868395984 12.4687433624907 -0.5795477355997632 -0.5737653245900312 0.7317788971247591
Ni -0.03216725882851313 4.951226047039244 10.053159324394636 -0.014745790850606863 -0.45262239982940755 0.4732483036098753
Ni 8.935910889005692 2.373002977210023 5.722069567661259 -0.6906947254899395 0.36795391584573406 0.017395569768628105
Ni 3.6863626022516156 2.509477830018955 11.324744042331899 0.17135476972832425 1.1716820496152853 -0.5151135763850935
Ni 1.0129970636070256 3.280565282437683 12.597455924668107 0.5602621478972738 0.5584212380337931 -0.2934315191571269
Ni 3.0950682997759227 8.350782892171864 7.928565969967159 0.3563145318345928 0.24101623878020426 0.9940201067220106
Ni 5.690575161595431 7.724240898475685 3.641300510154378 -0.6521628879633284 0.9276234244643315 -0.17819956056429953
Ni 3.1453508950467213 8.505384869948573 3.4920559638088666 1.2177194514903222 0.7164661780270887 0.6647564083576228
Ni 3.4344871529744814 4.442950168315429 9.200481673427845 0.09588852106920905 0.0510058016239057 0.22958588545607558
Ni 7.15326820032855 6.2165066242673515 11.72731221297073 0.5116898954155252 -0.46542006581470813 -1.4834697026820967
Ni 0.6971126413383686 9.085507277496651 0.35367843499537205 -0.4506801885013722 0.506374653850199 -0.35793972614284164
Ni 4.83262441249519 0.4120842311396754 1.7477196353125068 -0.5239198618228138 -0.9263674405700433 -0.25943922137208225
Ni 5.846210902376805 5.402282236645162 0.36290340959753326 0.04657861909048752 0.5942089371563638 -0.5000613100376613
Ni 7.888618284314057 8.881937578446307 11.421895094529141 -0.5182130412460237 -0.4921561962579717 -0.5178232620067728
Ni 0.2871965920795315 4.980797109830601 5.602355277672708 -0.8672552077889193 0.18087762161709495 0.7911251002935602
Ni 8.109834499215976 8.860210419155264 2.29589695239711 0.21354348728123224 -0.8864338375998991 -0.006461182244311452
P 8.495881504782876 1.3728372701959968 3.6881508308877566 -0.37934775950497246 0.9787202431401466 0.8234011867184464
P 1.7104425040881244 3.080169417173592 1.7871377441281309 1.0255081500279628 0.8728075050657161 -0.7050954742963017
P 4.5436785845946055 0.9232863846144169 8.355740420545994 0.6556816997498643 1.4848334157988428 0.45366781037478643
P 8.675058024161723 1.5913421242348016 12.285350178224398 -0.3753962310563922 0.6795237964747847 0.3762300398115972
P 6.332288080789906 7.858475931441174 1.4312875000133076 0.7621672796086294 -0.38374768834488104 0.030248000251264034
P 1.9461676734414912 3.206206890874013 6.2130571203465195 -0.32565618351878756 0.5733665464897157 -2.3395771213843126
P 7.058098527223585 3.9376395571576284 5.953614344513301 -0.35613686860614796 0.11292542194683779 0.3459013069210688
P 2.324053392129451 8.385504633793486 10.354940136126833 -0.1984966202504388 0.8282849971733091 -0.10632257191833946
