# total energy = -381174.1622475145 ev
CRYSTAL
PRIMVEC
9.22658215720356 0.00000000000000 0.00000000000000
0.00000000000000 9.22658215720356 0.00000000000000
0.00000000000000 0.00000000000000 13.50403562428178
PRIMCOORD
 96 1
Ni 6.12583222119034 0.1292884019662402 5.724698267816657 -0.556915342912228 0.04744816617963441 0.4261909451107564
Ni 8.459686894053226 1.1409498950047312 12.173077953441636 -0.5020552005392386 -2.120416545026619 1.389100960691524
Ni 2.7162319078290524 8.370899496131276 3.598730480415565 -1.0790809410480964 0.3035593516197482 0.45613246986519507
Ni 0.612509409463586 4.630323235741389 4.22838380176513 0.16246492343786212 0.839100085510942 -0.22244336087402336
Ni 8.986192565363442 3.6747630514761105 13.282893670378423 -0.28287636934909993 0.299917898212419 1.3052068929800296
Ni 7.506774738802144 4.053809490365187 4.423732685040898 -0.8996457083044828 0.7413297740379878 1.006005561218661
Ni 9.186317127446692 2.8304938984624766 11.233898642736643 -0.08256737848027071 0.8260329679143388 -1.2441696752620508
Ni 7.151145364853929 3.129029183421704 8.22266154019516 -1.1336801164502153 0.4951116793418699 0.6811865288891882
Ni 0.893842655070669 8.134357615166394 1.8126598221121513 -0.6169030363197698 1.3847359988546086 0.3089653531266679
Ni 5.2012272193035445 4.284953820900438 12.63345671205242 -0.9234530951367258 0.16826224684592958 0.5318051781081615
Ni 8.909491989771093 7.96929406442092 6.657246434087844 0.6745224866054512 -2.167517355169164 -0.13492223793290312
Ni 4.8587641777708575 1.4818075112814257 13.479268549564914 -0.3889598286734398 3.040150796550861 -2.2742693013154383
Ni 1.2780199961715712 4.653168252602529 11.697303720220795 -0.5754571104701574 -0.2825614092118424 -2.611627346652186
Ni 3.7322354303242693 8.923820871509927 7.270680347060915 0.508478330456763 0.27674248853722017 -1.1166131336655996
Ni 6.324868046605733 0.19261596970780753 11.476120407538245 0.04534860333812835 0.931089785746377 -0.6298719377756121
Ni 4.899527216741987 2.3518834139560485 6.353486135781095 -0.7001748970662329 0.02246784208521292 -0.8605276592570985
Ni 8.032671455704914 7.947519331063775 9.095575539471758 -1.3026013370363825 -0.7118263652622322 0.39869299680080367
Ni 0.4801042681210562 7.459553092479319 4.3841386540004255 0.9060071317461366 -1.1730141381631476 -0.41269085374179243
Ni 0.8390847366266083 9.142269425308129 8.36504799787064 1.9262589184711665 -0.8091032820385357 0.8879477031412643
Ni 4.855700952569768 8.415639191914664 9.656344122782718 -0.14226016635521307 -1.1857742660422932 -0.3785658870336254
Ni 8.445810114829012 3.6401449160710224 2.4392203931984473 0.10779170026469823 -0.7319012816352363 -1.8553615201296563
Ni 5.991336336382247 3.8537033814457993 2.649788523369389 0.007051507530142695 0.05587264279790377 -1.1467526333634572
Ni 4.19804864569241 7.232948240254117 1.88437988877815 -1.7203721764042437 0.5902748922092801 -0.805293164263826
Ni 8.138205099831618 6.256554433988656 2.768003181702051 0.44529809825385247 -0.6085443799424294 0.21132231126019735
P 8.247863026081477 6.072834734578713 5.294675886417034 -0.13506750526151576 -0.5177990936370567 0.23114808773687287
Ni 2.5360552158806104 6.0058128434319755 4.543742836217331 0.6945179558907716 1.0652139532580172 1.7104060663304672
P 5.895730494413291 2.2358130132641496 9.843320805614301 0.807472688413648 0.4574912978859347 0.3636917981352704
Ni 1.6844693833956992 3.238142741337634 6.060273665937857 0.2781388546641146 0.9896579730985732 -1.8930438651717783
P 8.487052936060554 1.2561345438312546 3.062445554916689 -0.64867081564967 -0.2824999598462877 -2.8422807541408273
P 3.3630983404290795 3.1628815125265195 0.3177634817034178 1.2145423393139212 -0.37954264912459795 0.9469200679104143
P 3.3100547209077975 1.5848961111964168 4.196419231323397 0.039156101374171276 -0.49768149695157515 0.044617638709374775
Ni 5.631877930932669 0.8656185409437596 8.117816199080508 0.9737937523728069 0.22614832052943631 0.17611259612828378
Ni 8.006412603529308 1.0128757112206097 9.455498964650657 -0.7057572762500167 1.9409352895364185 1.069444960620229
Ni 5.363725780272204 5.484538644076633 8.518277534631421 0.5783925389493975 1.3489693827779607 -0.21518873619413909
Ni 1.696168689284199 2.110995812901669 9.958428873810798 0.5536212455419884 -0.7664530514681768 -1.0626096828659506
Ni 6.151223774664434 1.820589146623647 3.9065827678087093 -0.004319196200644174 -0.43974451542547494 0.27062711966810166
Ni 4.861218448564502 5.767813162521996 3.4255143218758644 0.5988166111317041 -0.10298502290467423 1.9062081704678784
Ni 1.6276889981923648 0.91210944197765 5.631560536514242 0.8869058921403113 -1.549470692163254 -0.9053278462909247
Ni 0.3954642187770869 6.7721542854564385 11.914489154952642 -0.10321230842413193 0.6489991455233661 0.10692600983029327
Ni 6.632399248947679 4.266325351981762 10.64216565046527 -0.6454564224774303 1.0953105155330816 -1.5908461697862473
Ni 6.288865923910995 5.123908462721819 6.239391146280622 0.35237663023276733 0.04839021837792956 0.5743229968657141
Ni 2.74425303715348 7.250266534538592 11.03495785111514 0.8894908792586681 -1.6135783212764403 -0.9858442557794377
Ni 0.41971536672451026 5.890914218645313 0.6900754384410626 -0.5365100397829986 -0.8784325645619776 0.39680683552168433
Ni 7.58092877778154 5.733462597992908 12.536484413299485 -0.22036230997527856 -0.9725917616449057 1.34599744463383
Ni 0.7734006998598653 6.5185985874108034 9.554266756247364 -0.7505325235831785 0.8079475711675376 0.2399088646486384
Ni 2.465859380549612 5.114737240282411 9.037426852168057 1.008768982896411 -2.505870160319013 0.8473651537332118
Ni 3.0600697100694583 3.829280619074459 3.7646816283428013 0.4878403424914372 -0.39280465634082673 0.1417893973663816
Ni 4.102535069542764 1.2663114637011406 10.522465512441716 -0.2668419415940566 0.7796623510695991 0.7994816997883715
Ni 8.10293187710943 7.590441383752394 0.7095868912505346 -1.1158546582330202 0.37387465220554317 -1.1388709166225353
Ni 1.929222922279165 6.243185116770647 2.4625691814330195 0.4401587201447581 -0.7269282539006772 -0.8664645935668238
Ni -0.08303277877159024 2.375032908020911 4.629750265003473 0.8116237344675442 0.7940849542528324 0.8728594413495742
Ni 4.692325866317665 6.9856020318480425 5.46065379143187 -2.509808576141471 0.5242728742868584 -0.1462212078854901
Ni 1.4951491487536426 6.2107998141928595 7.179690564032036 -1.3469515810169834 -0.4775227626155131 -2.19293965189701
Ni 8.485613589279318 0.03907826511053008 4.7972680865425925 -1.0804590523425457 1.3907981458882888 0.03493820663808176
Ni 6.718796962149502 7.463142232850475 4.37347087997181 0.590008525921771 -2.0727513777401723 1.8272405935237241
Ni 7.300560632644438 2.1770581395275825 6.1672521927949555 -0.7301724718695877 -0.2776107500747864 -0.94500768137905
P 5.264272453638024 3.8765760780527323 4.846760394678635 -0.638781581560416 0.09120885620535259 -0.6190121122429727
Ni 2.9118723510938396 7.21477187385006 8.47709099554966 1.2742945196718893 1.3439701297911564 0.9195193072999583
P 8.006753987060753 5.953904093488205 10.415257243694537 1.5199852811096275 0.36590603217776985 -1.066567381962118
Ni 4.458967156118976 6.4951353895602875 13.07298616347374 0.13343074098904115 0.29614891808828997 -1.1425493939153872
P 1.3341729738035981 3.447115595492707 8.086095210401753 -0.081640238680311 0.8834076491790657 1.3364355119770082
P 4.382423432419453 5.73729162949427 10.375987988338034 -0.42714636704549014 -0.28722976122178917 0.783729064939805
P 2.727119274507625 9.124692786729586 9.640436572875492 -0.9354254370072536 -0.2807539236894584 -0.6017103877397315
Ni 4.3998708988509625 3.465218149241316 8.525232532091005 0.024970811012724737 -1.2612078616912603 0.6156915325101718
Ni 2.0202985125200024 -0.0023961433274790247 11.937621118511839 1.76573286392723 2.07662937263834 0.04869386566127743
Ni 6.3068762118402955 7.0389593551549785 11.070432213323423 -1.6683497605903654 0.028026310009596895 -0.9507597533714786
Ni 6.863119156714103 1.7538625060987016 1.410023781200103 0.833655517456603 0.7062630122418417 -0.025874039553284475
Ni 2.8337139755563934 0.21902152453611798 0.930331018633169 -0.2698110515247095 0.7859468985267303 0.6751151258841277
Ni 6.091546242734768 5.979941507697469 1.1681710796757416 1.6331786120058713 0.07168775545328944 0.20564660103165872
Ni 1.5528152858223523 1.4635757853857825 2.8004530703533552 0.2508188266929229 -0.10058849764803966 0.7516010740570088
Ni 0.07854773729493428 1.7343390587327192 7.256231519756979 0.6172707040718337 1.516253581981337 0.015112687271722361
Ni 0.42823150184681735 1.543330359597291 0.7696113426608062 -0.3086501358790943 -0.5144677152709786 0.10094716653903905
Ni 6.801559402070514 2.5836090191529513 12.059427685190235 -0.7969429925269178 -0.8313595223335747 0.9413875681279593
Ni 4.138380340344674 8.801005839426471 12.537713394012693 1.234541151033351 -0.8617026534018063 -0.5912547396240463
Ni 8.707835815087298 4.186266300566531 6.599084829569439 0.48316273451010977 -0.30275356788900115 -0.47437547523578305
Ni 5.244241544265837 -0.036089775223081266 1.3979784784891909 0.8555608021701266 -1.3991483176251969 0.033025562996401185
Ni 2.136737976489141 2.299688639972418 12.436122268345102 -0.9715126696481139 -0.13628286572585563 -0.0007080818106181354
Ni 2.2461375584449312 7.347653106820229 13.437270993931419 0.019340866420457015 0.3983273859312688 0.6735297836748787
Ni 4.0657210076381 4.8702974051845995 1.4812308499107387 -0.38427939247863496 -1.0008780101841086 0.5531733593712924
Ni 7.252324062309204 8.615034854025364 2.623239956521148 0.713231730250191 1.6620541573896408 -0.9378034503211269
Ni 0.26311997287530164 8.892690384074754 10.733979367260584 -0.8843936672414189 -0.7022837158791195 -1.2955958522528268
Ni 8.883140871776176 4.148520353886836 9.4238314901471 0.9199995893704865 -0.35478112590920186 -0.27737472280458036
Ni 4.930786876324193 8.69085890433427 3.575922369882149 0.6544429422467568 1.2814388440261546 0.9040114414723464
Ni 2.792932483421402 1.8967730336278608 7.5747506585205455 0.2057712995349811 -0.7724596626735728 0.9860005788516439
Ni 4.182834012088201 2.155135780859542 2.177579441406684 -0.33714155845056776 -0.32468662051666664 0.3536794082045909
Ni 1.4476137986451638 3.9511729929648154 1.843314217919684 0.8283042804470186 -0.6989366537837576 -0.1532158940357684
Ni 6.185952629052693 7.3450143043879645 6.991161047461466 1.4282881724139467 0.7903972209886001 2.0311776680634437
Ni 8.2823427627576 5.900445277780029 8.021990764461595 -1.3260140595333678 0.38570172674745834 -0.5530568883980862
P 2.3193135797396414 7.950628689174519 5.852945911341081 -0.042131124842095184 -0.921290283157452 -0.15827145418180483
Ni 3.4338662238397997 4.78941718797751 6.342264766836621 1.423416446143942 -0.2759333623723635 0.5260793313679779
P 7.791599323011915 0.2528184941493473 7.467812728623945 -2.409120319690774 0.5460038382060467 -0.5148716355776165
Ni 3.4662238466717943 3.5802828525027364 10.957957411610032 0.4338895993065947 1.3300221522514966 -0.13827084269016188
P 0.360390290224608 8.793154018203195 13.064465415060466 -0.6377366852356694 -0.7842875085464364 1.788822655867158
P 6.922667516496735 3.9861970979748667 0.4528129614273704 0.33510781584999055 -0.5776024389479343 0.8526564840391381
P 6.239383765015076 7.98675998401629 13.06832766225678 -0.22026435094483357 -0.5471176400955159 1.1119118715351881
Ni 2.4564113606522744 5.047844521282708 13.383484634564692 0.4690774600616373 0.10743097449116981 0.26170873413254925
