# total energy = -381163.7408356673 ev
CRYSTAL
PRIMVEC
9.35293426546276 0.00000000000000 0.00000000000000

0.00000000000000 9.35293426546276 0.00000000000000

0.00000000000000 0.00000000000000 13.68896470658510

PRIMCOORD
 96 1
Ni 6.270927198047006 7.633406520452248 1.7704346667819988 -0.28267582330251967 0.5096270993492256 1.649461922546927
Ni 8.582383273264714 9.161255070718655 8.456686385984892 -0.6630885337368967 0.9417621778585586 0.2545453836148906
Ni 2.776624252791089 7.984702725331231 9.452339891727844 1.0678588470800319 0.3288772615592465 0.035541387439719435
Ni 6.434453897890035 4.031376480207084 13.593689106402115 0.720001959094489 -2.041582665446852 -2.1058743855463864
Ni 1.8382817860528353 6.406703742408779 10.947023872961225 0.4580314866601209 -0.9175827523988777 -0.034334254505495716
Ni 1.2911631998758961 9.114172400448131 1.5191877332877595 -0.45805205548541117 -0.15365503845571601 0.614558190236677
Ni 3.4428618076937663 8.807592573511812 7.435558293627753 0.24710589661770993 0.16385203359337588 -0.6389826418276287
Ni 6.91331477098905 8.950888876891762 6.839937261783577 -1.7583838797613265 -0.959719533667928 1.474264639144061
Ni 4.6647571776087 0.6320675454536658 9.617880278283076 -0.19154898528801204 0.005443282502758367 -0.32216333987418067
Ni 2.150585608659707 1.428688742914782 13.482986843074954 -0.12449872860673399 0.00256827494780848 -0.2218833746054953
Ni 9.248957533795071 2.7042886604446017 13.025364612735236 1.096975047719698 -0.7842525415434429 1.0482667838807174
Ni 7.70842640488607 1.9050056179379968 6.778747561006693 0.6482460694074256 0.10326141649451248 -0.9329656626128513
Ni 5.45881192995217 7.924741064801967 8.52695217401456 -0.16961104756434014 0.37056821354012953 0.958086368939879
Ni 5.097751261870481 5.518315296710425 4.5560845009817195 0.48161055953164145 -0.8357486525402058 1.3711636594868128
Ni 5.638930734892518 6.722580385842695 13.387533603508038 -0.3206728713715832 0.2688324896615241 0.45556914116255737
Ni 7.994411070929324 2.6678028645118834 1.7470270786043993 0.03308624103100753 0.203483789052385 -0.1603144527537626
Ni 1.9857775568446765 3.914932450634578 0.5886774135666962 0.5567945010636475 0.4839335512378633 0.22935422906124373
Ni 6.961547852154143 4.20992399221826 5.869143854884299 0.20011512969046827 0.014264480338814145 -0.5576519639679364
Ni 2.8762049421773113 6.101199502894213 4.746853491984253 1.1196611764633038 0.5322666911256123 0.4980162545831746
Ni 0.12111675544996997 1.3837478945536663 4.262537987716828 0.8512773443034243 -0.7663391515981318 -0.45927821458302837
Ni 3.161114020798812 7.927013827788804 0.833247287405368 0.9047418918804677 -0.3030147919701878 -0.516935974305813
Ni 5.709489269759585 8.01823299408765 4.82909664742521 0.6587680519846719 -1.347472229407144 -1.004073891413587
Ni 9.036627223806715 6.951212859971202 2.020750983333068 -0.5224137095909325 0.30353775435319336 -0.3681012400568757
Ni 1.5393994238826338 8.323550174920172 4.829316441376611 -0.7458418029757284 -0.6364166808726652 -0.20622407080168353
P 6.603732652205921 8.941171178359566 10.142303969861006 -0.48579708680916334 -0.7559634647907626 -0.6128342655670349
Ni 0.7072567179947368 5.656944485973373 5.091021825783941 -0.45361304587745105 -0.044798387261613164 -0.5940801248879833
P 8.986944437855778 6.046943132167297 8.930077663220937 0.14247768168265787 -1.933510457827257 3.4153541948701567
Ni 6.875079976379218 1.7707910135712928 13.3264944849702 0.7852573286588734 0.8834266753424592 -1.331304875618662
P 3.569696947053827 2.4720459537526422 5.440077067652035 -2.010178182993641 0.06082561592780492 0.2722199180765183
P 0.026133033174983094 0.5397643740923721 -0.14619290707140342 0.22458663246927124 -0.37837845361316774 0.5513571320981601
P 1.4195509262969235 6.246310275489991 0.7938733054218872 0.6328243355357166 0.057502207981526776 -1.0130308434965587
Ni 7.859710113989305 5.9100535886473615 13.05908006958688 -0.37932847623126287 -1.9485275000613798 -0.6381285213574495
Ni 2.7174388857923084 2.552434422361131 10.064332299424526 -0.84041186234383 -1.0103216720955117 -0.56150630471702
Ni 3.2544095384683502 2.569409997756641 1.9563307791172808 1.3178466932312272 -0.30678017254989104 -0.5091437319549038
Ni 8.014211232423701 6.523175830783592 5.704971802588218 -1.3532824083310175 1.0314371139178882 0.15128499556164268
Ni 2.4353076285991637 1.0527382037423758 3.617158411155488 0.5554665262808433 0.24602037686301498 0.587641311241175
Ni 7.071977945098929 5.935540334075882 3.530356635633114 1.5300349520361456 0.8274609586101169 1.095115883023772
Ni 7.23115553058443 6.503188610607171 7.985635212861221 -1.0439144204492925 0.3942434456698823 -0.5516733777869982
Ni 4.103534366805629 3.20872980831316 13.067088051765193 0.31913355190892134 -0.2894303684175338 1.38828103589339
Ni 3.640292893657303 8.307696951616927 3.4386267991322854 1.757672455516599 1.5830004484895834 0.8019425026240382
Ni 8.853796067976726 4.892407593656475 7.219819774452552 -0.011112564973393763 -0.12949155383563504 -0.6877140455950607
Ni 9.2431587146517 4.643114488096187 1.3208101303930793 -0.7517692242037568 -0.21347406749587752 0.8589775411611593
Ni 0.18186125656358892 3.3046441475313166 5.502812808436014 -0.43618765131215204 0.16897752774539931 -0.0324905164285376
Ni 0.6218438531865408 8.372250902790377 10.128355003940971 -0.5688856279002267 -3.3084762646689794 0.3745310548426195
Ni 0.9617902725324922 2.094458651112349 1.9165508797937638 -0.6784603882072767 0.6012835846149581 0.254866000179103
Ni 2.209331387755684 6.944899629452211 2.670812638705974 -2.5878204740405755 -1.4799354642765932 0.012277017595140147
Ni 4.661034709836021 6.889333847950986 6.5577536281594595 1.2617578206574591 -0.40694983749295727 0.1384356504028003
Ni 4.877798310588824 3.966728999692613 6.954007516680942 -0.2685756364557117 0.7943875730949157 -1.1982927102242782
Ni 8.078634242519719 9.524653972325895 1.9986294235945223 1.143810777126314 0.420391821930476 0.9400369676373359
Ni 5.78804456328404 5.1486312233864995 11.69318224976728 0.34287948937560947 -0.855529948932191 -1.0810966859265445
Ni 6.453599353997256 5.231965866237185 1.5801174224966021 0.9899330811368305 1.2533202314130674 1.2116909859080554
Ni 8.10107193143092 9.099927881810467 11.725200149079374 2.073820699544951 -0.9555939415353285 0.9832291867540939
Ni 5.622450865004424 1.987461084983074 7.883597507686348 1.0043443714661542 -1.657475793990339 -1.2666855969763797
Ni 2.359539509437166 4.239946910686352 6.510156546513317 0.001118429875159364 1.132887188235275 -2.657602013610087
Ni 2.312550368507666 3.7615817430947533 3.81312950410567 -0.3129652183146804 -0.28292059232347405 0.7315433840751853
Ni 5.388468512569454 5.266319193194599 8.824385766692329 0.2636172640091718 1.5693360636286133 -0.3795125672176109
P 2.7284192304283015 6.427850726413874 7.0515829369956515 -1.2625134678765613 -0.2755314989482545 0.11606139647265819
Ni 3.1484501480244207 2.463001666475806 7.630694169562608 0.657142600566107 -1.2116205376814357 0.70297637107077
P 0.058022797289876034 9.104117996288256 6.4431221972159625 -0.27023219822252814 0.5233099961529568 -0.33087089495050753
Ni 4.486752135775451 6.2476851568030165 2.496866770273085 -0.5271586804750857 -0.3760714027465459 -0.6992415866186861
P 2.1140904597928865 0.38854894140808227 10.839812124641009 3.5802742647167305 -0.5032222242641462 1.0082797019648184
P 9.31647636507892 4.035781712169225 3.56759066629401 -0.08654513218109611 -0.32178744459200065 -1.4794225291959167
P 8.02542540041225 3.886144119467977 11.910973737977917 -0.8415842853853763 1.5917262583983554 0.2792050911450998
Ni 4.5373515092684045 0.5322792209303739 5.327265717684826 -0.6507348972675502 0.4085755460218382 0.34812196872147144
Ni 4.514876408620795 0.8212100612158246 0.22591264089158467 0.2880329738493749 -0.5175291278051216 2.3661813542354024
Ni 1.6925911315427205 0.8906892674874969 8.616080959541565 0.4550580058540937 -1.0294563360424336 -0.6799986792286741
Ni 7.2823254330576175 1.5638760524281157 10.828655009550484 1.0511284216992283 1.1540977608746188 -2.2431085594419176
Ni 3.5515335490273365 8.323138645819675 12.184027037331456 -0.09444947462983734 -1.9656978411930792 -0.5147551646044102
Ni 0.727497402685328 3.0519372210237226 7.676072735239707 0.6920692372399629 -1.7760445302658832 1.6299559913035155
Ni 5.562592086750285 2.6666805124196182 11.40645309016949 -0.46454151986449677 1.2215460243252638 0.2411352808565718
Ni 5.260333315369185 3.091406602935046 4.502176994696815 0.28851994078812243 0.4247053617041654 -0.7853128644871572
Ni 4.054543697978256 1.0493617945314782 11.839955038753022 -1.4256625618656413 1.6753264490185147 -1.9539741249982476
Ni 4.74197500155654 3.255204537867038 9.386905829455376 -0.26241064529558034 0.6548712880334271 0.7905046931007419
Ni 3.492413652567271 5.801269612104565 12.985434131172674 -0.5829909569533572 -0.46551828195546924 0.08923244920527212
Ni 0.3922414797916345 4.038054475156062 9.98390922495986 0.4327354310974934 0.28240354347773944 0.4229035326087362
Ni 0.6994685297678271 5.167814091230131 12.65373606441146 -0.5745361413177846 0.5865897300482091 -0.06896392876422316
Ni 7.390959762654778 3.989419217824573 9.949823391917768 -1.7952804956773598 0.4675106297951497 -1.1477296525647458
Ni 0.7257100569783959 7.3048847101121455 7.874877767222858 2.354130336608139 1.4521009585628282 -2.0695740084534555
Ni 7.275133026733018 2.144365907481738 3.902600607020815 0.5435126963530769 1.1004236683899307 0.18324020831200055
Ni 7.925498652464246 7.917548658477369 0.08173435582579713 1.4580515197193082 1.0983819553695535 -0.024901134117053886
Ni 1.9351968892199285 0.8717710876789581 6.237978681791744 -0.2386685644836341 0.9169872849067241 -0.8348148278720268
Ni 7.643086807248035 0.03821234756798644 4.90314102083217 1.114268801803139 -0.3034562503829806 -2.03166540633314
Ni 8.099827991195326 6.92804564220003 10.648097552000744 -0.8096828086910896 -0.49743492815840773 0.3292711545635555
Ni 0.30507306925245375 1.0997741093423865 10.39995766321526 -2.8953758341935942 4.449183206058989 0.4992521838728047
Ni 1.3478045687988758 8.293761079804636 12.56897416381678 -1.5661226988976382 0.0025142817814214763 0.5651960948637814
Ni 2.436261627877589 4.773372801337657 8.720472798229963 0.6505916868214666 0.571629509193951 1.1968199823334937
Ni 5.654045076401688 2.50395816490938 1.7009769722587613 -0.0466071583355778 0.12721072822125834 0.6813814185088136
Ni 2.2329101346273537 3.601599805276463 11.950753637301434 -1.6450460528674185 -0.41234555458723177 0.21059674594808245
P 3.594678634040828 4.738954003841527 10.91055678289671 0.8988054717913746 0.7827358477886003 -0.9659678285704848
Ni 5.797500379661375 0.510862872423135 3.2184400244980735 -0.5148852624243714 -0.24020634128439922 -0.6907209507421846
P 8.288083848804595 2.418032759312383 8.728480780408274 0.28386495851461435 -0.6058074406272405 1.0216391539908598
Ni 5.842169992933527 8.716242466135535 12.278645059883047 0.02117509141571837 0.3197922685388428 -0.801991867804735
P 4.5428510345205035 4.382653979217862 1.1325486610233484 -1.3584428694860347 0.2600429163943521 0.5772905641344702
P 8.805076634238318 7.62291252838957 4.008101703693736 0.10414613309231097 0.0040325181981607965 0.2766206182473752
P 6.5281328858577625 9.408116413412367 0.5717542146021587 -1.9977322439208047 -1.24507958867083 1.635564081518912
Ni 4.610631747959214 6.672972423364576 10.478204309914341 -0.9340704656412557 1.1176752563815269 0.4378488410646588
