# total energy = -381175.1442696228 ev
CRYSTAL
PRIMVEC
9.15306691546959 0.00000000000000 0.00000000000000
0.00000000000000 9.15306691546959 0.00000000000000
0.00000000000000 0.00000000000000 13.39643863698202
PRIMCOORD
 96 1
Ni 7.196974240412769 2.2750039672701763 6.093155543505774 -0.3522161933955031 -0.5260883302290423 -0.5228081168158738
Ni 0.10011899326573366 8.760537765423575 12.739437335728768 0.22258297177568118 0.9406504328516186 -0.341091030016619
Ni 6.181340767957353 3.0517057775652274 12.313658624124761 -0.41518688069076887 -0.10069185599512337 -1.122896652681466
Ni 0.32427852052107903 2.2176142368937786 4.850341116363234 -1.0900955469910452 -0.09294255106700768 1.6122871132688428
Ni 6.917650093379829 3.216808800935157 8.445396751734195 1.3026381038115888 2.011705932492077 0.005014936716088137
Ni 3.331322822743628 9.038928299617854 7.386716404962958 -1.0500732409618367 0.567322654288481 -0.9967537036030899
Ni 3.405508431148844 1.3261970373152514 9.544573928342325 -0.4768275363207013 1.468752193966264 0.16009179521999525
Ni 5.406396346535072 4.759686394422731 6.059704744680642 1.7233721395728319 -0.3269191093916112 0.09537481465758414
Ni 8.186558084056188 7.04485026611361 11.838794759874903 2.085910026609317 -0.8888743287205917 -1.913703193293343
Ni 1.1338270272162485 4.070918099235503 5.77253916510967 1.1316378892092058 1.4428663273384377 -0.1451328599173178
Ni 7.276990352526081 0.25751421887649856 11.029221539898709 -0.5208877598647094 -0.19046192287142036 0.32906495209002035
Ni 5.2030792682494384 0.36948734927308907 2.0688384545199283 1.0333672410610655 0.5437530944986572 1.3374806654120708
Ni 8.878118064692346 6.352713642253573 2.68799584421137 1.0099414059379572 1.0237330604054111 -1.1138461124434238
Ni 7.911114837450615 0.14502943203205462 1.6606757357520336 -1.0083326666899408 1.559273794296605 1.4607221245729358
Ni 7.686553490551964 6.692383960318662 5.700813901126333 0.49388963400931074 -1.7609243867949933 0.7353704711307594
Ni 8.326673234391418 9.278647125544145 6.085372690596834 -1.2495479088548287 0.1260241641123249 0.7150700690105105
Ni 2.2284240090747236 2.7746973564948454 7.85019293850129 1.79530903492245 -0.8810185801215987 -0.3112083835245737
Ni 8.130513854535504 2.783502606992787 11.052102376899494 0.17823427045697693 -1.1920212753932697 -0.551454834018289
Ni 6.039523147151627 5.734222595843055 4.165877508607588 0.5798094739015821 1.7470021202869461 -1.0678706741545738
Ni 8.089096226153814 5.835730109379618 8.022069231485021 -0.610977157753638 -1.7726820415515534 0.4555639989562348
Ni 9.242584041384175 2.7533340980102343 7.404988672706244 -1.8085389033491628 -0.07799518572855599 0.46259313788887424
Ni 0.5397105983483709 0.7270326919716829 3.287700220510634 0.7783348905074273 -1.3223558939554902 -1.2360131075931875
Ni 3.5823456864713323 5.991167493949313 4.616573614630041 0.8907250087760853 0.9841262446470663 1.6416887063594114
Ni 4.805726321662489 8.616862072007574 9.118634122758317 0.8430768107705029 -1.749267005061723 -0.3030993812641941
P 2.205312514784388 -0.07952367710625484 11.97900144088059 0.07218757790784341 0.3623571384842469 -0.5581983233897096
Ni 0.9096208193189703 8.18999963726536 1.4213752049897286 -0.40952659708119793 -0.8000769101702092 0.90249500482782
P 2.9020348252343102 2.0282555858528037 5.879321591184657 -0.4059154826911719 -1.0497834776355597 0.23654714726525713
Ni 3.1542109754097694 6.4896892905921355 8.813289636727927 1.7837758374718697 2.1702684355517396 -1.1757744745171042
P 7.821121882257515 4.318947910039271 6.237060063597915 0.5055938098201164 1.0462106726826368 -0.13747945713711807
P 2.393673481517385 6.774917165869535 6.813670336434229 1.1767707769921023 -0.22817743514432315 -0.7518129329574987
P 5.789241681854623 0.6164068930442159 7.277950509259172 0.3689970123982677 -0.46312098536788626 -0.4216627182230996
Ni 0.466205062824649 1.39933919607726 0.9517313348760186 -0.19437205655910395 1.6939947148519796 -1.0548614063790993
Ni 0.2640742220281356 4.638847603285698 11.658572700358922 0.5346909842963888 1.4981830976328712 -1.1456835686689948
Ni 2.5404429115948224 0.6617063371599782 1.1924167246823345 0.5508537100991804 0.43059447349509067 -0.517475905969683
Ni 4.914135247751493 0.956770098284664 11.342014791890872 -0.7926610773221122 -0.6496951431491262 1.669950272308266
Ni 5.0429463602853115 1.6343167332738915 4.917296717109069 -0.24126872111064257 -1.1155540962734658 0.4224775008149111
Ni 6.147932073240631 3.4395944528269466 3.6612066815234803 -0.3156556206626499 -1.1963304442915847 0.013172018605583766
Ni 4.9051194767115005 5.225138159829521 11.481056287461644 -0.20552447363149767 0.5168022769414261 -0.41301455562979833
Ni 8.416391597573147 7.986206599493353 9.493761591944953 -0.473203566414869 -0.5028982652658243 -0.3914088044345646
Ni 2.4259655020545345 3.5348870338394947 0.7861377071124404 0.2559461206171592 0.5808245454296578 0.7660442460655323
Ni 0.37248680934395756 0.7871271536600781 10.439884842642083 1.623956322076655 -0.29498343702527907 0.9051229293689702
Ni 4.439017843544468 1.604285520297024 0.23899024178945652 -0.3179379889389234 1.4930964271385834 0.09827990411952106
Ni 3.6971617594923103 3.262262931883992 11.999270907853242 -0.9984390617253128 -1.9434768250113494 -1.7508412915273779
Ni 5.875710706235138 1.4399422014918855 9.397427391902607 -0.3985225326612104 0.22317535394404142 -0.6054958229240927
Ni 0.19247252444991458 5.949704100232394 0.21433096386169692 0.9689305107432346 -0.149196231353414 0.3209001568910409
Ni 2.785598659346247 4.966014831766393 10.236259305997011 -0.2030533863831858 -2.0746653069334333 1.7168505364042304
Ni 4.063220369850089 7.69378441351805 11.102218164894692 -0.14981946675970972 -0.3763585949696615 -0.622292068545825
Ni 8.617823144047371 4.6308569757548215 4.033975405332445 -0.6714926986401919 -0.9913551582953379 1.996415067771278
Ni 5.186210165684256 4.9905542045158535 8.766723408133043 -0.27092022542848826 0.42691265376812926 -0.355673041595852
Ni 8.44427183979428 2.603901125422504 2.6700439338146826 -0.5729330584967229 0.6930390573523999 -0.1877177844673799
Ni 6.157295660828359 -0.07373253158645471 13.407289957409919 0.5195978374086923 0.6926464498996716 -0.6850802075166396
Ni 6.043111149433533 8.253741596171459 5.092951396169257 0.7969684464482145 0.20116902487627936 -0.11447116916740285
Ni 0.855302858243102 6.356942359228675 9.740081609824589 -1.7167412645198756 0.5319458174510838 1.6413868588482763
Ni 7.0993201681024365 4.888717180565647 2.0680750887283184 -0.35105096944280834 0.08286794043982502 -1.0453017877151225
Ni 1.3799804592756524 5.189587647424109 8.069478457554812 -1.1422855987310392 -2.351627367680627 -1.5660712768344127
Ni 1.3698388609890415 9.167803483620991 5.448237761920978 1.6918457868297767 0.1042111820022915 0.26503959827799517
P 6.149039594353157 6.876763342886789 9.873443627293517 -0.0694588661227707 0.5099615998705088 -0.6163584766702095
Ni 3.8614867721633575 8.569467490845057 4.792107473205225 -1.4125514784049802 -0.438273073086271 0.5235701917928789
P 5.945191638178875 7.388557086745844 2.602097055907801 0.7678692150894131 0.47893198425821387 0.6914022930799253
Ni 3.0929403446060046 1.061938838639498 3.328359059634238 0.7833989352938959 0.19422293257574938 1.1700334582682688
P 1.0590830817212467 0.3208305601649723 8.189444046095689 -0.9538180805818282 1.1199823072481485 -0.35323563579895295
P 1.9075907029896377 7.929347747005604 3.4099293625319063 -1.2198858630140215 0.5109494177050748 0.8037353328584029
P 7.732913775138321 1.4103045703979817 12.796854525306301 0.5144322340473527 0.22378341984168554 0.8822899906348547
Ni 8.582702825793106 8.02494237923066 4.065323744657185 -0.42641823063021406 0.8720258897046853 0.24907536163925492
Ni 3.3949091795099493 4.651368999004184 7.126423314931391 0.08598334614035515 0.44018777361048056 -0.7341437978125098
Ni 7.609759258038731 7.308321301023436 0.9149268522853495 -1.3013119288009976 -1.4753203341020849 -0.1993823652895018
Ni 1.8945201232484101 6.90468935044315 11.683462635576234 -0.5317205888141553 -0.5884766626582769 1.639225075310267
Ni 3.6490440860331836 3.4947966001794275 4.550877475909692 -0.10787731799996904 1.1396497037700888 -0.34207859074086894
Ni 1.7068181773427027 2.8315836681837308 3.0369455416473685 -0.38015971388330655 0.5070989336107331 -0.8729746267711999
Ni 4.597521505574464 6.969282544584496 6.54700030459194 0.11140847108167912 0.09934819748303536 0.8860841675699642
Ni 2.1717299117937974 8.423045877315355 9.673166282573753 -0.10676428744144839 0.183810993213806 0.7344168489682384
Ni 6.77448697171839 7.760848935761728 7.6813307504957 -0.6020891112353889 0.919996761157009 0.14731701205283015
Ni 1.295680711784963 2.675148599306057 12.361832131292868 -0.0407139327795944 -1.5318084989968006 -0.19583887091261756
Ni 6.635461036361595 2.363431747998466 1.129256900840342 -0.8845389345700314 -0.5356222378614065 0.9091107103721247
Ni 5.047239148729734 2.753590383887513 7.103676112709474 -1.618162083992381 -1.0644950728141216 0.8799734266865362
Ni 6.9795522858097465 5.363404390621525 12.912010177114674 0.30867327580754583 -1.8887514084440116 0.9702240327436775
Ni 7.067595637722118 0.8023679255978357 3.9346811034075264 0.7844975676747135 1.0051552974032236 -0.5470176241825419
Ni 2.3925934196059946 6.358205482480979 1.3624047399345425 0.3189263209941217 -1.4803075029040313 -1.7142670919477703
Ni 5.172654473389606 6.4764631087111315 0.8226373925704883 0.03882571461794604 0.7471039575176036 -0.11578860242724574
Ni 7.96353445242121 1.1314472297843725 8.744739571702734 1.1824827397752151 -0.9682751365474226 -1.2316463459840594
Ni 3.727101441798721 7.849734369842302 2.421620541127951 0.7521366348455046 -0.5184146157338685 0.12289513156503996
Ni 1.2715257678514202 6.54765566419241 4.961745841296288 -1.0333392160366075 0.2263198131102941 0.6321167679457307
Ni 8.481707884011103 3.5477196338375347 0.1562657371373283 0.20161768237792374 -0.19788546902900112 0.462108742053288
Ni 1.9937668292246906 5.092089177253554 3.330194249576896 -0.9058284400764269 -0.3449669680322575 -0.5506433938605871
Ni 4.794248375587209 4.260899158835584 0.33794221900686633 0.31550109736265664 -0.4880622286942562 1.8902007392960285
Ni 3.828947618815974 8.32037592426399 13.348158398374729 -0.4458452290065741 0.025531825722517318 -0.2640834050123129
Ni 6.089855862835807 7.1968827097423125 12.094224825385101 -1.6598224398456447 1.6530177582189853 -0.5994357327729418
Ni 6.942729497084986 4.886767577284917 10.494542382505347 1.1460720623566651 0.024951270628698962 -0.5774204048441153
P 8.798431462992678 4.233000610480359 9.45267438928361 0.5951898130123944 -0.049009854239799464 -0.47552861500361976
Ni 0.40426351220643597 7.455978578604303 7.261150970003537 0.2079701069585128 1.2139820959350769 -0.10004445221911158
P 4.182182782242759 2.9364320511919657 2.3497222841774503 0.09458985686244355 -0.7648653952660827 -0.45666288844736835
Ni 1.3105086803989605 2.8739349094040803 10.053143046681189 0.17693509202957916 1.0437634966937248 -0.8660773854307342
P 4.852114065449983 3.203793139596204 9.958001491274894 -0.7236354420820182 0.6946285133267069 0.8210316580450052
P 3.051174899676578 5.237238514463907 12.62519241409144 -0.9145637630668958 0.33928277316328664 0.6462964018802224
P 0.42190604893697925 4.500956648242567 1.8876113882423329 0.22070195270288442 -1.37414511071264 -0.48578551684493754
Ni 4.315579581366461 5.106697472258455 2.6295471039777873 0.2263565798855005 -0.558974796544418 -0.6015031568249317
