# total energy = -381165.96762280236 ev
CRYSTAL
PRIMVEC
9.31162696916324 0.00000000000000 0.00000000000000

0.00000000000000 9.31162696916324 0.00000000000000

0.00000000000000 0.00000000000000 13.62850730304778

PRIMCOORD
 96 1
Ni 0.7656075637263077 7.1158150353287635 7.534438784160565 -1.005333217741985 0.19176572928450844 0.8077840490064799
Ni 6.46381490869242 8.539581435827907 0.162288623351816 1.0758318379831793 0.014373238002536535 -0.6183423398694576
Ni 7.424253370014599 6.116696075205566 0.1814156364926859 -0.8121017025452272 -0.9952596355560664 -0.06160080353093262
Ni 1.0780722459522396 3.238891174640087 12.615773184405828 -1.3997389000213443 -1.6793448261492887 1.9712717357364309
Ni 9.146643650279916 1.063108461269226 3.708398309533075 0.03487444327968188 0.23974148583283872 0.36019432650497324
Ni 1.765316881005014 4.700267236828521 11.136071840166261 2.1637596878989442 0.1944471327714135 -3.6566298579593353
Ni 8.355453322373078 7.510963241183373 12.329737693260045 0.11651828150441867 0.7317832680001332 0.019830918682998105
Ni 6.425385823821981 8.413148163627561 9.418020778110208 -0.7812803462889963 1.9459301716478488 -0.7484900392318528
Ni 8.787121729551135 1.8916384136806583 7.404245476953994 -0.3739628410439753 2.5830665042953576 0.3285034231595955
Ni 1.3537522766462637 2.3482247348672685 10.543749000185155 -0.3164986853892356 -1.0230432334272381 -0.42805396646142413
Ni 0.3667672977430009 2.9979435128742775 5.470455189904907 0.5850329270840505 0.48090376327260403 -0.6423911532885453
Ni 2.6906970664519303 7.0526356457368236 6.201338765167353 -0.9694020510630144 -0.9956846389086271 -0.2495319895606993
Ni 3.176512584975179 8.535381892024523 8.341327584125331 0.32202758562726475 -2.0195385411626186 -0.7326880392025897
Ni 1.8958472691111015 1.2695192982750505 2.7219264012807356 -0.2561826621079975 -0.8381850298958402 -0.5019317875874969
Ni 0.5197768847310192 3.612417782464855 2.9087595423960586 -0.33917195861703525 0.19923452685772783 0.7727206296444434
Ni 3.7799711997555483 0.8808212564838644 4.009520498839045 0.9340375555207913 0.020438213249693832 -0.9598830558289856
Ni 3.8852018971436846 8.658528159873217 10.604232673743658 -1.6002466371645407 -1.096363382277628 0.15570857855063505
Ni 4.462085128299088 1.447827644818314 8.062093305383076 2.7679658454773364 -0.4382136806032453 -0.38105137245964055
Ni 8.446399983853473 5.266255864325477 4.299140035239647 0.3834674381003009 0.4126386603476183 0.005266647715578027
Ni 6.175154469878844 8.97909954461628 6.971321862448451 -1.1557484091041643 1.0380877864651863 0.8618355794352448
Ni 3.8395283664217303 6.444800566238959 11.722356089999929 -1.1382029440212333 0.25289267850281605 -0.36481177067232656
Ni 2.0123915933753183 3.1590812191216626 1.3396144332833393 1.1214673764341072 0.45943325210365393 -0.6570654674712685
Ni 8.56356818713061 9.115282090346879 8.159809519735001 -1.078026274531337 -2.2141219424015803 0.3235658766486621
Ni 1.1455722304993239 3.6563686621809866 8.562109986333247 -1.0362044533995445 0.38830471158794416 -0.8889589180145981
P 0.06719083852874207 8.751132290970023 0.03384869552036231 0.38587167666641936 0.05192985610007185 0.26525428539196255
Ni 7.601751605003773 0.329228404419354 11.426004247236028 -0.407581300429369 -1.773504794563165 -1.1165753384491288
P 2.107938198622612 0.6534741571997034 11.629791067736766 1.0396541025110417 -0.5037647270311775 -1.5924196849209542
Ni 8.444202439867666 3.9300001349221403 0.8160421293632746 0.2944375918241381 0.001961494601745009 -0.6716513357052433
P 4.409390630775023 3.6719097677416275 11.574418546270676 0.11901919354940145 0.46756256607900765 -0.21082557412943692
P 5.396776940804507 8.817542815151263 1.9230092852407532 -0.7881187093670684 1.3817591756144718 0.38454730142804094
P 6.302379230379164 5.125333700422101 6.468021901797452 0.32947915680930356 0.48952055840733755 0.4701989752605903
Ni 7.168770258410467 3.383118966149232 5.354871825553128 0.5737576112805474 -0.06297762927380122 -0.49497412532274104
Ni 3.247504429669202 7.505907027690607 1.9129517968548646 2.1863712546508736 0.28818364049462625 -1.003616492161194
Ni 5.51228767446523 1.6721633639117552 5.423165160725596 0.17806303498643528 -0.5394485535860323 0.3212958496675628
Ni 3.3213828787513604 3.291008351286526 9.500255481314664 0.8276399073901424 -0.3980473927970048 1.3598834585873032
Ni 7.970166129573422 0.500906872496964 5.615722158993781 -0.34079021094674855 -0.05295855447490234 0.4632037748896796
Ni 8.682067953077112 4.958655576074907 6.638487064869339 0.35609830205872867 0.2840451928462205 1.1303574798348857
Ni 7.346156753874939 7.261495440659035 6.153162269092073 2.1565384875601574 -0.4471384938967009 -1.5884200768432581
Ni 6.925075666662399 6.504683639852188 8.1490974239669 -0.24495902547803616 -1.1364813333444364 1.684164616135435
Ni 4.931782220384069 6.945188781108764 6.519646493372496 0.4085146108769158 -0.06249374765884721 0.30668889838766533
Ni 0.3836353101594781 5.534384165475056 12.502792419816902 -1.0990051907758491 1.1454472842884724 2.373297139344577
Ni 8.144582216006233 2.2894776797551764 10.038513152268694 2.183701164017878 -1.6103646994351493 0.1528536256003432
Ni 1.048005002180335 8.95249622611014 9.586564952519923 0.6783112642239221 2.3031247920945495 -0.1578125122675153
Ni 7.643421136090571 3.2588459914264583 3.083299473468746 -0.34457101814541946 -1.6276659097177582 0.24181148098799002
Ni 5.024619142157338 3.5931334028266964 3.884029563297019 1.282487854115959 -2.1390076777652456 -1.0706672630631044
Ni -0.053435703037922236 1.7016905333142665 1.3918247262003627 -0.1706178915622997 0.14484901012831183 -0.7832788647762639
Ni 5.695894336804781 1.5075058626362563 12.462152754682773 1.6761116639239715 -2.330688303535115 0.2456761061497188
Ni 2.513496803528628 5.718903367266341 8.917255442344532 1.0647002468463922 1.1819872881960354 0.013850532729847116
Ni 6.3089532390824665 4.532248238184904 1.8951395854546553 -0.22028954775581416 1.0637003448269682 -0.1741644712629775
Ni 6.009509936135144 5.7493244528664675 4.410920531100734 1.6453869811466049 0.513467041920606 0.8277921166972905
Ni 5.861808907733178 5.588531276820248 11.654554408736148 2.103323079879442 -1.7671737101388143 0.6727499680860608
Ni 5.746596146138327 8.525334646428398 4.612363615070847 -1.991079000270345 -1.4689118594725799 0.9428620957909569
Ni 7.8362463092180406 7.632368234772129 3.91793692206785 2.8191845344429964 1.1948857414252583 1.5291654049469987
Ni 6.820934429640107 0.6968067448791505 3.5157873038279517 0.2495777551969702 1.7459633946097866 -1.57756745039947
Ni 1.3486960631534968 7.143181907253702 10.669022974816718 0.9874396252910157 -1.4683379892469808 1.5299889292895585
Ni 3.991177524696501 1.1388864822713192 1.5578203082841686 0.5455790919638023 0.15676967282529775 0.17108660366860212
P 1.2486426304098877 5.4725084036713065 1.5705902736321988 1.4106236652546482 -1.0559903777772202 -0.7500447853134825
Ni 2.722570765873184 3.1637370326509138 4.0279053753033525 -0.6319589022116278 0.6475516144435622 -0.696084271936627
P 4.752114376290264 7.0472255904158345 9.349633395504446 -0.6547864416291046 1.4805769545153342 -0.3189738864026055
Ni 3.976921423669934 4.905895897161432 5.386572328711093 -1.2370616034623596 0.7491875795195098 -0.9033439830916764
P 1.7956820968427902 1.3443195984360006 4.985526138277628 0.002027314842673928 -0.7673503664714656 -0.27257061654771764
P 4.255609109903855 3.4820922501540545 1.6607016821654448 -0.48461206536212664 -0.06729862524665829 0.7835071787369862
P 0.5368283362005489 7.004056887372617 5.310988920714523 -1.0247460750509578 -0.4207659174404431 -0.4470353926599333
Ni 1.61231753680676 5.4682902366138055 3.8537332534994757 0.6214849992634973 0.683495636638339 0.43450717828593555
Ni 4.114575206475776 8.75495005806401 13.255508967043419 -0.3006822871822693 0.1885528787741656 -0.12720969977999383
Ni 4.41450271403014 5.651002982755741 2.8736798497785623 -1.6245538464513376 -1.7105927284199764 -1.8647542741984662
Ni 5.592581834590696 3.2557545312430354 13.671573880759544 0.00654731420021453 2.4141447694885585 -0.30519431612000986
Ni 1.168329847030304 8.041549062603902 2.1036827850568764 -1.9190611151711465 0.6224512198315086 -2.5283161480273555
Ni 4.951634609272797 5.063895585090102 9.483342773088307 0.8224401083567578 -1.78566328430257 0.6034602805513026
Ni 5.987292393973557 3.1811311519961962 7.28743577131861 -0.35223701933110946 -0.23131058145666616 1.587250739125505
Ni 5.8602724892685245 7.958163442295013 11.560122405247759 0.31700827803580245 -0.4557817713939957 1.1143608472963131
Ni 6.443115161741369 7.062338361131784 2.392470793161154 -1.125209874195675 -0.8507430690665091 -1.7703248541732868
Ni 0.9931874536869313 0.3121937138785297 6.772400367085781 1.5802753362489363 -0.8781991083949328 -0.9535247177111255
Ni 2.1167190629387798 7.316648207726544 13.069793221175116 -0.7886000198788612 0.613466499834395 0.7698926732773451
Ni 3.3280406920981895 2.2017435296099657 13.226847778957346 1.759994418781556 1.9027649491142842 -1.7528174414171427
Ni 6.003783285494165 2.62509665382478 9.73778670711271 -1.810659035015959 0.46214319483564925 0.11281640717279927
Ni 8.397653616202213 7.6210359846419315 10.109272206286255 0.5771954333175027 -1.084028771971675 -1.126541448522905
Ni 1.7603072256475396 0.7844049452693066 0.036455019934037144 -1.3227197050528123 -1.4844086695565983 1.2167146643748916
Ni 4.1849897302921715 1.4692816335611039 10.971125678451948 -1.9291323833642198 1.2613040209494923 -1.2539259833178662
Ni 2.6421089964606645 4.869506058616804 13.312666527416624 1.0502285355927783 0.494550150411445 1.1462780077198838
Ni 8.81445135496784 6.370875559021508 2.1364457448622174 -1.0744082181627754 -0.441238326362182 -0.17787328757313237
Ni 2.1387224376780214 8.03633455145114 3.9780118151984847 -0.8271940781019753 1.370068883760737 2.4613993316001483
Ni 3.8347049436054257 4.403617421998751 7.573525269901334 0.8046658150924724 0.1797046843549163 -0.11732457945579794
Ni 7.762060576442951 4.418022509058254 9.553842963873642 0.48554229048587993 1.8433732374195286 0.21968276740975068
Ni 3.5384648403662284 -0.049798581508871176 6.018921197603173 0.13205622923901772 0.3029808534084589 1.3756816019618243
Ni 6.910409854045257 1.6531303982041763 1.1436829013691538 -0.263111785127663 -0.2977031499492873 0.1579806624142634
Ni 2.4213955002929803 1.3225583260002802 8.471289031818143 -2.852140677654043 1.1257904292894931 0.5077882463682738
Ni 3.226599826922864 2.5773280070146627 6.2607180797567175 -0.05563198754200741 -1.0977047267968707 0.05892479936066626
P 6.960143254164719 1.153282257703764 8.335699636731173 -1.1192785963129046 1.2459103121022415 0.6699834610845171
Ni 4.938579708136776 6.20172985350381 0.5215032603876656 -0.17057161170539656 0.3155239801807921 -0.9381891157953197
P 8.045432011087298 4.427334136116757 11.91271926893313 -1.2506167164389752 -1.149095679674337 0.09313821201758153
Ni 8.06637386034187 2.0763252247589965 12.532394082235882 0.6635366770179087 2.740984431792486 1.2550559831572514
P 0.4542546897711608 5.688491593293271 9.34382759603347 -1.962860114633968 -0.3912892481375648 0.0361939334220538
P 4.000628826160882 7.1949173071907415 4.111161563996129 0.7678946690107098 0.35532568555876226 2.4236503949861485
P 1.9305330799040232 4.406438844997477 6.521567482034665 -0.45467079771800406 0.1476952213278553 -0.5083173793988665
Ni 8.32404520430475 8.850198691245431 1.8456948457740072 -1.4921332918943657 0.14213803895505198 0.42409189648988255
