# total energy = -340889.1416469775 ev
CRYSTAL
PRIMVEC
9.14501371833635 0.00000000000000 0.00000000000000
0.00000000000000 9.14501371833635 0.00000000000000
0.00000000000000 0.00000000000000 13.38465196894401
PRIMCOORD
 96 1
Ni 6.679837934224286 2.1463438129339014 11.411258497147685 -0.18195568517262212 1.7773887029986033 0.3242685591426415
Ni 4.996167789181723 0.5792149764025318 6.267631023320247 0.001820083927874285 -0.9192156600166105 -1.2080364198746034
Ni 2.9666332336544996 1.6498701751549034 4.871410600544157 0.5509740377271285 -0.08796849489118398 0.27802829722817923
Ni 3.961327206790564 5.038481766635782 4.7393309995989465 -0.45884241259719044 -0.3338040094369026 0.18440594648532757
Ni 3.9111942427959345 3.0323767356897777 3.1068052570438627 -0.2931245294396693 -0.04293150925620348 -0.5732984122559416
Ni 5.501164579540617 4.675753951261283 2.5542068424265136 0.6868714950891074 0.5066852431120822 -0.5299254445869455
Ni 5.643067753985104 3.094270187042506 0.11053577814722591 0.28178416472618567 0.17210193230699394 0.53169436356191
Ni 5.840728075725332 8.186798983449952 12.281582115717136 -0.23676800502681158 -0.3530800840576951 1.2027738859240835
Ni 2.03578974475968 6.989524671311873 0.3106725695426433 -1.4344117688131812 -1.048882563087845 -0.853450440695343
Ni 0.41872181851983264 9.42302190807492 0.39398364250708673 1.364120379486786 -0.30876609263166827 0.2747452556015333
Ni 8.102125303474345 9.123504425996826 7.091228195422978 -0.24711798080256792 0.21899139776968088 -1.0989992772385784
Ni 8.71050647142523 2.3084849022488942 1.521339753948168 0.30892858635146153 1.2748501350650432 0.49589946535048784
Ni 7.140517989173117 1.2440967812465258 4.609393160814908 -0.0383505747537404 -0.3590411867371365 0.8987663910233231
Ni 0.6482753748334417 7.591129384260931 2.302414442289092 1.827472249918556 0.5941510873352348 0.6559421525001026
Ni 8.189853417958199 4.270748738486716 3.7599357195432566 -0.501518354199162 -0.3513787850958723 -0.28567167270604993
Ni 8.16764018017218 3.9866223141253228 12.634040080933671 -0.7787987175177233 0.4021614149653783 0.054555980869009264
Ni 8.232304570614724 7.486985970548627 8.924724754604473 1.006017645403519 -0.06525562667470051 0.03834286144425655
Ni 6.8380923928027375 0.9793029154193624 0.37736989648573604 0.36943461415631856 -0.9627606344870968 -0.49351296739618233
Ni 1.9012117261268864 6.641776388046678 9.291277014623727 1.196819211002545 0.5138133695164313 -0.8736515982335663
Ni 0.5092729986704396 4.923684412198608 1.2580100047819929 -0.19470604285975499 0.08468365349232512 0.48888960969155804
Ni 6.544912405078579 2.416487511657245 7.1464402999142544 0.34287306161770625 -0.4349069848275155 -1.1122988225609618
Ni 3.8236215935415423 4.54607765986328 0.019026200582055387 -0.7690578360808754 -0.3387842362603133 0.3129078827141837
Ni 6.387590737876898 5.955726620459457 4.586250789657518 0.5109069945029137 -0.15937574298957713 0.06547648443625496
Ni 5.566807486427421 3.016629022446663 9.389828252582161 -0.4677122042829945 0.4009488827145159 -0.2670334887795724
P 0.37255870488457316 5.8458492832840685 12.368315252732437 -0.08327211785677918 -0.4963038998777582 1.1911972368300776
P 4.360635076156037 6.243474470165957 12.203509306484202 -0.20225737284445167 1.1762372730861355 -1.096479596140518
P 2.4317413941714814 8.777109604729297 1.3108270302382106 0.895811165049741 0.7765353754048433 0.10161899579508306
P 6.659645744421269 8.066587781022115 5.686750739959776 -1.4945408728945937 1.109761657961405 0.4413452842536915
P 4.870853669222144 1.126464472625051 12.503593779399155 1.4971968224602021 -0.8322794630446827 0.903466881822786
P 4.27681188243572 6.344572594383512 8.126531515497122 -0.16641362367296503 -0.0758442008238242 0.3788659347725475
P 5.014503541244699 1.3697767017460152 4.049580245049189 -0.645010078968631 0.9101018706408003 -0.7596943925881046
P 0.7375462530943645 5.784952638402595 3.458045106462496 -0.5171969412766835 -0.4962241956797583 -0.5519058055127786
Ni 1.0889516272573072 0.13587203804272432 4.441094733911885 -1.3054447200224484 -0.622284098126025 0.7187444325383041
Ni 2.0382314633635774 6.878860862975679 4.723979265440284 0.6311641742244744 0.18319521400667804 0.05863786424786675
Ni 6.2657608680599575 5.827102005613694 9.256798484734535 -0.2759816991117957 0.628026399926441 0.16271612021671977
Ni -0.13434573528995092 2.960158564098097 10.087784827743445 -0.5887651404329731 -2.2842176707774016 -0.13834257646836173
Ni 2.6251858646892496 5.531626619501601 6.87447765800621 0.0173181795634734 -0.050805769797957666 0.5455698359924217
Ni 0.5637955691439865 0.4781214246917262 9.164042441829624 -1.445186490831182 0.008667960087643136 -0.5594339955690236
Ni 1.5023793974632962 1.4322645789760966 11.26812348938505 -0.04521824840785116 -0.6768927866098408 0.6777715896703682
Ni 4.275888236072448 6.92586623235408 0.7778355245600234 1.1280707406832378 1.237019951591147 2.0448834476853106
Ni 6.022713844330428 7.899938200052733 7.915830404509112 -1.1178074110840168 0.7043611672334386 0.07720508572709284
Ni 5.730841593536446 3.419549172143745 4.850811457640489 -1.391978539349635 -1.037375333779194 -1.0512785741238475
Ni 0.7694385731663953 7.643804662007933 6.723565730765097 0.8505168119883159 0.6366683918721551 0.05463105708131881
Ni 5.5459477106390676 4.730688047342229 7.242033126006168 -1.04667732790641 0.13897198252224455 -0.3658970333167053
Ni 0.5325205374830535 7.645249574140577 11.16271897831141 0.09868922374279779 0.7278165700429013 0.007815639389676863
Ni 5.297852639458784 0.5049254592536124 10.248868753498098 -1.7293982911622539 -0.685243215457065 1.140308163289694
Ni 8.348619997292523 7.70116218666578 4.542054768425623 1.145416431050537 -0.06391325371419315 0.061068070955914176
Ni 7.5280287911265 6.424042761678902 6.651328354645071 0.8487638338529511 -1.3974686159299288 1.5093167456521877
Ni 2.9831491280314246 5.330043086970841 2.3776230332945345 -0.6904507277999336 0.5850902626845472 0.23783758394190652
Ni 2.2891523437146644 5.617571456353395 11.42400115895544 0.7006402667384256 -0.23421001449164827 0.11911226748384003
Ni 1.4351452582278856 3.5631441740853136 3.670258802683034 -0.46319811846272485 0.2670255183597724 -0.8093850749450126
Ni 2.056045949657182 1.4270702113093783 2.6048811912202097 -0.5031744017453463 0.36021463821994737 -1.553247899817499
Ni 1.7975987231974522 3.366992779572213 8.220544997757976 -1.5236740428151243 1.0479317691388017 -0.23487464465884064
Ni 3.90691437647899 2.8283972096226084 6.901032948200958 0.1298895606050021 0.5431339728574195 0.40633482961677764
Ni 4.451124984716209 7.3701858581554465 5.347127801187326 0.04627908557219772 0.37169204273192763 1.4870175679343554
Ni 8.551977662441846 7.372755606948313 0.27573221647181456 -0.5871245195057565 -0.7626213364269123 -0.9215394230537807
P 0.40956308750184256 5.9185612856046275 7.959544483529676 -0.25219616665642375 -0.7243949459558621 -0.8650211762520781
P 8.768613887189893 1.9778652292649725 7.7596317449649534 0.2583722135601486 -0.2405544686524373 2.110306967396443
P 1.9169594393700007 3.475205724291012 10.521327055137721 0.7214636312416801 0.3717432076848372 -0.6133454008754985
P 4.773477565498171 6.617459797156178 3.2991422664270544 -1.3826415782194252 0.12878604312817818 -0.7090590869297402
P 7.183142897086099 4.145763839013056 10.257515363760215 1.4012270545310965 0.06984350315569907 0.4747986788161307
P 6.745581436259564 7.9155853181473725 10.377481479826313 -0.15643902895875636 0.19151916049134113 -1.1369603298633837
P 2.7094297290304628 8.768376116838951 5.943013222694894 -0.015070006959245015 -0.058535534342047585 -0.11938197620545891
P 7.3550691508436765 4.1554941333746545 1.4876504387238303 -0.3293665424908392 0.15831953381092087 -0.24936332519331889
Ni 3.0508405179417215 1.7166836437694177 13.472989901696414 -0.949188809339933 -0.41559157232835525 0.7450874413082071
Ni 1.5913969588503316 1.3991139050467762 6.847012438968437 -0.04611762029366896 -1.0474977669251768 0.22483474392433536
Ni 7.100590860241969 0.9888320194840111 9.031320860936871 1.6966084983257423 -0.08586636094651663 0.3438796485053497
Ni 2.916097889065969 1.469082403318012 8.990738034537936 0.4655031124468177 0.6973065743795024 1.1414844429859825
Ni 6.400604092084186 2.259915735562378 2.4068276338995784 -0.05331542359368882 0.4992447276736369 0.586017916705139
Ni 4.214744675826535 7.351182520107136 10.14323744608971 0.3281154436925575 -0.6731968258154921 0.7203608850958045
Ni 7.450543091760119 6.158581309866404 11.48864908837369 0.3487686011665348 0.19565812236037916 -0.22499723764412866
Ni 8.049193965349405 4.109256945130063 8.023469956881602 0.7802390495086756 0.6695546010772147 0.1306747755104588
Ni 3.2858216397662416 8.53818698208725 12.170998783499723 -0.2989056548978207 0.28768356092975617 -0.09439882389756
Ni 9.298832624775564 5.240403664665959 10.058404642879244 -0.35838889786511824 0.310397200477188 0.18046290267717952
Ni -0.31777550152634065 2.4076077035509362 5.716932942507729 0.4217758467621962 1.820038162238014 -0.627596254367558
Ni 3.8814089338337836 2.460310416338432 11.260975746835216 -0.42606264706300817 1.3820211710266068 -0.7227494399326392
Ni 1.4821414825927897 3.5070943863576436 12.727318304109303 -0.3198038385030686 0.34409227873678805 -0.1278301069728121
Ni 3.306864315824549 8.446700267055823 8.14157597720226 0.5961344363138508 -0.40268412023806777 -1.4000590023649242
Ni 5.903993279102722 8.662577455683557 3.5852129206580683 -0.30725685507599343 -2.026918121456142 -0.6094540362408923
Ni 3.177663565128429 8.616450007600937 3.5928014528584957 1.5264888865561002 -0.2710058431637591 -1.3265827875526444
Ni 3.587058384381913 4.369075923614455 9.52268426517333 0.5056825128791808 1.059722848236459 -0.6364729880318974
Ni 5.433381739495343 4.56605951435585 11.386751689976432 -0.548111885687985 -0.3603761034984761 0.41086279939411824
Ni 8.054580378299576 0.08223196137170971 2.556240693428412 0.4125823531883862 0.4780141004296348 -0.27331520802322606
Ni 4.654839305391944 0.665473487217298 1.6449867379471086 -0.3371703548059742 -0.5463704775168462 -0.020005753697965548
Ni 6.373626302265842 5.745217554754899 0.17738033980763238 -0.11760431547974586 0.10415384640179483 0.8383305543347691
Ni 8.055568039757333 0.40325577169244886 11.507146707175576 0.9780116471088962 -1.5592640241045919 -0.5506449365224839
Ni 0.4401851651990367 5.390573931312405 5.703373630994624 -0.646287660129474 -1.5495311130875442 -0.0011287142878045077
Ni 7.71186185245814 6.605681019771085 2.5101306208714393 -0.8885303151176117 -1.8579945868771293 -0.14729644322753987
P 9.073023951489281 1.7605705635450888 3.6483885029031797 0.21705998507492294 0.4331326665359121 -0.5737218729466055
P 2.3479364904781597 3.432315610986595 1.387787805829821 0.23700968872397243 -0.10555869716912143 0.735657920464191
P 4.966217869976613 1.3268682984146025 8.248451920947689 -0.4621344530849009 -0.8629835769967589 -0.12164943208339694
P 8.90625548534443 1.9710247591686605 12.752587805406268 -0.25069078575549086 -0.09369074208694188 -1.5655462575688779
P 6.695164976846504 8.02259112108447 1.2782113395985082 -1.405536480539728 0.4391094529446373 -0.9497043155237707
P 2.314831541616328 3.67274716085577 5.590005642167148 0.24780240846410226 0.38028544082789345 1.4206057161680243
P 7.220820352696802 4.189733063910206 5.95745502801053 2.1078687902685953 1.6347127892622104 -0.29100131244907945
P 2.2229058659370105 8.746473809511857 10.084210956468526 1.2874616531814667 -0.6497175117466294 1.099718157682474
