# total energy = -340867.70777148096 ev
CRYSTAL
PRIMVEC
9.28804080069781 0.00000000000000 0.00000000000000

0.00000000000000 9.28804080069781 0.00000000000000

0.00000000000000 0.00000000000000 13.59398656137080

PRIMCOORD
 96 1
Ni 2.15453748343971 0.17204330431868955 3.0749600128247354 -0.24955950036452504 0.35969167583694184 -0.5494285476168795
Ni 0.3364499816791039 6.514260135558092 8.866636598397028 -0.06575056403324805 -2.1176744635051077 -1.7514061628919129
Ni 0.1720916021296638 5.3549454874457245 1.8927856392566316 0.7754169455296839 0.8956407009101478 -0.6133068343280792
Ni 7.5999299099752955 8.350338571906608 0.7084740875529167 -1.461736424770063 -1.149615299623233 1.6537039856527327
Ni 5.575768652044353 5.476767427587706 10.707479799558966 2.1196372436584334 -0.6740319201222779 -2.284786141686362
Ni 2.0018606725176387 2.685451170574186 10.28170301648298 1.2962975063055417 -0.3544132010468219 -1.852406037045758
Ni 5.789792970944298 5.066579691807718 2.868548171977579 0.04630608215539122 -0.39086141657152684 0.9620085868124207
Ni 4.665772877005422 6.217079989417284 7.082874908178258 -1.4145795645786026 1.5426120173702078 0.03212593400026725
Ni 0.36224751436775543 7.767690498786249 3.839553370317563 1.0686384055585336 -0.5396969221514124 0.6303141675193532
Ni 6.148840755335008 4.453271796759281 12.83677424633217 -0.8303897022211377 -0.7641629698824195 -0.017769408168279075
Ni 1.4963219122257894 2.6836121385409357 5.067824289244363 0.5315336696143298 -1.180962960696579 -0.06486713298703022
Ni 2.9861514840917707 9.267467562104812 9.417356103247178 -1.6186148552590833 -0.7294669611621308 -0.6652495459439575
Ni 8.388400962170548 2.4726528730297415 6.095651862195555 1.932614171265233 2.2548590151096266 -0.23163016957961396
Ni 5.612772205683088 4.205856972003098 6.192931083930159 0.6650590271997062 -0.7998167145302871 -0.6811685311670591
Ni 3.113564824658079 3.551542377829406 13.018783618184587 -0.6515339961300779 -0.6806460830046858 -1.1877481019392127
Ni 7.571369185216482 2.33066659680601 2.7036130051086196 1.587784757252104 -0.5896552563474103 -1.0480590387452855
Ni 8.914234091112155 8.505151632160233 12.549587103042747 3.0550760504021257 -0.8193915513384212 -1.4554865872056095
Ni 1.7575294772313506 6.016328280494688 6.932484812845007 0.9805315853172727 1.3391912203452743 0.5607406301955891
Ni 1.0195853657476246 1.548790053416858 11.931999278898745 -0.5915871832628006 0.0842751051999968 2.0229113142895936
Ni 6.934126009614074 2.690912538430505 8.161952031397476 -0.2880106052518717 -0.19866528461781915 -1.202337569717613
Ni 3.1445868801684647 2.3335087372210332 2.853921365684838 -1.6090917462599965 1.1940650452961759 1.0143624178237884
Ni 7.523693672960552 8.006160940471624 4.678343311115529 -1.616957007940686 0.18488314323206223 0.24956515679147984
Ni 5.10936040668222 8.907221620480316 8.12656645442638 -1.3407189698437103 -0.7823866919792977 0.8128979731942774
Ni 1.3955002318170364 3.8164372949420393 3.1088362832028884 0.03111703311977866 0.882300789268132 -0.7989973039527852
P 7.133261599477148 0.20693289992324415 12.26216961634714 -1.0121332713829536 -0.4809040203829201 -1.5835702049501243
P 0.4576394062581338 0.852101560545716 4.223977939159015 -0.5062530406706701 0.39736810734179306 0.5514437782746955
P 4.560492937122123 6.019699839222314 12.323329505905459 -1.9163871678834092 0.13759515677937592 2.235437673160221
P 0.708324550099708 8.117868204430728 10.060501828633074 1.1249558492033398 2.420158836893122 0.7002661712284586
P 0.3932324177158531 6.811644618591482 0.18808189277837034 0.1834628658457679 -0.5159923794456209 0.030431319906663718
P 5.9771420373215385 6.1977608650275835 5.317491463839248 -1.1614685994173934 1.4085359294876838 -0.9088281461346993
P 9.274117799154343 7.307923202433076 6.435637800920408 -0.004602017548385623 -1.0785988592053553 -0.4504855559920629
P 2.1787328291296966 1.688714384633612 8.335669040627236 -0.19143688519017998 0.3592355621361297 -0.42286933693669104
Ni 8.791984901103863 2.8193382754191587 9.787357273884414 -0.3632837640635743 2.0071288546443564 0.7041806757915163
Ni 6.365744366812264 1.6894202757170818 5.760682394183624 -1.356300369221735 -0.9812064998971102 -0.5296202546417008
Ni 4.74239921172419 8.888645539336373 10.851209440998057 0.8330749623627847 0.21931509965768678 1.3376177052105673
Ni 8.571626138533833 0.6036771257793597 10.605498042882772 1.7567977662211292 -0.557809315481407 0.3333507239495678
Ni 2.928825697681561 1.3339390989060078 0.5068585908571264 -0.027343425009959364 0.6861842392140957 -0.26713504735444316
Ni 7.4436772034330145 7.772418111437382 7.556707084369568 0.33880351953402293 0.06700217705216203 -0.08398714164593277
Ni 9.176277579769193 1.5613753483918795 0.6504944230864405 0.089698075987781 -0.804451385088821 -0.3990547510155966
Ni 5.671927736085976 2.602323207455039 3.825986329454084 -1.2352770007581113 2.334862746627779 1.2318162959030206
Ni 1.0748213430291405 8.637868443893137 7.788810574242855 1.491490001883412 -0.7188904711978652 0.9347903745264158
Ni 4.808511484515484 4.151809863914795 8.76300992973554 -0.011434724199502888 -0.062114509942557544 -0.6748487595966184
Ni 6.82576244026088 1.3550601031666714 0.32016433134020866 0.7630867060991052 1.8120973101243825 3.098047925977961
Ni 4.27614886305178 1.9539343831662646 9.450430815723967 0.9757753015792098 -0.01192271957951495 0.4799074607976057
Ni 6.573564274610131 7.32070354626011 12.347852719427637 -0.5904168171037832 -0.5805826046221808 -0.7825972653282071
Ni 4.090731709113508 0.7074960568806882 4.491127063718467 0.35658372633557944 -0.033361606179581255 -0.29281625417063123
Ni 7.926757481621837 7.248386862366737 10.185103679318246 -0.61173280497274 1.3253527718002853 0.16629920958228778
Ni 9.075669524293595 1.2268851432734615 8.188772177353101 -0.09596334017120248 0.6628699899681874 0.5507778625559223
Ni 2.604580201314028 7.891722992584359 4.786564773447972 0.38494222287361446 -0.2489578622247841 1.071982125219786
Ni 3.1550359258119327 4.771192137497302 10.762902466455978 -0.3776364332408206 -0.27131077599868764 0.2985888949883503
Ni 4.9671233533630454 1.5008730521060558 2.0733275006986753 1.8712673927266352 -1.999758016101582 -2.5043128431342225
Ni 1.2416902799451845 3.444655606927155 7.340970050788151 -1.3573707194677782 -0.4081302309543036 0.941338717167895
Ni 3.2622292020530588 4.229894421003361 6.694603232931896 -0.1328823246847389 0.3541321794712934 -0.15139709565947476
Ni 1.0655518785383127 6.515783374211896 11.45558409862437 0.25114227147061263 -0.4056470595211336 0.9956314170731885
Ni 2.506823574294026 9.017647134840487 11.77608930105357 -1.793650159162788 0.6194402009193267 0.21404922327305714
Ni 0.20847192824601984 4.350518203911558 13.189877684756821 0.5467749120441163 1.6310409968375783 0.4968980818183314
P 3.8906487391120934 8.882403976072009 1.6857765774006974 -0.6576578496396286 -0.020802281457331914 -0.15826039843821132
P 5.887679630532307 7.426670801145734 9.716369708596892 -0.1684825903868518 0.22032091521438182 -0.7379508302634258
P 6.64185923693584 7.045238838976571 2.4067198594214863 0.5052477393346072 0.5909624051946081 -0.386810900651237
P 6.2346436741388835 0.241611657006815 3.6314706109715083 -0.07009984214087926 0.8805118156885094 0.7768143400978429
P 0.8099152802678203 4.11325520750054 11.145913395522376 -0.7535088326026829 1.4115893716020271 0.44961883711639333
P 7.510058829400897 3.791415313641148 4.427873649815225 -0.07830140411506516 -0.25999637942713283 -0.27558960587969955
P 6.884982986947771 0.5561325748954936 7.4066699345780505 0.7592560194991053 0.31849694676618695 0.45061513959139166
P 3.7707029831656507 2.8059263448332312 5.010063822535384 -0.3544913625829249 0.678099148213116 0.08392672072164256
Ni 6.590264171558537 0.4195872328388229 9.662714555820724 0.24747279303882544 0.8501000361658714 -0.42628864703088515
Ni 2.4033548023222604 5.504241451599598 0.6487705627562824 -0.9011965977313706 -0.5002669982905642 -0.7986345212967277
Ni 5.670711002771048 1.796799312769647 12.04170218370242 -0.9460849736036286 1.2089108520597567 -2.1175801040190887
Ni 8.257523182470894 5.565328894441456 11.621145279427882 -1.192723443666617 -1.5565957332438096 0.390729776089669
Ni 5.097499578871812 9.108121938052065 -0.033434159646926635 0.3127659578196807 -0.013094114179796805 -0.6115237742857275
Ni 6.567350575467483 5.740640660237422 8.247715940430949 1.3510740878257892 -0.6485299191964314 1.1487010153390798
Ni 2.689686517075005 7.165927638168773 2.1830991370025803 0.209758052096871 0.1628037948345196 0.3419724041803078
Ni 1.5074675609121555 8.81458270381547 0.7354976415970684 -1.4706825782197577 -0.7721488163013733 -0.191286989875877
Ni 4.1623982301668425 4.101747325231867 1.4205575076721015 0.3815612222165235 -0.4715953413874846 0.33192813257042836
Ni 4.4020018128019975 2.2855174315856557 7.097474779153341 0.23024871585105505 -1.4018595459087728 0.10108009257247752
Ni 8.073564250902422 5.974894331503122 3.680313629927336 -0.2386155997585116 -1.5178196409168765 -0.2431695376777812
Ni 5.046220306873956 6.571214400345423 0.8592292028806471 -0.046561392699306904 -0.3501899069940937 0.6229926941572755
Ni 8.060495977817657 2.940528628802246 12.246400381064046 -0.8441371337142172 -0.9195802424448808 -1.1307344035583302
Ni 3.317873853119741 7.557362820033949 13.272529171394625 -0.6664553933266006 -0.4747243739347695 -0.14167549749633665
Ni 3.670930851341531 5.323394013622737 4.452859407757885 0.159445419885248 -0.5444285232991268 0.17577758138636823
Ni 3.2007702375883214 7.112716453731946 10.685892535661589 0.9641809118733911 -0.6195402168323008 -1.0148959217297555
Ni 4.738098848939367 7.429921615345925 3.67998761970326 1.3768959339848996 0.2661451726373481 -0.912446716723893
Ni 7.795387435771868 5.309638425535646 6.013462919978235 0.042678769815449075 0.3523856290938318 1.5272149660888472
Ni 8.673998921718105 -0.012453404798899696 2.478251703886526 -0.09570777251697066 1.3301851601919221 0.23641036457707673
Ni 5.287523600933782 8.498575699435277 5.836183947189125 2.2041044102645784 -0.7090937968224175 -0.9187641743014887
Ni 8.767585218521294 0.16051034434047223 6.213742796439775 0.041052289955619624 -0.574064858108321 -1.9508463780025431
Ni 0.6254241439745742 4.862967266388954 5.302592517957749 0.5797207708425177 0.11835302072031229 -1.0591525775552857
Ni 7.254294056170511 5.489352722562728 0.9527086872172565 1.3685516757852625 0.4095278826327786 -0.28739508315505985
Ni 2.5034148634041125 0.807859836889243 6.376001150015893 -1.4803147019928828 1.280624318544659 -0.6461159104383002
P 3.4719995983710397 8.373215015835374 6.77753986241526 -0.7789457846185488 -2.1375465198386863 1.0727904800536945
P 1.7585418736536953 6.085004052483846 3.7563585333062974 -0.9582853723245626 -1.476372429515683 0.17185664906540724
P 3.5221085772568275 1.5636973585348726 11.447998555889242 -0.22132518810918012 0.5479501632991403 1.3646204590516564
P 6.272232374333652 3.45089717019152 1.2876958025062748 -0.07201454266508887 0.0973738473654839 -0.1524029112161698
P 8.540464762414869 4.282594763208729 7.94196014643004 0.10694092222862873 0.08846831734573796 -0.06095468530650147
P 6.497058684418801 3.3199543742078625 10.078567996349616 -0.9045035506174164 0.125772453112835 2.582975487243448
P 3.26430972314118 5.712730098318648 8.762928194978507 -0.9985547613675706 -0.04154568465227038 -0.12706134712758763
P 1.2005628362924938 3.153549839320417 0.9291774364281662 2.483931451264393 -0.17753930127248135 1.664198457426153
