# total energy = -340890.68999431166 ev
CRYSTAL
PRIMVEC
9.06645840126734 0.00000000000000 0.00000000000000
0.00000000000000 9.06645840126734 0.00000000000000
0.00000000000000 0.00000000000000 13.26967832191349
PRIMCOORD
 96 1
Ni 6.436124546048331 2.093989185760643 11.657889494144882 0.9194380604400616 0.6272298721670747 -1.2839233010109048
Ni 4.353704160950273 0.1621817109187953 6.120293568022308 1.4290795579669904 0.4311945689729348 -0.13745426032613747
Ni 3.04028262741892 1.604908164645852 4.856118315493275 -0.8273300894592074 -0.2936927432383135 -0.5795629051084148
Ni 3.584342651055587 4.295270837854381 4.840234787373539 0.3658672085200344 -0.10852780709977437 -0.04762840051124055
Ni 5.226432360777662 4.4231532307585795 2.5890069237044786 -0.13830503836220695 -0.5911750354260464 -0.04741499894885382
Ni 7.404231886134648 6.08582380059356 2.525432012163639 -1.8603252918928348 -0.286177665808191 -0.9431225485411951
Ni 4.933830555304622 4.313213358631226 11.485529777251308 1.4085315586123097 0.7169737137911264 -0.7145921009328273
Ni 5.297078203068305 7.923331950348043 12.667752407469077 -3.805232678703124e-05 -0.8745023762696358 -1.5333213360969014
Ni 1.8438002717449478 6.588731170462616 0.45736292374959775 0.350966380148802 -0.28466020072240006 -0.95109836765782
Ni 2.705449259652526 1.421529981102404 0.38760468771668743 0.47896515148899443 1.186777253385511 1.0205022121729392
Ni 0.48999582674712233 8.950353135814826 4.76933417760749 0.5757288760743052 0.8521240085744357 -0.29248741007630275
Ni 9.054499541152689 2.6264350764437276 1.6911673546018848 -0.7681713197108642 -0.02386755064621696 -1.0419637244808249
Ni 6.99274161429133 0.6330980830308524 5.031039306828213 -0.44296379369372096 0.5767490898087035 -1.2292068833046315
Ni 0.6223452636062241 7.429309709514515 2.428125342891494 -0.3246485681898796 0.9975132074769336 0.34111725526886416
Ni 7.663260596894873 3.97561472111398 3.7963354833225336 0.8395325450626703 -0.6900110691593535 -0.214548788617295
Ni 7.8076530101803945 4.109707637884848 12.599452964560468 -0.061848914985996706 -1.0299057648750265 -0.14535551745108513
Ni 7.894881404517955 8.95104218663799 7.370589886339517 0.3504501026340158 -1.0824007494499488 -0.8526937650349767
Ni 6.758237672960802 0.5220357833783985 0.19786003722553794 0.823824133188478 0.7776862011798349 0.546054231828008
Ni 1.6566413751323008 6.622621591212414 9.306038450794292 1.9923781786977428 -0.7742823177046084 -0.7311842009635536
Ni 0.3071706971538449 5.105195681733709 1.3867873132818518 -0.5555485444716884 -1.3466080816346357 0.5111419933318552
Ni 6.286219726177503 1.8024028236059495 7.062746457987268 1.6277124466849773 0.05861780964320872 0.1678287588529368
Ni 3.5703440395955317 4.337330137441944 0.404123774556209 -0.9765222070475634 -0.32385229754082934 0.5739370742812052
Ni 6.114872732664815 5.543404805891006 4.883440993923342 -0.2252890578529346 1.365094056253965 -0.2846810266580065
Ni 5.2954190412177935 2.5216449525737006 9.42716451904821 -0.40384780152886585 2.3332288105687815 0.23392127960663583
P 0.1873511055264768 5.6807888469883 12.536355855366745 1.3216231295545238 -0.7840653652333013 -1.505876352512071
P 4.060639966109058 5.9811968729711245 12.47648277870877 -1.1275187248345095 1.969302527825202 -0.10749756606304713
P 2.2040831876773885 8.552716412100372 1.4446168102616561 1.0653959873618362 -0.28536853964333436 -0.4184868915982793
P 6.254088198318412 7.933930639983279 5.9954393721567465 0.21856099510048166 -1.4043000370294654 0.4422387426022384
P 4.722763408419846 1.0816556625770783 12.51217833128609 -0.29030274372015813 0.22404027304749805 2.086462813788994
P 4.008208638341246 6.36731919477219 8.375342943822465 -0.7707115696342146 -1.1424360082659744 -0.74830826223835
P 4.968944947911355 0.6821322089113047 3.8150858255249562 -0.2734568758074129 0.9194023221061199 -0.10017892091444681
P 0.013390252114867916 5.832579490164628 3.6559821771648973 2.3160165604555534 -1.4983378780431809 2.1290153424392235
Ni 1.5931580348192769 1.0837590808793665 2.7372562083080747 -0.01005249913999559 -0.04775798411056937 0.15868617312172026
Ni 1.9515823268208161 6.282874203101882 4.941150813654914 -0.6719264437435009 0.4334118883392278 -0.34665901102269975
Ni 5.880269060294091 5.678068909528444 9.34235777569574 -0.6227214427737598 0.49914059799560484 -2.3244934875783128
Ni 8.615746429503421 2.2768868470195165 10.289374720718339 0.5312053397406336 1.1901510549537502 0.4108933955217375
Ni 2.3192000074366668 4.932089795330314 6.981575364372804 1.4818537643452288 2.9211776257480464 0.9515693937569677
Ni 0.6568757763049078 0.24831850368913458 9.21600398764398 -0.25769138544304004 -0.355085287413182 0.05439425848016438
Ni 1.5006076295185986 1.0456980893577905 11.706934499775175 -0.598670315361827 0.8366647365965719 -1.934591863816894
Ni 4.057294443033436 6.743867336714565 1.3983987262979742 0.9242298254017501 0.6381483188517914 0.03518528965188134
Ni 5.616208465233134 7.9714204446382855 8.134644798250024 0.12031040155699925 -0.09678506474154945 0.6309399740288102
Ni 5.353290243905316 2.66174893113085 4.848527876688639 0.27195355178900904 -0.13309752601933852 -0.4578042011406631
Ni 0.7622706329368429 7.403171110525304 6.862281627321009 -0.08697862017408892 0.4967386734223316 0.24984463570511162
Ni 5.1885345655036765 4.788676559530341 7.007703990257995 0.11020082392682311 0.420345799183889 0.6518484420467032
Ni 8.422939129432473 7.162075854083726 9.305534355718398 -1.5575632393634014 0.46802459331709073 -0.0589826491817952
Ni 4.278506956643472 0.645850056488474 10.49748348229261 0.5811135374249862 -1.53067155717888 0.045138029989219036
Ni 7.8716803379853895 7.435085043387607 4.612725618543938 -0.2507203534418456 -0.8053474145405292 -0.002742595742143664
Ni 7.564490601269326 6.36263183588304 7.105049645300398 -1.4627648660345776 0.03295562899041421 -0.3167359982110222
Ni 2.4302913197553586 5.600369362758576 2.716542071259636 -0.762010699426107 -1.3112083619791028 -0.5927688622757274
Ni 2.133691206216332 5.1287866059688545 11.460875357469359 0.19908334599184424 0.47468246495324057 -0.495529740715895
Ni 1.2288496114462506 3.3168096025042146 3.8350302202722557 0.32280714410576666 0.528840953273515 -0.001121772309269036
Ni 4.000901073032435 2.2979300965005978 2.68844965052843 -0.6154526770264885 0.7759597054070314 -0.6285570756189304
Ni 1.0087794715693539 3.3082508659638696 7.891106131323676 -1.187823178151522 -0.7005111973597291 1.2817203798223151
Ni 4.180897467667463 2.740128462265682 7.099596170693388 -2.0963317361632736 -0.022648590637451314 -0.48593746904176954
Ni 4.006023621915162 6.856463681094377 6.184054341956236 0.753073030616845 -0.7012210789425601 -0.1403169265859132
Ni 0.7425211670408333 7.472166857423635 11.277594185028645 0.4852748957571062 -1.01631285668194 1.2943239275189387
P 0.32474330643615035 5.539696624487403 7.94011124453789 -0.15299426494326554 -0.405839635147914 0.523484316947292
P 8.483330807499463 1.7871893067471585 8.104986600187763 0.07574032825610827 -0.06512630018568784 -1.0075600501899744
P 1.5863219253368406 3.1989184465358833 10.23780833306276 1.2060530708959876 0.3166583508955514 0.3403808913234719
P 4.304110634598911 5.957107293535005 3.698590904119351 -0.5630402248630432 2.0030081476077632 0.2327483423444572
P 6.789344691043348 4.0667054266445355 10.325402105665761 0.8723274801055042 -1.5228147801386225 0.5531407063611442
P 6.6790602935044125 8.173067541453761 10.494603975168443 -0.9055978121228597 -2.0802618271846045 0.17790516925233232
P 2.405857214907658 8.354469237109715 5.7137644621057655 -0.7475518436882996 0.21182779014170613 -0.28908429793202467
P 7.082998205667531 3.936474821066661 1.5892694308975037 0.6483255164951093 0.29357138716910086 -0.7089616421199274
Ni 5.46433622393301 2.9920944020884823 0.3686675764753545 0.036835680771110754 -1.2719864403640029 0.5339667045358545
Ni 1.4614405300966815 1.0071747084680391 6.836086816290962 -0.3616043194786224 0.5184989479175587 -0.08941602597098794
Ni 6.902847681243111 0.8739530783301437 9.428040338910284 -0.2906634694936865 -0.597424615880184 -0.47521031243225254
Ni 2.751370870433084 1.6590893188461706 8.921549904760777 -1.0915441065121136 1.1498785805869487 0.8672310394192031
Ni 6.5918409656250505 1.9926896482974301 2.558102087639782 -0.6778456374414132 0.11608016552573558 -0.11833296611565429
Ni 4.047393870679562 7.024102493203462 10.493290245375333 0.18360864739501281 -0.08180941726832362 0.12605733134310548
Ni 8.002255468974846 7.17367185412091 13.266387069591923 0.4155254949771102 0.6064738705666459 -0.30236558842196315
Ni 7.472311920754827 3.933392225278825 8.145697717441058 0.3089108457396486 -0.20817502388046727 -0.3480342941036716
Ni 2.8656898418708048 8.389492965134453 12.559352019944003 1.1823415862116606 -0.5758006098525051 -0.7421522699392831
Ni -0.1316359065987997 4.823129100688509 10.114745669337426 0.29230563308279983 -0.0215908387968983 0.3675602799517412
Ni 8.730328328228927 2.4367466379934153 5.672774097939926 -0.24250593595185332 -0.553984285308362 0.33980727820818896
Ni 3.4141561641924376 2.7435465170068998 11.539033667024121 -1.0792249228251285 -0.853318285992853 -0.24308083461871685
Ni 1.2862040260164005 3.313672607967181 12.818190335082038 -0.681268032859401 0.2183447653246175 0.3899106226224833
Ni 2.85110191062778 8.480075949005835 8.088731347281847 0.928480373147988 -1.0571219202785018 -0.24000836634098022
Ni 5.658168033780503 7.797498576996934 3.253844863600203 -0.007311960280380956 -0.7475472157026093 0.9204585312847761
Ni 3.119596003748302 8.101134262098787 3.4512969102067625 0.20495651694316958 0.11157019347052399 0.599557860173103
Ni 3.5736170310055577 4.337393602649341 9.249708546000686 -0.5701323558231343 0.056496649535147866 0.059166483057827145
Ni 6.88104284927327 6.073901408061195 11.284587144237934 0.9554533021924061 1.0475167930885703 1.3713109836979545
Ni 0.24797035169427312 0.025737861536791275 0.369014821824396 1.0503151817693137 0.6853010652781939 1.0907843455279536
Ni 4.5717524806486765 0.25000577156006487 1.461057925560662 0.190337224368098 -0.4088205721531088 0.1008918878210714
Ni 5.922790749249829 5.40661915103488 0.243214994368626 0.5488973577037579 0.9992587294131305 0.8907172954666015
Ni 8.3190103190914 0.035294815124903046 11.504784214529623 -1.3453932353909281 0.8394726383590123 -0.7380210213797289
Ni 9.05652136133118 4.8979999125001275 5.776463553784532 -0.10200003328358562 -0.0686811074164817 -0.331959500028996
Ni 7.679462357697411 8.938575806613652 2.3497149857987836 0.8953427100537548 -0.6576457654547706 0.6759471348671198
P 8.532733938228635 1.5608361113379958 3.509285976850878 0.8525598105602737 0.06169027792094537 1.5974053110610038
P 2.209559328429897 3.269790950281515 1.6848244604455023 -1.094003880906516 -0.04422991635265286 1.042292311464837
P 4.617746623094832 0.8658159320960765 8.239899124779868 0.6527444714984113 0.5749948261217581 -0.5781919929028171
P 8.585872449736009 1.9317993150294683 12.619397359307769 -0.407143184450686 -0.5224851862588162 0.6405484436528517
P 6.382460179965386 7.502476027184623 1.2161955557371835 -1.796836784420886 0.6670074091753287 0.5346287635998856
P 2.0973256423780655 3.183831860091886 5.9907556398508754 -1.034867736865992 -2.0304852699821097 -0.9199401968874609
P 6.873100631890493 3.783686867488386 5.911256401128403 0.3523586325106383 -0.06256239611325355 0.739300916533417
P 2.448560233027387 8.560232505947774 10.296315094470069 -1.3395303488522479 0.15270373028604026 0.29718275866944305
