# total energy = -340890.03050111706 ev
CRYSTAL
PRIMVEC
9.09000240617445 0.00000000000000 0.00000000000000

0.00000000000000 9.09000240617445 0.00000000000000

0.00000000000000 0.00000000000000 13.30413735296017

PRIMCOORD
 96 1
Ni 6.365155976867736 2.004909098733574 11.404106971604179 0.2597243567126688 -0.6149862789130311 0.5776520612389471
Ni 4.33581295181233 0.40535865587914105 6.116657128573202 1.644270865264291 0.5860665105548875 -0.15418879947199896
Ni 2.4943602753701173 1.5729612769749721 4.867039052257371 0.8859849229879387 1.6558490570201936 -0.9661359787172328
Ni 3.29750743316976 4.546537386333425 4.932202552117235 0.7003903555111486 -0.4830694034653551 -0.5184441834202234
Ni 5.038333783576751 4.714011589664312 2.5456269796344393 -1.0334736847319426 -0.5113283983110484 -0.6720981934346747
Ni 7.008346363281488 6.198963463868461 2.684083168457447 0.8081630296124535 0.6711818522679924 -0.5708162692640364
Ni 5.301816591748111 4.2347503056642175 11.517751090007517 -0.015195219683199639 1.5954088494562653 -0.027029236203650223
Ni 5.455846681600581 7.85829794319092 12.530914571145045 0.042185375118798316 -0.08062670981413211 -0.3976092768183217
Ni 1.9641949781995394 6.624939154081883 0.3167665839575622 -1.9728833031979245 -1.6361454079436788 -1.0890403662536536
Ni 2.6395912429459742 1.4014511125998528 0.49443340692560434 0.4329894560898285 0.3143559280146199 0.1296609895339638
Ni 0.4198063056172063 -0.06278101024343857 4.696227000062876 1.585960816669488 -0.19104607750966454 2.026336537921059
Ni 8.594669943713713 2.0813560185128166 1.3305999982684222 0.5770164845374772 0.9302099542445851 -0.07270462675357801
Ni 6.741118474141158 0.8227524748721605 4.949977142716086 0.021238340553486005 0.35638883671595395 -0.36299528628887806
Ni 0.7652254859881039 7.34603995065353 2.3256298337142 -0.34316899559157027 0.369515346795583 0.5737398706687346
Ni 7.7468454243546185 3.950451392107072 3.944916489675017 0.1430286690901214 -0.6757779562791071 0.07930130613448924
Ni 7.8933944422714974 3.6006953716140964 12.769803468953178 -0.8490409987737378 0.5257204053666623 -0.6980043717774753
Ni 7.807439380032196 8.807375998747515 6.846934282519063 -0.12320417816502653 -0.015487811222953972 0.33699834800448414
Ni 6.729292381081372 0.6607486349566288 0.27938576728595926 1.2099593479289292 0.4229840081376845 0.10474622857015507
Ni 2.1723378520527024 6.265202311006552 9.204188234415426 -1.589281910622921 1.8808365244723093 0.3508892470539634
Ni 8.887331659434581 4.9448703793948035 1.4479955606423778 0.49496075558630237 -0.4930835931682476 -0.10371521620247945
Ni 6.684033259371402 2.1058535748511114 7.265961574934714 -0.6470443357898404 -0.5709314546856619 -0.7538675014936824
Ni 3.4079236917379485 4.384135404314881 0.4819173826873119 -0.4984713398427221 -0.31698359544545407 0.4777369355088481
Ni 5.923190972517371 5.455446721497098 4.696041564014897 -0.17571021848354257 1.1864183273841955 0.5167670528281164
Ni 5.4423025780962915 3.1202614773106094 9.305685382675957 0.23202072014981331 -0.9284410352696204 -0.5697587745337994
P 0.04325023119020658 5.549173735747249 12.52839936749428 0.9259038706700634 -0.05385869769166854 0.07867884205914193
P 4.164239157420748 5.9290722040390325 12.553397782962165 0.15938242785779647 0.2422778791014473 0.18147334621956487
P 2.517939741470873 8.454283947391403 1.4947199907314697 -0.07068811054418149 0.5128093537319491 0.6488335664797793
P 6.147759480620366 7.828446375467372 5.530941918030099 -0.2389426440806272 -0.6174298553575173 1.4841932111116827
P 4.78746789866979 1.1449948762464903 12.800363147859937 -0.9052998212664667 0.23990732198674167 -0.5856389360991656
P 4.223742312816102 6.226651611032263 8.461776836330051 0.04718642787781551 0.6337548177697859 -1.9920393073010854
P 4.823437037976147 1.228622897883712 3.9083165042054397 -0.8925232383270888 0.2740387164528119 -0.6412912353561472
P 0.14042508333242293 5.693641143125549 3.575539699105526 0.018782679924141846 -0.2916600290790009 -0.49993995396844865
Ni 1.1195065096518415 0.8665181091957183 2.5310193458549812 1.3438806554011435 0.32740119123435224 -0.1932276585420156
Ni 1.8394892359342083 6.726001800229994 4.691291128785809 0.43531450467857935 0.044019085893427415 -0.3478003237159945
Ni 6.291736027871666 5.664489505583097 9.223904449516636 -1.3611381569300105 0.10851572291491633 -0.1232093203713491
Ni 8.607605017060425 2.100135963371784 10.286745702507378 0.7182119570736017 0.6312261378106613 0.4893068997346347
Ni 2.392388628986818 5.379572471866023 7.07510061355293 -0.3012098775509651 -0.0515552463694725 -0.08336287779837256
Ni 0.5935344305661824 8.874060256000847 9.274061264493794 1.409683927049198 1.0135545772105123 -0.09362672161822586
Ni 1.5655892850676039 1.1928264686220404 11.455673645946112 -0.0055373848784614306 -0.8835832555249815 -0.8262219439966931
Ni 3.933716697777276 6.815338343344193 1.324217907617173 2.82029473678804 0.058625522952692584 1.3064849883615048
Ni 5.538038482866206 7.881304739143507 7.911531723964188 0.4300877090620012 0.36539104021456426 0.04406073776464024
Ni 5.330004689041265 2.9991826459836757 5.179406984076862 -0.11712660451237893 -0.17267863074607034 -0.41193417808142613
Ni 0.6741091204134102 7.499306480308443 6.8367834768927285 0.32832370304862163 -0.47157117301776846 0.4326349009638871
Ni 4.9455339495664905 4.89202110572102 6.746381585502891 0.621698143715568 -0.5547648722281284 1.8983999872773691
Ni 8.206254143218224 7.215707496932391 9.242025369205093 -0.34641964131838404 -0.4592771861417639 -0.597596365571358
Ni 4.666479967366375 0.4796612441035773 10.472804415646669 0.4508838198717461 -1.0472470843669512 0.6947935781496615
Ni 8.078821400247332 7.1880920697874044 4.758477154168965 -0.06654452068945313 -0.6303943859379852 0.34912187074089546
Ni 7.261102968677639 6.130852076245884 6.954644447387099 0.2742222932185277 0.0927386625863177 -0.10317399898702877
Ni 2.1644568200136294 5.191718483262238 2.390194302419076 0.2166943742053881 0.42366792157858646 0.8902025606137121
Ni 2.2296957668930144 5.122534475362141 11.649088897988772 0.1540407039299089 -0.5605485687894411 -0.4729559691804371
Ni 1.1319052728597947 3.377454003854474 3.686296832761909 -1.0238071081764564 -0.15749112437235457 0.990163709090398
Ni 3.4896155428742213 2.9416247510916227 2.9879492210772325 0.5781930213440816 -0.8299451584845513 -0.30552547420718346
Ni 1.3549012105559166 3.3509475569964153 8.274867298970625 -0.5827888682448802 0.7410338400641238 0.9303413376161267
Ni 3.82311863916205 2.81778255904972 7.318366347493492 -0.2996232497901356 0.06876184005574609 -0.38220965443379984
Ni 3.948797011679031 6.878495679684998 6.0683892160847615 0.7176028627346932 1.43245001710112 -0.7759483925531216
Ni 1.1327870030879263 7.172111845652813 11.196842191978206 -0.7208823048169133 -0.014733706665748818 0.14328680784751452
P 0.182123651121165 5.643373430119698 8.020758101224516 0.7112846338261491 0.5162358629149948 -0.7160257480555604
P 8.57858972955325 1.3521651198480031 8.220200933826701 1.5228605457748934 1.1636113567920088 -1.7448516496028466
P 2.0183259422049367 3.2523664814903643 10.422846671721015 -1.2251442831994837 -0.25678532868900295 -0.21856999396154614
P 3.872777322010326 6.160930894028229 3.6575869693337566 -0.20705685111562405 1.4688295841714187 -0.06105315855757873
P 7.171284655438792 3.808801885457852 10.471926321419478 0.2320492593949036 1.1822132881639122 0.1739227875658166
P 6.433858214643183 7.7893139153425635 10.491975230606766 -1.0244334289065453 1.224443657588033 -1.2521706911896564
P 2.4094232933942257 8.599887605063687 5.859181902956195 -1.5571536626298086 -0.13492686591859343 0.13410231313476903
P 6.936880764791071 4.034079413744293 1.901453963966449 0.04732243923504753 -0.612826295147235 -1.5826145259050746
Ni 5.446383989152281 3.2233421039808374 0.37360909566452283 0.41451736542757 -1.3216539827924594 0.6647324970982229
Ni 1.5242934043830498 1.5409917387034386 6.839736818656851 -0.14169786609383983 -2.8302104532398547 2.8154800890082154
Ni 6.943116506404456 0.5213598118923193 9.233523490005387 -1.1884456422268694 -0.9042554391623522 0.9061354297938846
Ni 2.878176534675557 1.4999776480917923 9.247399378595519 -0.4698390208180102 0.8552149887949335 -0.10377435157518904
Ni 6.536129831104094 1.906537093281616 2.4366660304427863 -0.7823594382857881 0.12097606016545617 1.3345658057581207
Ni 4.0961459498028745 6.9626509214586285 10.639664134818572 0.583772315204072 -0.37979127480029434 -0.9827396487121848
Ni 8.20030019167775 7.211517005848178 0.4999710363583647 0.003833000592845012 -0.013180246135699883 -0.33821885067514657
Ni 7.785914254462964 3.8986020186919945 8.347374611730567 0.77754041963059 -0.1558481894522929 -0.5015296670530717
Ni 3.017335380680364 8.364720154218409 12.341476195131326 1.2764940984263693 0.5958423589947287 1.0180738052371048
Ni 0.20379330772779242 4.891593875610482 9.988107310240155 -0.01871454569036777 -0.4415702557803041 2.002221904261042
Ni 8.84294517795039 2.497123636085086 5.828555867032267 -1.4047358390153035 0.5716233385463639 -0.35655158754606336
Ni 3.509431748001302 2.763551605018452 11.907135884753714 0.6132158172761697 -0.32902047200533013 -0.4281709516552626
Ni 1.1324234029938514 3.047286938429782 12.706727942633538 -0.08776254952796497 1.4261500430250214 0.9772164049011106
Ni 3.0211622716705024 8.500561149364781 7.958946994232021 -0.020886099420389836 -0.5300997653812806 0.8217281698913977
Ni 5.411578370146964 8.083502751458546 3.424258425964262 0.4941783688943231 -0.70277248259008 0.2806209976560199
Ni 3.038451456143762 8.779196991456711 3.743344778522022 0.7482923213987499 -1.2047500358138477 -1.3049117303371138
Ni 3.635255560555913 4.535193063398289 9.493473014262573 0.1955791894933277 -1.6927158481395557 0.8755313317547824
Ni 7.2735380918949994 6.107454410192166 11.333901247439732 1.2974681295748751 -1.7027467500129965 1.8095359771551096
Ni 0.8941935303562275 8.740909901550628 0.13969242914286206 -1.2491316472530165 0.7617301920712107 -0.23567348641105218
Ni 4.509522896756602 0.31444954235807004 1.586106329376014 0.7062249599150546 0.06561532400696442 0.21684966883632978
Ni 6.273065163040921 5.589806046260117 0.32086617501825637 -0.4604112997462071 0.2794981969054864 0.021301332580937506
Ni 8.297708656880408 8.524649655597242 11.558208872475227 -0.7866958608776129 0.4566914276924586 -0.4171889987224621
Ni 9.386063728472385 5.087992466425027 5.658715536089187 -0.9746427306366634 -0.2503714547428591 0.8320367509062574
Ni 8.015445903850082 8.837982036666268 2.9606764870209115 -1.6422787745349263 -0.7902005315967616 -2.029641176814259
P 8.60112384538354 1.6122482671397624 3.792171726155102 -1.0045590585801216 1.7941283843507876 -0.37212578783523653
P 1.748461952382563 3.0936368604219773 1.6674073104111564 -0.02189474319056229 -0.1461474172247612 -1.3791451350303927
P 4.936516667233433 1.1479582170132008 8.338647300472534 -0.4778621482328028 -0.4952104097032633 -0.6773890095199688
P 8.730347318817753 1.2656282974581825 12.600893954250928 -0.5326695829909859 1.2645556951175707 -0.23684693789386307
P 6.269201912041376 7.8936671423420535 1.234236883336228 0.18164895256548072 -1.2342652716641451 2.102261214273831
P 1.819163990675423 3.5526910691938602 6.069892702473761 0.0985904933814044 -1.4971574845818347 -0.27667563985502674
P 7.096873896186369 4.054141048934875 6.190082531570683 -0.5322173259449157 -0.04182799177937958 -0.8009533992378916
P 2.5697618448788946 8.678943355517918 10.321894923601597 -0.6025549951282139 -0.4694878081261785 -1.3131888827442417
