# total energy = -340850.9141478309 ev
CRYSTAL
PRIMVEC
9.49182562987287 0.00000000000000 0.00000000000000
0.00000000000000 9.49182562987287 0.00000000000000
0.00000000000000 0.00000000000000 13.89224625775128
PRIMCOORD
 96 1
Ni 1.0270914706444236 6.874293370723263 3.7364305925907466 -1.7595133653800794 -0.19221438678615285 -1.0464261311275527
Ni 6.3759725237541645 4.551254467712516 9.644219765017938 -0.3778398075008783 1.9766515119911054 -0.26787423951331285
Ni 0.27688699540991 0.3668562140781253 11.54202582779762 -0.6422721112121778 0.24532129391346136 -0.009675832526867207
Ni 2.4002738883781287 8.526136806082087 -0.09231749633564676 -1.5388849462276077 0.3431810797764283 2.645181014237915
Ni 2.292854897422904 6.529312967235799 12.870888063993174 0.08508834512991152 0.29750337523365533 -0.5479113396414048
Ni 5.084495741272078 3.6901085850216306 11.799017956631392 1.3028695030961046 0.9603710512089977 0.21785137062796672
Ni 0.795517501736338 1.171310269670109 7.241694415594075 0.26524374386900124 0.6524433953182247 0.9892111153691415
Ni 7.289617694151452 6.886272054701834 5.353626965938018 -0.5862572864094548 -1.3630358881733557 0.8764551291206326
Ni 2.3907820627215743 2.8517620675577886 5.743318614180681 1.374715381393813 -1.9950354138149318 0.7687863275870437
Ni 5.893702353970299 -0.008268329329424418 7.6176608839373605 -0.6545357590708792 0.595832845913032 0.3029050058652009
Ni 2.3366217055252756 7.257279044139571 8.70338146329719 0.30576227280833795 0.4578026584787664 -0.1489792302466015
Ni 2.8845942925038095 4.460977713893029 12.208505756463365 1.9299944742541988 -0.27028002074132806 -2.098985628846353
Ni 4.148962420910777 0.7819109696576674 1.5954553466809331 -0.9370071796720767 0.38990959418121884 -0.0707978966491684
Ni 6.550527197578197 5.961312628121934 0.8551166750338421 -0.05866306105884736 -1.111679700919724 -0.2716622458008354
Ni 2.8005251926637085 4.329582371329348 4.073817535552968 0.17796353329409353 -0.1727727331217734 -0.014095558861117661
Ni 4.260776127144986 8.40297087636264 12.854453917051417 2.879060127752706 -0.8235567384597042 -2.398882444012849
Ni 8.244875028227073 0.39207884239528695 6.153334159519159 -0.7726614942717337 0.02785713142158428 -0.16264052978377794
Ni 9.429284017303226 2.86630354446363 11.073148624015152 0.8968920568187457 -0.19701926437396391 1.355952241853697
Ni 1.542991178729461 9.582852264600618 5.201062953795089 -0.011425982448754516 -0.56170222277791 -0.33349367728533535
Ni 9.30903207806034 4.135218257360086 8.974252539605974 -0.4963560932719323 -1.584870926039419 -1.400476806628633
Ni 3.408827823515302 2.471006973170771 10.814821944494069 1.3887764874725697 -1.5191183051236419 0.007340242415155101
Ni 6.022411509873175 2.679798662137995 8.36625839308822 -0.23347416476688826 -1.0859488718125232 -1.384086281085752
Ni 4.308225763602101 4.820110429434416 2.4840031808597254 -1.1383700657267168 1.8384205213999434 0.38956532346792266
Ni 2.6455806306461174 0.36041695955271885 12.066388447638039 -1.6104611158036974 0.5293919406809785 -1.6676961861667667
P 6.076875605490482 3.7650750240570963 2.0180295265455976 1.6561370205742574 0.08265042511238024 -1.0964145472305376
P 8.318768890963348 4.681890464223673 10.777688024160497 -1.218505180616411 0.5921577110542898 0.5741530469467531
P 4.970451456008579 7.427828167536537 3.6320024758999025 0.03578358535751256 0.003969526170709292 1.0719384164660444
P 1.339049812672736 6.849187491861677 5.803152235571902 -0.30867533269007486 0.48572098215558923 1.578984642461971
P 5.163410779780671 5.9508431444227545 12.712419187109306 -0.21250399027312433 0.3636198072467544 0.4400931570141453
P 5.36133432837114 0.9736714758493362 9.716653784968234 -0.6773381016773754 1.3078368744037088 0.5048443332486016
P 8.825575430069405 1.5393937768056267 9.575397384729959 2.796312257830513 -0.05402941894157792 -0.8236768089773362
P 2.6078601154869703 6.438675524041362 2.305168642847152 0.6449064635112313 -0.11212503753272947 -0.1692595777621924
Ni 5.135799058945754 5.930378768307224 5.687221924550446 -0.24224008388497636 -0.5914763687165491 1.5366563140074052
Ni 7.670752461564731 6.804917616999508 11.95249982831531 -0.22584647301830135 -0.8765096365076517 0.16130484169148993
Ni 0.6156179808850994 4.183455715346695 3.4849674522019174 2.9440535019049556 -1.717297908354294 -0.09693187473205887
Ni 3.8287746660382322 9.027893693938859 10.122752053858253 0.03160682827200363 0.5774121773139991 0.6226592220772567
Ni 6.468138150879306 8.228748416436586 0.00032746798515112204 0.8615740982437421 0.8120986172214336 -0.16858286341014192
Ni 1.8278788339852805 3.9011972957977408 9.931650280367148 1.386730146466502 1.4343084104660975 -0.33218370022466015
Ni 3.6920828847581943 5.464073849277683 7.9323756521363356 1.8156024950641636 0.008890874731726624 0.2891164367215408
Ni 7.969422247673868 3.453648224265551 3.248396037085656 -1.0267245389335673 -1.6584031909006147 -0.17381377279177807
Ni 2.2001482362353384 4.322055353583701 0.3879090833843626 -1.8626909639115339 1.7580334384004432 1.8423319406392076
Ni 1.4602509344812773 8.593908441269885 1.9995945027554378 -0.6316133459467509 0.00474651354604989 -0.03243909436531187
Ni 4.375133642655152 1.2761000249184682 13.11740596321494 0.7539081249236307 1.5023696249103933 0.31033472267036877
Ni 0.1546607564304608 7.966698093710437 12.979247694870965 0.3163606171494745 -0.05549726173635603 -0.4066325633628546
Ni 6.187996408451763 7.695507142877024 10.032841684509107 -2.1200846156084974 0.28445785490360687 2.428255754968644
Ni 4.098133694519929 7.857428196752184 7.13965634060355 0.450937555927817 -0.2878321706924785 -0.4230302879945876
Ni 7.207143221021651 2.5500643890642114 10.681775973448712 -2.040005036547087 -0.5083256069289825 -0.1130300658455021
Ni 1.5793543628197204 1.5205335192260534 9.803202149669827 -0.17713049586983687 -1.3098179093894795 -0.9418693928603843
Ni 1.6537323086644793 2.4434901705924204 12.55853486201755 0.9511716440979167 0.0445693019699426 -0.13433988306687183
Ni 9.682516433994437 2.1245078775782575 4.927565489327135 -0.8648476267886913 -0.17823658444982207 -0.6056326056122732
Ni 7.487446324485354 1.0645936738134694 3.517058365564162 1.7664897966979127 -0.04031541178959508 1.4941703769290526
Ni 7.286380981602566 9.761868096483232 9.51413239602973 1.0531361961578767 -1.7425453700671731 -0.05975012347543904
Ni 3.3167571146467254 2.508850882063453 8.063142635841553 -0.18228092972252477 0.3268504609372048 0.4903181146079685
Ni 6.319828374995645 0.15512205915736935 11.83367925638143 -0.17280898567634753 -0.14670791771392153 -0.28064645157731666
Ni 4.618437609709607 4.1425079794643205 0.3750096923171054 1.047222658886919 -0.5561329562202487 -1.9456218963788106
Ni 0.8315010128003351 6.297304272712642 10.153995347189365 -1.0033928061861623 0.6424060656868807 -0.5375017142723065
P 4.119053678266974 4.3623671371470865 9.89272430334962 -0.0775321300492084 0.1059029678824176 0.08665131874165723
P 2.9381756483350587 2.4419999539643413 0.5495093135523302 0.3390233488543129 -2.285136068826613 0.4662204502288165
P 3.387233920146641 1.452657473956034 4.458133013743759 -0.40905891341616 -0.8225023290532608 -1.5984622915706086
P 8.709253106648333 5.35031431878388 4.254139442645924 -2.053121519324387 1.8880415268611805 1.8106798609515655
P 1.9077905141878109 7.980594126471632 11.122271669335516 -0.03864445184507539 -0.10452048571259417 0.16376821563031793
P 8.254651608653322 7.244920687134737 9.872302640449542 2.190223795627744 0.45861975506342306 1.0404812263980274
P 1.8818208791914781 4.565985781131489 7.610436655430157 0.3193595518767984 -0.8787446964857577 2.7554656561277966
P 8.358387771253804 2.789135001875844 7.116442182595316 1.4363287833302358 -0.02296740742945077 0.25131762070621233
Ni 6.538586480902251 2.363682900472112 13.034622056568736 0.36432608928515964 -1.1997204438097402 0.5961184954742508
Ni 8.799947500796709 7.341272209374419 1.1333031013761345 -0.2853639116576441 1.4333061944538286 0.6949892391002354
Ni 4.487640252162289 7.053223776174967 0.7751584848855947 -1.711137802290169 -0.6508192294512404 0.9540777620011182
Ni 1.8401422727335486 1.681723702525658 2.754929309757319 0.4981049576422389 0.015066921635451471 -0.11003935864829437
Ni 0.9501317482210816 0.9154685501059111 0.35607539849741093 -0.4519598265447442 -0.22928815170999867 0.2587367959884189
Ni 8.528016187562086 5.751903970487034 7.6950819090876115 -0.8701315008954498 -0.5030623016475143 -0.5265359592894221
Ni 9.036417353378445 7.735410777937179 6.760453159711379 2.4296048127973706 1.0600763749211355 -1.129205111397997
Ni 5.499839048351579 2.254868611145374 3.3538938825279936 -1.2664140884825479 -0.39872359292842297 0.6385748648662486
Ni 7.091542276350477 2.441544346332827 5.5058302887059964 -1.0668643443772465 0.606328089017401 -0.26108575583656973
Ni 0.7216824883191336 4.188600284852547 6.098987762539991 -4.078591338369775 1.488694955636778 -1.6409256029411416
Ni 0.6568172501473731 4.9802090527835166 11.989703038976172 -1.0032897049493947 -0.3118899829726306 1.760388311785865
Ni 4.721974443971301 1.6722603523460733 6.092333043572181 0.31434950025671665 -1.4040964056590914 0.17519265541717569
Ni 0.517500979073298 8.828660273407785 8.8507363615198 -1.0227907510967997 0.03685573537576878 0.6720765961681199
Ni 8.0451385409362 1.7457840338817427 1.3163197377729856 -0.4999633510072164 -0.270873688461269 0.2636545450050104
Ni 6.170502973766735 4.731086596601593 4.043949607759489 0.34257687053352615 -0.060897092595688665 0.7560148868539883
Ni 3.2442490584563073 8.896374957641644 3.4680046105710893 0.7583975281535519 -0.07163710472101212 0.17226725424026462
Ni -0.12934890495212756 3.0981224024736544 -0.005701739671892145 1.3451813764904381 0.1003838378364013 0.32527000382396243
Ni 7.244616948713728 7.6347689505007335 8.165195897753128 0.3682364800831594 1.4367303896440287 -3.476018345519433
Ni 3.163036998138829 6.5443575109014365 4.695203698889555 0.10851572291491633 0.8383886612662141 -0.41774564255688057
Ni 8.343352719413822 8.346162299808162 4.125219568213472 0.4429169996161856 -0.031692446007274444 -1.16204195542236
Ni 8.722247415972156 5.226578879525039 2.005776528805552 -0.8091868428912773 -0.3625062624676015 -0.03710821770620706
Ni 6.15991009633402 9.313531203421547 2.287108546170426 -0.8626953563323788 0.08880487474955029 -0.764044184916368
Ni 4.089249345705394 6.733681465447068 10.300364044726262 -0.6173249543485368 -2.243286736890995 1.1860195492838799
Ni 7.593612394453914 4.29957871042898 13.527894201471113 -2.3150251430765616 0.3539444889405195 -1.15306829116884
P 5.050638399155149 3.6786994105824524 6.0843731985765945 0.74869212794033 1.606017478210047 -0.01980597898233363
P 5.960980414223956 6.033725766055787 7.819973452711421 -0.18033229063658618 -0.4254466107455641 -0.44952087808594837
P 6.886613760425471 7.3481822584523915 2.3749069843109876 0.7650862530276372 0.4412588951874723 0.5608311330268664
P 7.813718339603751 0.5820292574342508 13.443874459124427 0.4681189528031099 -1.0616290641202362 -0.4511442726219843
P 0.19926094682547796 0.32747273106395036 3.4155613246360614 -0.025745227284904044 0.7070777948336533 -0.2622018717188839
P 6.08299783303896 9.105888025358766 5.550925003217721 0.942926373369989 0.18465997147766264 -0.6032779893371675
P -0.3180634842906081 5.5361452814879 13.88756415434466 1.8415834925089574 1.4037907014932145 -1.1700051761334946
P 2.946300651097069 -0.14183635078589032 8.233183946565894 -1.7122680592398705 1.2511929006574192 -1.089927139733981
