# total energy = -340872.6201019274 ev
CRYSTAL
PRIMVEC
9.15251692814156 0.00000000000000 0.00000000000000

0.00000000000000 9.15251692814156 0.00000000000000

0.00000000000000 0.00000000000000 13.39563367492087

PRIMCOORD
 96 1
Ni 7.042660246345067 5.628550653398232 12.457591159933072 -0.21756392129453497 -0.33844819307713325 0.6071994358787608
Ni 2.4061691832428984 5.959404979636445 11.874759811640816 1.233346873614934 0.17334866022990147 0.5866108130941317
Ni 8.559836329866151 2.7922681002906464 7.4937447777276285 -0.271501551853255 0.9058060714789239 0.8802073970742131
Ni 6.374828560195417 1.8244077641530332 11.598582620176652 -0.5559843464575264 -1.8856020641817526 0.38770538744104843
Ni 6.62342006632162 7.066795432886608 1.315218480491756 0.0767739117269452 0.424904622199165 1.5516507305337084
Ni 8.836196571664344 5.446497943691067 8.546065453237253 -0.3879401291596738 0.5392996867129938 -0.2773706090395224
Ni 2.719597117681683 1.916134286534271 2.281289499614249 -2.1481106685077775 -0.0682447912100115 1.2070012937418697
Ni 1.2700489800671015 2.6358241323139446 6.082836735122937 0.14508040941282757 0.3126309749037132 -1.3620701818259766
Ni 7.796196098886448 5.108422281775464 1.5073435348287902 0.39006977390816694 -0.3065444023900011 -0.5531610180761183
Ni 5.374540857384812 3.95322823379399 10.673091114353069 -0.03597873208745417 0.30893809943315825 -0.07558374807358596
Ni 5.301128520923037 1.460860648257488 9.412817022123043 1.5518566758969272 0.8942289081642858 -0.4077288817508269
Ni 0.8741458871288351 5.4692053376271925 0.26919199071767075 -0.7332146011300211 1.9641852612032944 -0.9013223246759574
Ni 7.666569004844791 5.459695872774459 6.229827068598781 0.3615631818280418 1.0728323890352232 1.1111811640167508
Ni 3.312149353962476 0.6553897549457931 10.285676065403663 0.13270568989755854 0.5266861117140413 -1.1703751578784038
Ni 7.693385878779837 6.144423104754857 3.819778133526168 2.2910809735561384 1.1594482265532549 -1.1696485641250243
Ni 8.427884496582344 7.782128680716425 7.5550565718585085 0.3608944378957914 0.06804733048722475 -0.38485146293202105
Ni 2.4936855479415017 1.6333489780117096 7.788449408750398 1.0007039465000895 0.4161315039922252 -0.2988912567201175
Ni 5.982569999407641 7.9317906338174025 12.716916737646654 -0.8377775100447765 0.8583882443165926 -1.4343929997601037
Ni 7.2406017250458286 0.86105321198751 2.6055714036092006 0.8300271766753963 -1.58939221094854 -1.0535038639099406
Ni 9.018688602173174 7.15722229789625 1.9285963532748713 -0.16683682725331267 0.3521544869196322 -0.9696424492085944
Ni 6.966190969305031 3.0965526705447513 1.9596874525094616 -0.3247467843306407 -0.5957256309112062 1.2937629128091461
Ni 5.554351200500139 6.745532944151441 5.488151047199051 -0.8529858423540988 0.4396964357963589 1.2372868320992885
Ni 7.620916251538304 3.6103932631936697 11.019355532961399 1.346832796050932 2.606542733040427 2.049979117040663
Ni 2.5628877267206414 4.546622501611311 1.5299017427426835 2.94536682139974 -0.1387254137290772 0.1688677416404124
P 8.673894992998758 8.26140937030093 9.675250794508413 -0.2844336865338908 0.7595840922624854 0.8565727883744086
P 2.3681496288653627 3.174989738675584 4.166564245586475 -1.3488156308089156 0.20647475335990892 -0.4427115684735988
P 0.4729846733456252 4.832144412627586 6.372316194360888 1.5803835796920267 -2.068746370345837 1.087295872758721
P 9.067398296057922 3.94832248484205 12.6521224109109 -0.8930893952432039 -1.4389672493943477 -0.12367520426417408
P 5.3285677659937765 -0.15407529665438405 10.897682891184912 -0.5615366437343232 0.43170981804645653 0.9270719228362355
P 2.79315589441068 7.367684419444501 4.972860695904634 0.7217806482614666 0.65516927888982 -0.3372803980212772
P 4.78398386974492 1.710998929706224 7.336225389038514 -0.591996245775761 -1.5881454830256327 -0.803647658240603
P 7.547448999976321 7.835863106270231 5.498585831490296 -0.43503245466178625 -0.7304226402071807 1.4213695909172424
Ni 6.719558101752924 3.919537819816208 8.669760801204744 1.179884640030736 0.1032534460747125 1.0578186892352104
Ni 3.4411906869352435 5.080351513052331 9.883458651193113 -1.0051542689619593 -0.08126434339813102 0.6770421677035113
Ni 8.148119518571239 7.547476457526424 11.914986953046725 0.683395620725365 1.2756554045751578 -0.5956528686917419
Ni 4.118962006222593 2.6601332166728118 12.04189758013141 0.20053267684386109 -0.7854018246565377 -0.4099402875798488
Ni 6.094139177997471 3.625613898468066 13.267129431666861 0.0869595940106954 0.43600098922264263 -0.7322062144701648
Ni 6.374288561710035 7.983008117278329 3.6983471181905987 -0.018774709504341857 1.6227543313487534 -0.721937485554305
Ni 1.918605466043644 4.446082105646643 8.132716748214484 -0.011710603568708863 -1.7354532391070823 -1.5664464007856442
Ni 6.338300866040207 2.9557320485773064 6.616184086617508 0.25383575914237577 -0.46626750141666795 -2.2844117890660782
Ni 0.8671094322888135 1.0880603379768465 9.507684688236195 -0.04578774775807598 -0.1460564001728517 -1.1379013536204146
Ni 4.26497210515972 4.079844149840892 3.3344009525668734 -0.23515875155816274 0.19408152190187866 1.655891737332671
Ni 8.180565190277633 1.8624547760806731 0.05719499211859853 -1.8974934163026995 1.8387642778926072 -0.13867167767300634
Ni 3.498595271686304 0.3492234272578844 3.808003420789842 0.2721787804259377 -2.5842857214144397 -0.12976409077073134
Ni 4.584037989886555 6.739657028429156 3.163150958322348 -1.4217058912107388 -0.6728389282554412 -0.1945638608549359
Ni 2.357303896574227 5.5530057805450355 3.9149405106771042 -0.5538228200298333 -0.47589576853505133 -0.11186587033407185
Ni 8.209633583321219 0.8121504000003623 5.179569370353648 0.22779176967013026 1.6955327487630605 2.5461027825868148
Ni 4.316930942473459 6.898361668031098 0.6640178324401848 -0.15878644614501042 -1.3484428208505292 0.10714532492995095
Ni 0.779091509674975 3.121648871339937 1.2121757864609308 -1.1248838583148242 -0.6407042525044255 -0.9572649014798482
Ni 5.744897445706185 1.047304181105598 0.6399457982638833 0.6499725651802291 -0.05617706141220002 -0.622282041243496
Ni 0.2881587510779421 5.587025685124067 11.212278686754793 -1.031726620133849 -0.6696463894600726 -1.43931177721796
Ni 0.7216988231956267 6.7189997982341385 5.534968915881625 -0.8337305936689124 0.796339554614964 -0.5411912473087518
Ni 0.5727013428071687 0.4846468101265246 0.8688310206803432 1.2710461879379207 -1.495705068406024 0.4772790220358232
Ni 6.356541831826059 6.192245004519572 8.03152652356402 -0.6865490787526821 0.02142551686362762 0.16088086678019387
Ni 6.4308053523410615 4.6379554657743896 4.549479002073812 -3.0537195363742313 -3.3275497363606625 -0.6822100850576961
Ni 3.5110243893667787 7.470531249617917 9.639256692076893 0.3925231205446659 -0.3263241561200896 -0.6307767089780685
P 4.460314269117291 5.247558840669855 12.316681758553624 0.4048795852274898 -0.39999603188294336 -0.04538999809902505
P 4.81659428675194 7.850873233660495 7.872386224167091 -0.053668436057733374 -0.3448638667954899 -0.5179201925959531
P 7.360307490983188 5.741986945395146 10.29075296641792 0.15598831457458295 -0.062103197088647887 -1.2891475255243219
P 7.680682185598321 2.102772407108828 9.69372331896681 0.024993693830860184 -1.82944377182263 -1.9740811801607678
P 2.714334420578389 2.451245327997199 0.12916031568988534 -1.5960099733753736 -0.6637256531002633 0.49840166294705135
P 5.427149523384349 4.860279248967629 6.584489836532296 -1.447307908049559 0.10648352297623596 -0.33309361363343926
P 0.7106233627352858 5.026845900416058 2.38569500338191 -1.2485284664513787 1.1297136756032995 1.9461206903921
P 7.680828625865542 8.868569023237127 0.28128429578353503 0.34444014899451003 0.2887104595323738 0.23666618934162467
Ni 6.440461257461019 7.96219529429939 9.411424009081092 1.280212427818221 2.236932255427876 -0.639219440428783
Ni 0.4463252226978433 3.49930001547231 9.637542425698726 0.06357206832469052 -1.0389339365155654 0.9168438173503242
Ni 3.6060000551770073 7.956767851895472 11.910673371925364 0.5799102611455045 0.7708439814470209 0.5569222848907635
Ni 3.9081795465897944 2.192201647798019 5.21564309968047 -0.2519082031023597 -0.3607689680615206 1.574087719380986
Ni 3.497341376898215 8.951902687803198 6.438316822797885 1.6653392558988158 -0.5005346501296541 0.08898279508831126
Ni 7.046623286076765 0.6674015178646853 7.454562853729017 0.3216794582592266 0.260838415712454 1.520206395981498
Ni 5.2884431327749235 1.7906898926251462 3.4222623671451182 -0.2665526924884119 0.38562742186609716 -0.8915012248204774
Ni 4.437698400348178 2.9116169180766516 1.3421085745604127 1.397277325854729 0.3553102589397945 -1.0919158880292357
Ni 5.350167705409035 6.397700699432168 10.655100927524837 -0.20003131172741034 -0.11755803562284269 0.9886575568585166
Ni 5.771750929708036 0.6492301112057639 5.537848297635878 -0.418908295406414 -0.5586073859026701 -0.6688120664842352
Ni 8.794177367488304 0.9874375693618664 11.377996899905003 -2.2488272070932496 -0.2522025944143269 0.05202370136545879
Ni -0.41103128779397885 3.957447543993327 4.4829823072316 1.113339090900018 0.430653094647168 -0.41488246207647256
Ni 0.10162039293543061 1.993967288562813 3.2056689746586127 1.159276733972397 -0.6965858941633939 0.44007824461580985
Ni 3.1522091246058475 4.262336180349723 6.06861006316231 0.6990032453556349 0.9466943250528536 -0.1835284289763807
Ni 2.0050235287380813 8.472777591002616 8.2736792341908 -2.02788717023763 0.4926534476093645 -0.17645043908367677
Ni 8.756478151195317 8.346738283507904 3.860915950343864 1.5451967473782484 -0.6810237780590788 -1.6344973308172948
Ni 1.808683740460061 0.7854735595708477 11.826375032098968 1.289989818919959 2.837625514757003 3.669566877735977
Ni 1.9643680495505478 3.6183468002071697 11.591723724160637 -0.42030517575394066 -0.7019211903333783 0.17814942405265446
Ni 2.2264229077444817 6.980990588811164 1.7771450831587732 -0.03443375619783747 0.8749091247897512 0.450783803958772
Ni 1.559515625781671 0.10709085216784589 5.162060605903907 -1.2018061226941754 0.3097315418687311 0.568986415144149
Ni 3.307097164743314 0.08544240441406999 0.7141681324537305 -0.19247175421259755 0.03758310046009656 0.07476176639292285
Ni 2.599836436644116 6.532297610042673 7.085874769202307 1.6329045324088782 -0.03437127839101822 -1.330910725504037
Ni 4.4031476498004665 3.724461078842978 8.28647170678432 -0.34215649516665586 -0.8507325275435478 -1.108326468176775
Ni 1.1696916344364616 8.069243129638739 11.090137436123197 0.22802111207211698 -2.1915527988518124 -1.8236215087138978
P 1.7253592284106907 7.713008874587597 13.131069948887475 0.163394377230667 0.1869719074402909 1.0393172879969133
P 1.3805290091694689 9.190774221192536 2.886786140265805 0.5375796186980935 0.21943157063089305 -0.01748967214433117
P 0.2127374372002139 0.8790754326241988 7.263259695391767 1.304832026139114 -1.3570902121128823 -0.5321407070707094
P 5.066000366864565 8.895019796504117 2.217901914695496 -0.8236256440244266 -0.19605047270279138 -0.115287237310795
P 5.349307368839105 4.9845887308057835 1.7670178234286953 0.9174773371692649 0.5734156545600964 -0.7963670654187898
P 7.183389343145499 2.398581746897454 4.2441922312409055 -0.35861206961951786 1.1879085387764767 -0.1457560953236135
P 2.816522269549305 2.769240368269972 9.599190634964929 -0.6129437945617056 0.5101822005217472 1.384316909039319
P 1.703182680443245 6.3097541664486005 8.988737906519576 -0.5433615154871932 1.196808412369268 2.151797887551378
