# total energy = -340868.5510704986 ev
CRYSTAL
PRIMVEC
9.30213445070474 0.00000000000000 0.00000000000000
0.00000000000000 9.30213445070474 0.00000000000000
0.00000000000000 0.00000000000000 13.61461404276427
PRIMCOORD
 96 1
Ni 5.733863395575946 1.2340769289531013 6.480256407308982 -0.9846306950873107 -0.39729765911517384 0.8111619643397773
Ni 0.33052715142035766 0.5125001507015982 4.661358025289459 0.43159874638988893 1.125737721674687 -0.21787913854210864
Ni 4.234219838815553 0.06164245236227455 10.895815770070259 0.5054711681993229 -0.6076797179492889 -0.17486406843316335
Ni 4.1198128909223914 8.689756053293689 7.228652168524203 0.8476716292300369 2.0469449582000294 0.595791194041819
Ni 3.4403105956382483 6.846789329378177 4.405593986447923 -0.42824294254377865 1.3156818243694244 -1.028111906199397
Ni 3.0480023900568027 7.092272649558724 8.645878816728338 -1.108280445430188 -0.7846932286252872 2.3860004458438584
Ni 2.7824636686519577 9.046678940574006 12.730344528099609 0.6091629873630348 -1.4695173542670628 -0.8055441039323674
Ni 2.7195161268686396 4.772552946261122 2.097508462329927 0.5078936615978866 0.13732082007206672 -0.28969827736693976
Ni 1.9250859641790152 3.34489860567645 12.252566453534348 0.06715541480057467 0.38305143360880484 -0.04117853112083876
Ni 2.8120351531102354 1.0805917155018314 4.204165573594965 1.1625651749156818 1.4591059291257515 1.6206725091190604
Ni 6.481243363742145 0.013784832594753747 11.894175689485389 -0.3406778537386004 0.5780948052033205 0.2724844845918146
Ni 6.99748390258488 4.335371245547014 9.881309206200054 0.1516143538766034 0.34657159351521605 0.7043310853264515
Ni 4.080185799449518 6.844007991267758 11.849274287950282 -0.478542205018963 -1.1651856432576642 -1.9704962910229868
Ni 8.819120832897738 8.31390332302105 3.059095185028963 -1.565604364500323 0.10799507452475596 -0.893211779753681
Ni 0.5351024762557736 7.9436504775058445 12.346848234197097 0.06583952420262855 -0.5728379276797554 -0.24361716673816108
Ni 7.00821856539232 4.645616023669849 12.41933232390952 1.4991236071692697 -0.8362214784115662 0.20234993255825795
Ni 7.623396603039158 2.1448860919753825 10.873869244973557 0.6490965903331788 0.10035966946668523 0.5080021621512928
Ni 7.521696370392931 8.48155568678058 9.86653741717214 0.7824733381558331 0.19249180881725558 0.7513730172066028
Ni 0.4790980474009423 7.181508022445878 9.222199049396389 1.0703687579860792 -0.24392492778656702 0.6494632296439782
Ni 2.9898454473599942 2.824844191832805 8.041716366340227 0.7784184513601691 -1.1008967513716073 -2.230819714772235
Ni 6.420686470435007 8.576279318815384 1.434681172720496 0.35603196759716754 -0.5951191076754588 0.7418067136744063
Ni 1.0178116121331877 1.3103451268371593 13.081220097969945 0.03146438915686839 0.22321006383671882 1.4639766269544916
Ni 5.080397773773627 0.737773654230979 0.47665809761377453 -0.8338771465491058 0.3425961538072358 -0.4137501482442423
Ni 1.6981976101614442 8.689542104208272 7.1540164951832175 -2.2999793044870325 -0.35063265095846713 0.4046132189399806
P 8.573023571863388 0.46296070508001735 12.029845455615332 -0.8703832118949397 -0.6604847775654625 1.6751156185592893
P 2.6844005704578184 1.8274321598874133 1.0240040428358852 -1.3098963280358988 -1.3436484847856793 -1.3766655631416485
P 8.310154562959179 1.3524372838594017 3.04349271542158 1.7519813186690922 -0.692199335059924 0.2913684659805111
P 4.328227206520919 3.486086397783321 6.211681469318046 1.0265126800330773 -2.01996148763265 -0.5935741317858423
P 5.909710939520358 2.587993252142124 12.040968947630184 -0.6656390680728923 -0.07369758679446663 1.0794236690994958
P 9.144509485414432 7.09269124559541 1.040013945918975 0.00465369672192747 1.2835301793375444 -0.39014459301016036
P 9.288469313497572 4.2094296513096365 12.141593853568837 -1.1555506912710616 0.999783234458033 0.5244729061128064
P 1.9749454032153066 8.659914806945103 3.5370220937406014 -0.7189046122652522 0.34667495186229974 -0.2684673930126215
Ni 2.6298063451399094 0.29242560994784855 9.176971142952667 -0.6256563570323677 0.419374179299239 0.09266050105021462
Ni 9.114612426260953 3.047109385178541 1.2007083133353802 -0.13498908661509654 -0.6332346836002578 -0.061948673788654596
Ni 0.7148987761462505 7.529640392955803 5.2409860968607385 0.20610374317373537 1.0847293975831254 1.5544380634708583
Ni 3.7155328386917468 1.8990399885630422 12.675395891470641 0.09491947228772041 1.1283476484937083 -1.2103223876953026
Ni 3.245207634006313 6.8950208949384715 0.5206264950937817 -0.477130669383417 0.4322422935111589 0.9424376066590285
Ni 6.535586431438043 5.929450068183606 8.010879791637745 0.5361781103648766 -0.041920551493185874 -0.27663064554970423
Ni 0.15567214518959674 3.7604528444951515 5.951818910170652 -0.01497230503911615 3.0746467734452017 -0.31168738004352126
Ni 1.731759710169455 8.790535374659209 1.0798652188248286 -0.7497884463283022 -0.2440223725963797 1.776659538142063
Ni 4.845825856949344 5.088062732312042 4.841560828442228 0.5074457754271905 -0.6470769887999888 -1.0472699671850867
Ni 3.1215264583670352 3.7218117792420258 4.276268275807298 0.12119820347859128 -0.8634471468967388 0.5701277278374439
Ni 5.336820403712882 4.220703837897693 2.673311496339318 1.1926339692766041 1.4602474989293623 0.13041303720863995
Ni 8.320842715095877 6.044201195040265 4.539955872516579 -0.43544177428506303 -0.058240114588815825 -0.0639685324321608
Ni 3.833288554878391 5.1738749198325245 7.255922304994128 1.0799949682219336 -0.5344385019659504 1.5234071623069827
Ni 1.8461480537943198 5.309072137547722 5.458575107369993 0.5235233977153435 1.499408228289224 0.8526973645794024
Ni 7.815262421987393 1.895923773623274 5.696694858158537 0.3235931303421717 0.8818212785285522 -0.8060048456188699
Ni 7.943334204944792 1.5559493747616369 8.601073227174961 -0.5510159467086574 -0.11606653867898074 -0.8042169004805116
Ni 4.124817439094318 2.3447238398889354 2.399071558651908 -0.7704775992465376 -1.1132557871575923 0.8359975353262183
Ni 8.787140095694982 5.346941125666517 2.196146432414447 0.24658704799976244 -0.6851028332244589 1.8323426906369797
Ni 6.009904226434518 7.669935180184413 3.839906093111678 -0.6911148437464936 1.0873143847014823 1.1870788437863298
Ni 7.438758542324354 7.171638458114253 12.998143668102555 -0.25361541560145356 0.2937714189950489 0.9259594064983472
Ni 1.2453046048704153 6.826882762300256 3.224103882263471 0.5341482244190414 -3.712731843159225 -2.5516067431241796
Ni 7.7862676698463265 3.586288986831629 3.602630976103822 0.19229254832225592 -0.5430275291865422 -0.4132171585589077
Ni 1.633454756487454 2.7456458216919497 2.816673197196708 -1.0821014730419751 -0.4063677397372421 -0.5670871412389072
Ni 0.9255921146111755 1.9344625154007655 6.56014685623049 0.16111817960198058 -2.78698018179631 1.0865571948204837
P 4.26599592906704 6.266224532898138 2.4339657242699935 1.3959866320677636 0.3576777307307066 0.14689946489943734
P 2.594393120436335 2.2608744026737995 10.324519620055847 -0.35944819236756803 -0.7822005441104206 0.7758044107760897
P 5.052240213705931 0.5017050240221921 4.1112316721703435 0.8579722398250966 0.25845191775814846 0.613764233580472
P 2.8349742159205884 1.124265235329329 6.851091566421887 1.188130939199928 -0.5159934078868854 -1.1963181029964107
P 3.3110295352415364 4.827965759384105 13.313254392598504 -0.40186085300582397 -0.05929529532620756 0.20896872342635625
P 2.942795252836569 7.006674411123659 6.583360331998226 -1.8455165090147767 -0.42295649733385865 -1.9217216927224454
P 2.3746767118473047 7.505287405754868 10.840390864172882 -1.1567585955362338 2.4503302182701803 -0.456026283304634
P 5.416344348548937 0.5641939705919858 8.988258747480794 0.14259929486218667 0.3772158007636342 0.07708835764357047
Ni 0.7611164296633799 1.0903961648944154 10.710003780025907 0.4763053452686442 0.07953167697774044 -1.2965209351702576
Ni 5.782541463575369 3.311410922741628 8.237740239252869 -0.278203646463779 -0.3151907652110894 -1.9339568013360564
Ni 3.910942770750585 8.962336490248996 2.5121008604776676 0.164236156405672 -0.8384537101761947 -0.7963835204790221
Ni 1.6508404452111158 5.103550785669397 7.877918806971861 -1.7965393077851253 -0.1838953253974962 0.4022809712623781
Ni 8.383660027001115 9.186657455241564 6.626899901093984 1.0907162112941795 -1.2880440080474977 0.4032052828488604
Ni 5.069198004258759 6.822771219006591 6.155425882841203 1.6616070425498934 1.47135980679244 0.4420891043982515
Ni 2.9125912232561886 4.231680356192996 9.628431619584816 1.7692030818640176 2.603714776673329 2.0298491790600073
Ni 0.9796728621240841 5.286607483578945 0.5467831661061227 1.4190203739587754 -0.11330954475913389 -2.7282165906038562
Ni 5.584340891271963 2.5832770701288035 4.533312288307677 -0.4490028007989493 0.31065971010995524 -0.061267845671546105
Ni 6.51127995490785 8.467183889521051 7.752787428618823 0.03612579918827972 0.12804068032172142 -1.1288747246417719
Ni 5.209278842401951 7.5333426423469305 9.360060398331736 0.22910431783396673 0.8909445809860591 1.3047255824682369
Ni 5.190823408251204 3.3974091529450816 0.4862244123721556 0.1557761985637769 -0.5271476247314922 -1.298457747181654
Ni 0.8243439656845694 3.0623276766455882 9.075065333141756 -1.2243138168783883 0.1742367192618096 -0.0852356693410532
Ni 8.55618670905449 -0.10304811188435288 0.7649665829874697 0.3884749186172213 0.4917065103150629 -0.6001906086610953
Ni 4.749334819426313 2.4135875389907384 10.253478291349865 0.4172334788071524 -1.0218798092467563 -1.0137844338331312
Ni 6.860156496149661 4.351305801343501 5.682426314588058 0.5145237653198945 -0.028467511312073552 1.4565525665762786
Ni 5.302895520473077 5.768569658084229 13.626594920965976 0.9102607648161678 0.6353738414304477 0.8825751259754414
Ni 4.712023959356431 4.416523063859068 11.526649299489128 -0.5073861258338488 0.636624168897781 -0.22981548496837842
Ni 6.718271043981648 6.372194445118554 2.1835932023809628 -0.5185040901238812 -1.1649886967555099 -0.9404360028479675
Ni 7.297626563022374 1.8713010245320307 13.611400815047716 -0.09164722929435183 0.29601882026832893 -0.44212612828377407
Ni 9.069990088750302 6.309935261262231 7.146228748474042 -1.2623039229689164 -0.040265275277950006 -0.7352146622791854
Ni 6.398249722868677 1.7372665735854038 2.392292163284436 -0.4031029529430413 -0.1592001366436613 -0.6665564376808392
Ni 1.8190416348854106 5.51541207723112 11.245820660184291 -1.166195058358785 0.4079664516829296 0.8693439719971479
Ni 8.26357877727733 6.301600549065119 10.90757924891453 0.31415126820298156 -0.6084299658517521 0.47068799908186676
P 8.972615348483156 5.081560540542197 9.215664300157025 0.541193561301597 0.4034590507308794 -0.6262729075704441
P 5.162619337512765 8.036243920820628 13.055202958969835 1.343105724908332 0.9676968954464495 1.9317921895845698
P 0.6664625636346891 4.345724520854364 4.053479372308997 -0.2525458366863586 0.2705967806507985 -3.347950925724834
P 8.07375012570763 3.3819210995877262 7.347221821448846 -2.45220969468108 -0.9471897766320334 1.765343341798295
P 7.176438359334911 7.114458239503044 6.106589678561254 1.1004568356207112 0.04826114899923301 -0.5255730811555207
P 0.09410317968709585 -0.06692606455865766 8.91098219825503 0.19436022948456202 0.6634793414174123 -1.124405890237141
P 7.236827814227374 4.230861768387922 1.1094934463014128 -1.165526828647167 -0.056730619922824875 -0.020206299744545846
P 4.936112370995285 5.495775272043506 9.467329818692706 -0.4518011894796929 -1.9008505057003906 0.4533420516042515
