# total energy = -340878.7599920506 ev
CRYSTAL
PRIMVEC
9.18848144909393 0.00000000000000 0.00000000000000
0.00000000000000 9.18848144909393 0.00000000000000
0.00000000000000 0.00000000000000 13.44827138668591
PRIMCOORD
 96 1
Ni 7.533681655322178 4.397983816643468 0.9372746973415224 -0.027887213328571327 -2.3986824121869015 -0.6677918527498371
Ni 0.24980723762294907 8.77052472892169 0.4581836136413858 0.9437892355909165 -1.4427971646633992 0.027967688857519577
Ni 6.490614461158807 8.965072440776279 3.4026278109656665 -0.669681356463066 0.6582435469397695 1.3006640108043537
Ni 8.534279689508601 7.37631053828947 3.617302890827504 -0.7102862744686219 0.6885635380795497 0.24842075877439151
Ni 1.4193079327129308 1.98746847750189 4.0057964690199155 -0.2018871339892265 -0.6844716273983631 -2.287627210679583
Ni 5.418695436115382 4.005020042360882 10.927016236430493 -0.161972814292792 -0.076571565908152 0.8291686853298429
Ni 6.001879147620548 6.487931424656586 4.025537920817941 -1.2026067642185998 0.1795319062224779 -0.616175671235442
Ni 1.1584377637589032 3.867036620601077 6.8481823682706455 -1.0747098085635942 -1.7077313477117813 1.5466080259034785
Ni 8.341624804775442 6.497698780142414 1.032617134526464 1.8871352129968273 1.0144945725262786 -0.17934318725043952
Ni 6.930485431824414 7.035877310867162 6.090358708218129 -0.03460833410248878 -0.19666985145434515 0.8002753993342604
Ni 1.590893630118711 5.006959594798416 9.077771000046997 0.8888912980014562 -1.1592114279521002 0.6104518813777875
Ni 3.6886330701656784 5.539376947828326 2.0169717716970395 -0.6988978301260221 -0.7840147145010239 0.5407009379358946
Ni 1.384060918937169 1.2941700076315705 12.613187065517822 0.1752124529115176 1.2125687605273183 -0.11616166949594832
Ni 4.728631311617604 0.6986084931396137 9.431447585382495 -0.424388858905011 0.1975522540592985 0.9864471794707592
Ni 3.6662774954742217 0.22766391684656534 0.5403249599265263 1.5839599841893754 1.8124950597834335 -1.0626670184664473
Ni 6.084520347281445 1.8263300831886646 6.121303675109164 -0.012256448769849859 -0.06348439370689066 -1.401987843956521
Ni 8.201224812467403 5.271385705966004 12.021934029847415 -0.050788029186144786 0.5133485140648708 -0.2510252862767742
Ni 7.554254664666269 7.630868220678339 8.486410459146875 -0.1346090775678585 0.06328641876347164 0.39845696953059767
Ni 4.670459037317722 5.583647050114984 8.614894829071075 -0.9165108594909377 0.8991772533084965 0.026309070208174048
Ni 0.9467719114808935 1.4100826976162508 6.1552330606848615 0.7332662803035629 -1.406778837587261 3.0466333189514114
Ni 8.69104436678396 3.632574146535355 3.149127722759694 -0.156932166545091 0.6673475661235668 0.9038474050906563
Ni 9.040675263859429 0.255706242535368 8.178135996978423 0.006801853413181834 1.6540153462455645 0.9957831121597045
Ni 1.577239547097131 4.553655064659358 4.4641666088290926 -1.2257726608121018 0.9960433077996265 -0.43432077330674235
Ni 4.795946124683618 6.408166219602522 11.05170852017501 1.2432746742516072 -1.1684709988771553 -0.2900062955256618
P 6.096796158127226 5.1835438259617606 12.736346710602854 0.3247604111773955 0.8011647439177492 -0.7135873138173968
P 1.3071992739334555 6.379130619099028 0.3420605074378669 0.39565832373953796 -0.23870096038346633 0.6029558301110584
P 8.457583437165983 7.845060905278647 12.036928712271989 0.7946811930759347 0.713013700702114 -0.14391415701886828
P 7.21796544225253 9.119301097248167 6.365739326638966 -0.3893768616062004 0.08803508646306128 1.0068658523364271
P 2.7690131205480215 0.5019731583627485 11.112077760323116 0.28074595326965845 1.3716290291590054 -0.8793453061842341
P 8.999648695426485 6.163026730414946 9.840906521065042 -0.8771313292520507 -1.020226332803733 0.10958118806495322
P 7.58119529146255 5.530546817422041 2.89740284911615 0.08543415850510448 -0.7619600486938297 0.08747432886358485
P 8.682627718030414 3.0858227628771373 12.733656323315694 0.4964589373983837 0.5030646156403594 -0.19713907778127981
Ni 1.5531565379453396 6.274584080324102 11.352761754990393 -1.1264923404525244 -0.3906053346966628 -0.48405387886581147
Ni 3.4793470345112145 2.641853729608823 11.706074476471482 -1.7393026947601593 0.4252800032607128 1.1507684393910698
Ni 5.384578605523775 3.3170692685326624 8.585349267862533 0.21317864774264575 -0.8198342953027945 -0.8680543066514469
Ni 5.140872519399029 8.266545725119096 7.606866989008979 0.23231048347609026 0.37443618113596805 1.0624533597937444
Ni 5.966034882568607 5.996366058917353 1.4286774269640112 -0.6411953332082312 1.7038649227778397 0.6513918141252588
Ni 4.558901687408565 8.637613348768825 11.762678277035306 0.9812111278828006 0.37477248142946423 1.1838132856611807
Ni 9.060154843944053 1.9821115929786186 10.439233768389768 -0.40540049072796636 -0.10559340706179879 1.021709345107163
Ni 7.343369833287879 8.648740599468107 1.3801695971608305 0.1775948371007651 0.6713590012758051 0.03492303712943018
Ni 1.2527023921023703 4.227996914961615 1.396388185277514 -0.1147907572903507 -0.5418335088784411 0.21086645466970133
Ni 7.333538158433847 0.10923358302075922 10.44004051703667 0.16542760561061187 0.16255979714451357 0.09945721225707388
Ni 6.331589417515141 1.901638874874312 1.5863315492168173 -0.46880955111223127 0.28434086970976835 0.6534872632017068
Ni 1.7179151938403299 1.098418604743451 1.6811952665326981 0.9813669367343745 0.18488802832806867 0.3283933799442925
Ni 3.3353727230272705 2.8295284575467616 2.69819382076301 -0.3304692886367147 1.7178409253419578 -0.7378459292544454
Ni 2.88228871643634 7.700167745677503 1.6844360438420596 -1.4999183351564234 -0.08266070952502538 0.32918990770365886
Ni 6.541417573558752 7.416537708860451 12.914321158967521 0.29159112351427846 0.21716514319421953 -0.7987823597285016
Ni 0.7585899793822609 8.955746132386707 10.627926580041564 -0.43736444522907264 -1.136443023907333 -0.031068182159714235
Ni 4.57058943545934 6.393620853907259 6.252625448019275 0.745972929236954 -0.21766805097256706 -0.25856916006230307
Ni 7.752110229742774 5.001455694576393 5.10681908932751 1.1232573784549944 0.11638252725750278 -0.687582662223519
Ni 4.04638658459719 0.6958151948633281 3.0796536166182613 -0.03923786245470017 -0.055912237786587576 0.7345839706737219
Ni 2.725147311432931 4.831220703902895 13.060382174525625 0.28368138174889856 -0.5899784440147839 -0.07308926378650639
Ni 1.0870892074583847 3.9071719063603387 11.486275899508142 0.11693634287844377 -0.9108667738312829 -0.31478530224255463
Ni 2.174876739485841 8.098837566767896 12.628450970440737 0.553478292206221 0.0401230932731309 0.5054860805976584
Ni 9.265940068271988 8.172088138671016 6.325649983285564 -1.2090766882136597 -0.41528124017678797 -0.16553173528864396
Ni 5.46070517203373 4.258034059912856 5.310506583403878 0.15248955739270512 -0.7002918822600713 0.7602839465429874
P 3.7190653198073162 4.697491548925723 4.1454025765546945 0.8349863204528845 0.3916057509367191 -0.9732926443666722
P 0.866392915884541 6.665379373050097 5.124437083126686 0.8096673820721216 -0.98667292232832 -0.934814800006448
P 3.3255686136167553 4.8471627187363024 10.840503010803717 -1.5915223699176657 -0.8691272280006516 -0.26951203222705195
P 0.0075400676497367125 3.0456599116743597 5.242176443168359 -1.6990685298304609 1.0654782626629973 -1.2623705145407937
P 2.830355420852241 2.4642128231107 0.4874847612507514 0.6945878898967587 1.785093784952345 -0.19597565360079797
P 4.6833596648831985 7.881860772372474 2.7856213002663974 0.6191545513581078 -1.5259242723018815 0.1895386397262026
P 5.738656727486491 7.990542127674797 9.847510282483352 0.15549929075330637 -1.076798572771823 -0.6178962534709745
P 6.551460583479739 2.2486418663345935 10.233945640893237 1.5242476559304072 0.011144189542277581 -1.5189894928552614
Ni 7.731941513570251 3.3694895536188767 6.900066046056417 0.6727504823066931 -1.5609018168183313 -0.9625302636438454
Ni 1.0060651804837586 7.185603611564774 8.373229504614628 0.07640675819551357 1.2898005857272883 0.210123920076722
Ni 4.038410982939902 1.5796744946077088 7.225675496803949 -0.6032461076579675 0.029637877471090895 -0.33326973419998734
Ni 8.112730550299949 0.9768733758003396 12.581516208614202 -1.1662498228561204 0.36270500874196887 0.3253345385133107
Ni 2.424904500656918 8.206260100149656 6.217122075618814 0.5149009461536551 0.028425859440860724 0.7199441092733602
Ni 3.1062120025977875 7.697631724874034 10.234228646113335 -1.2322546689920197 0.3019917500223122 -0.639827249216111
Ni 2.9992121393499396 3.0352769279500085 5.44162804742444 1.711753324386981 -0.11454778804160919 1.1813684236651139
Ni 8.677969158076213 5.609852598417506 7.434715281163003 -0.24785717296143767 0.17292108577417964 0.25806522384269104
Ni 3.1360010585573863 6.922326060543684 4.3340007468504185 1.8641240968136348 -1.8311252732901109 -0.7511429034736676
Ni 2.3628087448965953 5.719985733745003 6.613697841850111 -0.0737153274062795 1.5375060636022102 0.5685884083747821
Ni 5.4549256173765475 1.6009642054832147 11.848962709480896 0.926590869434759 0.25054860375067173 1.230947263034506
Ni 2.246620400476755 0.1677008075662621 8.423431690345923 -0.17244363191712883 2.1175646774001207 0.8821367528864421
Ni 6.7467066199034 1.1988119500286367 8.171290578505289 0.31128063152340585 -0.3761019988741652 0.9850770385961097
Ni 1.2846139872126987 6.2241117532463495 2.7712183560293 -0.2901541339574358 0.08243728066030964 -0.659520356769664
Ni 7.949680951902949 3.69127016426204 9.149154472575969 0.09012924998792865 0.31245922521253927 1.266471681193361
Ni 1.6119076865590571 8.503397204289536 3.9383667999392515 -0.9965778401468578 1.7650258105578764 -0.5569461961501634
Ni 5.532053728334249 4.015430591528749 2.7422103209693205 0.5701500964349471 -0.6745443409823222 1.107388529743538
Ni 4.927047374045602 3.822674633502699 0.3528505408781372 -1.0173099304878868 -1.155901389742261 0.3761652480119328
Ni 8.686036644545222 2.380294424566896 1.3277585005557877 0.8578542261899936 -2.1335317422523383 -0.6602253532564887
Ni 3.1101906149452603 2.5099071399790165 9.397006401405518 -0.8490078315429571 0.991429463176699 -0.7293196369509891
Ni 4.285397356843049 6.622202700022907 -0.18576076730981259 -0.8739894411889594 0.21003470279702538 0.8646859043998464
Ni 6.786952167436724 5.651669376231242 9.817614640142159 0.7643784283273352 0.814852525817487 -0.6029445172571486
Ni 8.400918073778309 0.6544670295893636 4.680375246198536 -0.2651308724402208 1.005661804725997 -0.5933543024655523
Ni 4.882731329353083 8.839566976448038 5.343563063268237 -0.012705877602442633 -0.07313837185688694 -0.7221298040707692
P 3.3984884001976843 4.0131518481980955 7.558035724668543 -0.1769556608548694 -1.507671753849597 0.1605787621587428
P 3.1382706134068683 7.535877702322284 8.172675282617908 1.3170594214432414 -2.2710240549052627 -1.9082138880439978
P 6.5419413169855565 4.966502712198135 7.497572762012484 -0.5520955529260815 1.5759191161627697 -0.3630749904868779
P 0.42277212605264547 2.425538505857785 8.467932423509998 0.6984183193864424 -0.14458752893680904 -0.9999305586691746
P 2.9957021395422383 0.843575160590133 5.287524354296491 0.4020701408031527 0.36430474912892097 -0.861659973089329
P 5.881280332238152 0.3930777114491186 0.13695982495724537 -0.3107198739239294 -0.7524405392391686 -0.31996736066412634
P 9.25068718952648 0.3462743449033425 2.668634476832711 -1.8440751485825597 -0.6507675502776986 -0.18476384404537857
P 5.8677824533964955 1.9753396823548606 4.032908001565995 -0.3171350334216538 0.008411363992146806 -1.8397058158702702
