# total energy = -340860.58634265966 ev
CRYSTAL
PRIMVEC
9.42478095626024 0.00000000000000 0.00000000000000

0.00000000000000 9.42478095626024 0.00000000000000

0.00000000000000 0.00000000000000 13.79411960094102

PRIMCOORD
 96 1
Ni 0.5933832706018355 2.037477435455212 3.9716441912710176 -0.5834954073936016 -2.188421966532315 -1.1732517080952505
Ni 1.8092375134705099 6.96193494369029 7.472122844785763 -0.10609348662666888 -0.9721029949339451 -0.4611594907661413
Ni 7.101035286778707 8.828126408870489 6.930027347543813 -0.05801000085588075 0.6642632707712883 -1.633190181970097
Ni 0.07216460579942463 1.7434054180390715 1.4668804579277628 0.16794702959835592 -0.08398174232929408 0.314951909727406
Ni 4.280339698919287 3.3710179764545707 3.234969377460741 -0.4236681786889026 0.21973084703886675 1.4010337075733679
Ni 8.655379597537227 3.750506784263714 2.992248279437326 0.3340446646927989 -1.29402696510381 0.6329562331278905
Ni 7.179402340968029 0.014545264549654824 9.160812696607625 -1.0792976850445928 -0.5404093748374047 1.862174943507064
Ni 7.437151252329372 2.961388718940382 0.9263466469009869 -1.394008168185154 -1.2494689759877773 1.295964291335839
Ni 5.466438965626674 2.7875486330086874 6.171241054980251 1.0858694247248397 -0.5077957025674417 -0.998951225475041
Ni 0.5379778104138903 8.100759508796518 12.43680626089642 0.832993458392572 0.9855434367095671 -0.7332040596070598
Ni 7.038256820398061 1.5442220959420034 3.0560323699529093 1.0726367280846496 0.5368216574861465 0.7234045570181348
Ni 8.607991798563816 2.8315246612525087 12.436695990958475 -1.6292790198411486 -3.602117842954384 -2.444122032576939
Ni 5.065442807527689 0.7070932536197747 10.324112475547194 -1.4476408659089455 -2.1263653064108863 1.557146720651273
Ni 2.1898384454401274 4.34729334329222 8.136847937803893 -0.22739761955550516 0.5936450942330938 -1.11542631244635
Ni 0.7288315110446296 3.1085472498017244 6.0905866064371414 -0.0665990280764724 0.6651042786153449 0.7102816464829316
Ni 4.9202352063376855 6.604490698689182 10.268080267421356 -2.8356334240276393 -2.08177235029186 0.5050577348109883
Ni 6.609759151279901 6.71789908871445 5.79328188913081 0.34319599217476376 -0.14585456857469076 0.40163511014826314
Ni 5.7860521396096285 3.990131841721742 9.485898840929453 -0.9072170928938376 -0.0040260904402575825 -1.0392553244107263
Ni 1.4904725697794419 4.227645748231073 4.00116354790678 -0.45354388320241246 -0.09555916275424832 -0.3512851969408015
Ni 3.388736564773984 7.454417451159779 5.954383441034569 2.098244379804954 0.01209395505005659 -0.517961844467166
Ni 9.334651840061216 9.095733641179761 8.522558986043078 2.9278198136549123 1.6719860717913722 0.5296315674956104
Ni 7.880257332030027 6.896093423477829 12.053977310693446 -1.6009732309179203 3.0572203504386377 -1.7852745335045834
Ni 5.022889921218033 1.4359502115731608 1.9418668019099337 1.1780568427933775 -0.12518289915795214 -1.8878232402027872
Ni 6.489555494138518 8.708516512933427 2.2351716421509678 0.2608409868156153 2.7890666320116937 -1.8509417937954058
P 7.076577980029303 5.2124976657978 10.60091923661103 -0.32556850890098765 0.07451699737196843 0.30648423857602697
P 0.33785106773662377 8.992635961591429 3.380125142355129 0.7473816366590226 1.7124986871934378 -0.1878370836540636
P 8.507137216858473 1.6196109193287 9.610556649581346 0.39264164840040117 0.7675879364035684 0.2547814108850967
P 6.52016718289461 4.80393340853898 6.949173790187904 -0.06658668678129823 -0.530104650477287 -0.055679038729858944
P 3.4773200815900314 8.144217174084185 0.9987327350544043 0.5017052733989875 0.6243440659788473 -1.1158433453791103
P 3.6116232111387787 2.9289297731041795 1.3133394653590227 -0.46097257156631577 -0.2632323698659273 -1.0415852580954836
P 6.536547452309048 6.895641033988824 1.0757567579482383 -0.9019553302742659 -0.7427467089901725 -0.9476466616637939
P 8.228879981995512 7.433023198242189 8.150779649109083 -0.2528309720269452 -0.7909039854216895 -1.188992772979591
Ni 5.920873632114529 4.76689401912659 1.7172573055745068 -1.630404905915476 -0.973614289372149 0.7363251217345448
Ni 3.318776415255363 4.496921166781056 10.328374361524874 -0.1372251750344669 -0.6267477903243336 -0.7626840713440478
Ni 1.0227395372710055 2.4028573460759715 8.406909383091024 -1.3792034990721538 -1.5843207099629035 0.7457209611271479
Ni 5.696337649071066 6.7651360911915255 12.6489872984995 -1.4981481306298778 0.4599433589708531 0.7806527400073265
Ni 2.852070683878212 1.1308700499245334 2.618675406675042 -1.6463976817993062 2.3568186820735795 0.02988958847058078
Ni 7.794011160907179 2.588261638320389 7.7735659834384006 -0.29704417620904966 0.11991239478763219 -0.5805800335190194
Ni 7.986399215888132 9.419380621439688 11.874019599401045 -0.31745025066922744 0.289526784786082 -0.6297356693080638
Ni 2.742686675348896 4.527683652033485 0.049639379159318986 -0.7294127108854277 -1.3018534031267643 0.8399236098535019
Ni 6.839874604687775 4.648641291656546 13.173342530425687 0.10858051471458076 0.2057784986238327 -0.8796381548343045
Ni 9.25819801641915 6.993366588395206 2.8148003873308074 -1.2430754137566076 1.4451345545473242 -0.6920257855965372
Ni 1.6375462776115959 6.796954151918302 0.6574925160626416 0.0675891599038836 0.2900263501303199 1.4651860738815605
Ni 8.864986727443481 1.204175996705597 5.935457538266369 -0.8963246143510498 -1.6820845936779547 0.6415411465834241
Ni 6.6019742821565846 2.2156717702185915 10.722790137515023 1.891727203242884 0.3416618149184245 0.8221351755218292
Ni 3.2745553427049967 2.0077799504581524 12.882562589020171 -0.5036559693674552 -0.688026434629157 1.5338373565013712
Ni 8.721616958552566 5.825721042926869 4.925121012818954 -1.836885829922972 -0.3186463278598577 -1.0247941546800738
Ni 4.879397630173845 9.434582793226504 12.847567434611227 -0.7276648749563855 -0.304818677948146 -0.0220171277010395
Ni 1.2917793362954637 7.132985294439778 4.611608499590869 1.532823570524876 -1.0698013155183834 -0.261448281382311
Ni 8.891611733827707 5.03390749023154 11.635408648380873 0.8905787130062082 -2.0322223072778742 -0.7203462298077852
Ni 2.870458431650114 9.079061203553675 8.72384309182972 -2.1358153960801927 0.618916981426005 0.04836322179473606
Ni 0.036743451288332986 6.875717046910504 9.779589154714245 0.056331584712193315 -0.1269325348592072 1.056885893008296
Ni 9.134488340737969 9.012456276078517 0.6781356139328606 -0.8258987563293195 -0.708804804827089 0.45708352092455473
Ni 1.4135757814293908 3.554066073443747 11.797393302266295 0.5327320607978051 -0.8131023758955996 0.3797462804949718
Ni 0.06652858674888773 7.7037406082883795 6.335859935161033 -2.6362132635216664 1.5890831643485537 0.5833151730619953
Ni 3.233105155774794 1.965434409330958 7.1066477438766915 0.08264219758226413 -0.9366665085032062 0.36520772055916456
P 4.1215698378401155 6.818678272171626 8.15999425751328 -1.16433717921444 -1.2469603506333105 -0.6717354107786173
P 6.120650715415918 8.088884284710103 10.806823370054149 1.681895360485284 3.2233131004370743 1.5095378605240584
P 2.586697124670909 2.0112105707497836 4.741039017351777 0.6220043621020771 0.5360842650994896 -0.891110417139962
P 1.085866720549427 1.4828102228093973 12.77687215217297 -0.6825461282408761 0.6401175267630201 -0.36252168908656923
P 0.7844386615464235 5.252732055976299 2.27396027092085 1.2831103181913064 -1.1441319079111587 -0.9636846889632629
P 1.0892690664979954 4.729496488035402 9.977865812877097 -0.03353181320885838 0.5952728596445039 0.3151830519016055
P 1.3447560304143065 0.4865260458642398 7.104675137209004 0.1912185985317868 0.7809743850128034 0.23360940479317188
P 1.6281120718096103 8.758458427563518 10.490097006497916 -0.2934634008363268 -1.2273474614983895 0.5861950657129518
Ni 4.3601864437288995 4.47810930386321 7.204902970976453 1.1732995306140503 2.000626277639148 2.8729658419295103
Ni 2.050766376694772 0.22766124043001493 0.4465574345105327 -0.05650256307241882 -0.35313896232008857 -0.014308960423504389
Ni 6.835501506294048 0.6937873477743767 0.028909573303707126 0.7214752012059058 -0.437639296157014 1.3132873559953189
Ni 2.3593337073211567 1.5161362484995287 10.636411076979778 -0.7595861491450144 -0.9751286691341463 0.4395359989590946
Ni 6.63905137069306 6.924744757781562 3.340522212505035 -0.132120763928366 -3.222130135872567 1.4657321761930178
Ni 2.4814128958857125 8.293788448886895 2.943416604011504 -1.0645644925994762 -1.415876686123471 -0.8742920600310428
Ni 3.0201899277301805 5.614426877217862 2.8369542775986867 0.2144516009177984 0.3198825142598039 -0.3158631086877657
Ni 9.344981400060194 3.834754901810118 0.2660417761816895 3.447239216504211 2.926385395201231 2.037563002764497
Ni 8.065275208252585 5.353501814652454 1.574640576687167 0.234021552629926 1.8081473243376989 -1.151226867084727
Ni 1.4824520811306006 5.950382621491169 12.297154568118277 0.8624403028987792 -0.4385556373236963 -1.1351937248812642
Ni 5.570394300287915 1.6170096797669138 8.29528698906923 -0.049620491240604865 0.9054566585593051 -1.2775896454833933
Ni 2.2306854463849883 9.367582024948467 5.249545537513111 -0.3121581490323527 0.3988482914317454 -0.6372808286451734
Ni 8.649310038559726 4.4571203165295215 8.98086818000865 -0.6563136769069084 0.46186448725296586 0.3389953238298549
Ni 5.006792395234225 8.73377492606961 8.28523074771986 1.358701779574376 -0.6149032322809216 -1.2767710062368398
Ni 2.3700308337799516 6.593096138434836 9.585533855970683 0.984087678099647 0.6676121326388631 1.572287947168086
Ni 3.052271882325544 3.8548296853847726 5.6312972352453885 -0.6592570758059485 0.30018760693403784 -0.692811000501994
Ni 6.489659166729749 4.061854425291283 4.063388779641496 -0.6607004931206943 1.0716599659936767 -0.5897195339264424
Ni 4.276155096145978 6.164805814499137 0.798726629574206 0.28014817178465945 0.7231806139327868 -0.2266741111259193
Ni 4.730570913071791 5.350872300747605 4.98210512382791 -0.013490835397583216 0.27084823453997225 -0.49997826340555185
Ni 4.604571015602515 3.555376118005661 11.996524788067747 1.435913293059372 0.4350627936790894 -0.17021834213103587
Ni 7.877816313745597 8.663739378302823 4.3146355345764755 0.013349167613396365 0.31552912238711467 0.756549933421852
Ni 3.2100050174924095 7.714136141754503 11.999518098520007 -0.2102676447434379 0.48532194694495767 0.07353226486119595
Ni 4.466441424959256 9.268329656016688 3.4889738233224543 1.862812834201379 -1.0664478256651182 2.1837847248706197
Ni 6.511967623406372 6.4089641916282485 8.702006816682244 0.3309655115468429 -0.7739933257092799 -1.3686912866869203
P 5.0506930252298785 0.3163738767460494 6.114229612106334 0.2641173435740419 0.25004338197947906 0.8465318591986388
P 9.03388822812019 6.320295851783013 13.622685930206018 1.3436489990063116 -0.4029090917646803 0.6498231840865584
P 3.905921423299422 2.3435283495489987 9.503417623891222 0.40673437904804144 1.6079069819232759 -0.8099741146792631
P 6.183353783548396 2.459509704792991 12.972362845066025 0.1534426653345938 0.3486104783221157 -0.6931442154716966
P 3.6935811068970876 5.559546377332784 12.24702604282397 1.0474694847904025 0.9884192155954656 -0.4688550596381861
P 7.822464574809471 2.84169399997413 4.959620423746195 1.2884936939904068 -1.5724951780828853 0.24200739904888002
P 0.9990739121273632 5.232110635102428 5.867825309659927 1.9560505479113022 0.8827088233398281 1.895751751021245
P 4.473274391199456 7.029095933245683 3.641288651880367 -0.2534215544230926 0.3680840136656951 0.8801534039078261
