# total energy = -340893.47086821654 ev
CRYSTAL
PRIMVEC
9.08283103385441 0.00000000000000 0.00000000000000

0.00000000000000 9.08283103385441 0.00000000000000

0.00000000000000 0.00000000000000 13.29364132467981

PRIMCOORD
 96 1
Ni 6.460109010756735 1.8672574679580856 11.412790525582768 0.5669004791493978 -0.3793086787369209 1.0347427812523533
Ni 4.489516175167599 0.0701176383087096 6.197668785225544 0.7329058116403506 0.511461581454803 -0.7171732313964423
Ni 2.8371857357982067 1.4506007641399248 4.770210166043619 -0.06432283044778599 0.7336054088105365 0.8739151363075982
Ni 3.395407442683746 4.234833595544265 4.9768999752507 0.3489974293478893 0.8412690681378028 -0.7061519405852742
Ni 5.037692271030905 4.5057926082162805 2.4689214469577627 0.1820436169007381 0.42801668546558547 -0.07472782783119387
Ni 7.358192085842914 6.003733087227703 2.5582147579519496 -0.2332592205426047 0.13950471509726298 0.10842984806932938
Ni 5.0243405095456595 4.761301725455368 11.627908293621251 -0.6343911658022042 -0.38845640667446 -0.5635783567547004
Ni 5.614715437967097 7.947495240213154 12.394671798943016 -0.27464832501235276 1.0224372244121231 0.3145855275269227
Ni 1.8194908600322965 6.739351565248168 0.18342050461588943 0.5373376778906165 -0.46926489348209505 1.4135495806521914
Ni 2.7812264143624237 1.713712210877755 0.5885956018398325 0.18010012002112208 -0.6959696007356337 -0.99465902585759
Ni 0.37377120924078755 9.13905366587742 5.098922359262532 1.0860666283373102 -1.0504529928987587 -0.9403066763589547
Ni 8.733141951064052 2.4511745035795163 1.490868586839714 -0.06539729445888738 0.1587432516119008 0.181473603329881
Ni 6.748734129611611 0.8089341811039746 4.88013512752334 -0.001393537913416955 -0.6139992324094135 -0.7337625032136912
Ni 0.854006821372264 7.77433106829736 2.8137583899486183 -0.7921671684048294 -1.1824374883595765 -0.2691711039478655
Ni 7.890400564909579 3.6812078011155522 3.8947042838308263 0.06161905836337774 0.4344009917253744 -1.6158259796600365
Ni 7.5795134274150175 3.76415221328104 12.667431028707805 0.7337077387163558 0.26208437230441317 -0.6677471155548307
Ni 7.795076254169675 8.93967644386202 6.974694981229064 0.6286226387495432 -0.4514597469798741 -0.3110317487373934
Ni 6.9788294858740185 0.8502646950240181 0.46394918796875884 -0.6243695199001441 -0.4318573993679143 -0.6786791890863022
Ni 1.9640168659868793 6.526141191707579 9.254009607416107 -0.8848621222374051 -0.9465385162012795 -0.0757999778494501
Ni -0.03196793178467503 5.046057558328805 1.1349242498894656 0.6519536001659999 -0.6917763885898925 0.4783000071011698
Ni 6.404258683292261 1.9502654599401699 7.043955200296816 0.978780921174753 -0.3922097030693052 0.3965312132627945
Ni 3.3905572109605338 4.268421904369053 0.5090681506748542 0.5083366626725762 1.1530564640942982 -0.756260170095575
Ni 6.282149104103383 5.462677930823196 4.765610620454416 -0.662559400706304 0.23337594862612712 -0.6772540266040014
Ni 5.329587209025024 2.5968812775566037 9.606450696471894 0.28342067188834413 1.4368951973566673 -0.8246576848333668
P 0.10755161775448742 5.839733491732734 12.413762093017635 0.13542977369694098 -1.146842364863786 0.4699107545962101
P 3.9892156812013897 6.389916893234299 12.75551450662047 -0.1897921504979054 -1.57502385804201 -0.18477798511276564
P 2.4836547070293395 8.343924479522714 1.5320792073913188 0.03646724168809849 1.4331354732039188 0.14888564209153068
P 6.3604067755026215 7.688498315892207 5.732430743546067 -0.32994709758465757 0.3942578438475855 -0.0949068738822301
P 4.661808395312929 1.097378551623097 12.705144759346606 0.471188335757053 -1.123462295376949 -0.014051335886743543
P 3.9452638622713856 6.0739433704120245 8.100546391290221 -0.07732412780346039 0.06869190604975912 1.296925626807844
P 4.778777092188438 1.0986592307859675 3.7697045478360955 -0.2464844609836271 -0.5177972938648437 0.18676904740086547
P 0.3117173082426913 5.715961754481408 3.6669050672306422 -0.14762785842502962 -0.7323602235495258 -0.2048989242323568
Ni 1.483871173881732 0.9835979284083499 2.5918475726483567 0.055956717871277824 0.6821933728871478 0.17069142511271249
Ni 1.984507732592808 6.697506963096789 4.79336775181422 -0.5974192165635452 -0.8527701267988668 0.5161810984176595
Ni 5.883721641986509 5.614987922895367 9.129288714331304 -0.07794222100343351 0.45625434015504 0.5362382741788507
Ni 8.794632716543724 2.3241965270055425 10.361741678030382 -0.43152367017757937 0.09245738390047303 0.33454962935367544
Ni 2.189189327878537 5.3839025380602425 7.02522367804442 -0.6661355480933366 -1.1179413655587196 0.16393533733580154
Ni 0.5432532014925555 0.026615419510351526 9.069427408722692 -0.1320125204852759 -0.3896666249324773 0.7962197412076482
Ni 1.677053905194453 1.081256526700436 11.478527514527984 -0.1886079003818171 0.3741639013111879 -0.8631524984744553
Ni 4.172225641858685 6.970627689533082 1.7417863330374468 0.4079988475827619 -0.9450413628304627 -0.4674628072763497
Ni 5.7486599458738485 7.58680694066172 7.782762660261139 -0.9065370361076774 0.5830230957428733 0.663690943207586
Ni 5.182545258899411 2.776276271498846 5.097686185971278 0.7637302532203749 0.01924342161064428 -1.2462525259330086
Ni 0.6905340300719511 7.509430303863889 7.117375355936161 0.25431424144069104 0.13824256055538772 -0.4085025266920578
Ni 5.479254097292973 4.561788260975833 6.844377247717591 -0.8730466176597157 0.4527717809230783 0.7371087939781047
Ni 7.995679658362291 7.1174334860541935 9.240954854502675 0.5986502607571689 0.6065286350639812 -0.6207077547778407
Ni 4.429142597893836 0.5002886862859842 10.451301115971178 0.5969834145777073 -1.0623379172618028 0.2657142557475166
Ni 8.07607179503298 7.271033240120178 4.512672852655106 0.4478401479494158 0.2306258966848157 0.3614677939007581
Ni 7.454297520043859 6.067167578529036 6.813522871006447 0.5946126003526857 -0.12076214438243718 0.41831102814204735
Ni 2.3220802273959764 5.381468339367695 2.5819173135790914 -0.4246529111996751 0.22959796964093362 0.33879323512137777
Ni 2.222187252692074 5.1387750965882555 11.658776294578809 0.9608184231590614 0.34397015133662695 -0.5865002556581963
Ni 1.2821324158213228 3.1150022858316926 3.907679107831965 -0.04682724476618386 0.595075141811401 -0.5680459056077507
Ni 3.5178530866174893 2.809246947819556 2.6396123640079563 0.009379127222054815 -0.7994804142367908 0.7967213634344149
Ni 0.7439946647154956 3.358167835820134 8.336814439461047 1.1051940931953805 0.7861150486734785 -0.6781289730097869
Ni 3.9315851188722153 2.810055319773425 7.127292899042108 -0.6067831742769485 0.014194803443143295 0.40156491903196
Ni 4.102623908347501 6.599775702157164 6.067497285292243 0.8310129376274332 0.8035774671243 -1.1749458079682216
Ni 0.7775457339334212 7.5242625667927365 11.334796256280859 -0.16620073633121055 0.485636392861583 -0.6275044659847
P 0.07275256756508368 5.665570208413282 8.097090374116659 1.0808071797105836 -1.2550176737201484 0.009516167020551353
P 8.451519694865725 1.6820312965508577 8.219485154197127 0.20190230349787808 0.14741754218643643 -0.7422013780096637
P 1.7619602088434878 3.3077399584282388 10.473554960063018 0.4225186384654917 -0.1448317837371312 -0.5021714144021288
P 4.234170548885474 5.879997681300147 3.897536310518649 -0.5419988308117117 1.8200785285576462 -0.6692951767682408
P 6.823086183705641 4.238621136047222 10.54591242448211 0.588576678571251 -1.135103222049987 -0.2268502316924674
P 6.091300660342845 7.8412715323424385 10.15025340923646 0.44096424676518897 -0.46186654413549494 0.6229425576456304
P 2.394870034567924 8.55250260928271 5.9634480071491245 -0.2732349896045939 -0.5837772003000785 -0.4946334541538708
P 6.884604197678139 4.11435892592501 1.4791571846226554 1.1161873589820905 -0.8812520362886436 0.20211261973647127
Ni 5.393385013564051 2.9861714117454805 0.06889963067934123 -0.14902113922813046 0.3728187001372031 1.2059561403068069
Ni 1.5383045797192014 1.1333465621547805 7.066740389998781 -0.06874872742962354 1.035921374941487 0.20509689917577578
Ni 6.916684756566499 0.4403519931805483 9.117231256255344 -0.9831283995101714 0.7417416647644257 0.6583713307668855
Ni 2.8660600553639197 1.772732446341108 9.146929388587527 -0.9819981425604701 0.15845914471257871 0.3141576959608848
Ni 6.2554546639638335 2.2006972746824873 2.5710170081651844 0.4609340050188965 0.21817352985407587 -0.20630506055126405
Ni 4.115103718062282 6.914604788280703 10.348289097121675 0.2941226316868806 -0.11237057788463228 -0.11140924241262748
Ni 8.356704022658592 7.413252207015405 0.48735655159027436 -0.2759827275530602 -0.3330198229727103 -0.26779582086689363
Ni 7.306083884726684 3.9050995838443394 8.28883801814049 1.3193204495632764 -0.3294909838838455 0.4619357068105335
Ni 3.0836211049258933 8.272188280740078 12.147224602448354 0.43991780777854556 0.9850400147105873 1.6637235746722638
Ni 0.09746513399301407 4.944239023465125 10.410382962575918 -0.6417010692000561 -0.4232897123035614 -0.8625256635237338
Ni 8.682913895952888 2.090722357632582 5.830258282493681 0.10392219000696296 0.8861998672122222 1.1558401974870223
Ni 3.599126257889586 2.6662014433085752 11.574852753237735 0.03395090302414798 0.7651721278732241 -0.1686851933159611
Ni 1.0005192424539373 3.220780934986234 12.688248877227657 0.012574494230900925 0.3620180099772733 0.011936860646902024
Ni 3.060214649587471 8.403090040281146 8.171096372351787 1.0494590044166054 0.3011790243130297 -0.9316289460792987
Ni 5.680402471342131 7.8955414472229455 3.626824350848265 -0.13686367792999007 -0.4294562461255894 -0.0029387709133497776
Ni 3.1983190940658166 8.434988942550659 3.7622602595957497 0.7237601405853407 -0.3333049583132969 -0.6908610758644748
Ni 3.682379486307114 4.3075053259139615 9.334927639998357 -1.0139114463292989 0.05459840407117049 0.31500950243821874
Ni 7.288208873432151 6.337054817149855 11.373440977091251 -0.1761280227472515 -0.5828978830189186 0.6282367161650342
Ni 0.7813341827194729 9.128245097056029 0.159440014361912 0.6925302360367815 -0.20474542937362802 0.8428631520977999
Ni 4.64275261599589 0.3344452761097194 1.7073551375012082 0.0046665522377338986 -0.13463710259231654 -0.7125447314854955
Ni 6.115624481606443 5.791222091669673 0.22560117151213643 -0.26197998551606494 0.22866105964896105 0.9225454957207918
Ni 7.887721129781587 8.857912799719037 11.37140733124326 -0.09121142730851388 0.28181784617759853 0.021890372315188106
Ni 9.313353191661006 4.517327803513058 5.738412696004695 -0.13348833369985397 0.9525171023822177 0.49847699626967695
Ni 7.733358417916445 9.030722741228079 2.553787786150651 0.5601580182192417 -0.02671093363228303 0.4820751578728859
P 8.69721935468708 1.6004402261957789 3.6922161922176735 -0.47090988528468575 -0.4412943764110981 -0.8257537461110229
P 1.7296707448434536 3.507907386735622 1.5507298924483284 -0.931409116759009 -0.7256658422484858 0.3470297640985572
P 4.812810459729403 1.1352993708073844 8.145639013786584 -1.0347605218641662 -1.697906905422192 0.7766456757304625
P 8.674448697514624 1.5392491941372053 12.51065864179366 -1.0657150612641517 0.48716362813938674 -0.2913926343502272
P 6.430707886996368 7.7058283573301996 1.31757362215835 -0.9789161612010367 0.7265245907043553 0.6026776367490073
P 2.0641914084499944 3.1972564028455626 6.160446435740723 -2.363040751723892 -0.8367796649078815 0.7032180547679309
P 7.164055657281247 3.6142764199014166 5.875430833902336 -0.786918004190748 1.6092753230257124 0.25243707902263623
P 2.402199879138396 8.470230326606954 10.176814331761157 -0.5893410675411012 0.8712501878809252 -0.2562855062344489
