# total energy = -340886.7526511506 ev
CRYSTAL
PRIMVEC
9.10069361857493 0.00000000000000 0.00000000000000
0.00000000000000 9.10069361857493 0.00000000000000
0.00000000000000 0.00000000000000 13.31978502299784
PRIMCOORD
 96 1
Ni 6.39683183046714 2.390852242531036 11.21714964721245 0.8661480907676695 -0.039691662162667125 0.569724064641122
Ni 4.665588739004795 0.34430835047685554 5.749565039677693 0.9585404257581621 -0.28093338669011614 0.3688586870481906
Ni 2.6952522326653594 1.314895472810852 4.719266448338994 0.06396878954247692 1.630892901295488 -0.7914362037760756
Ni 3.815365566369391 4.551902878063694 4.8959527688502895 -0.2938279832645972 0.26970229386098715 -0.2897597267324945
Ni 3.4874038812321455 2.754943680144761 2.8714525761534198 -0.6127352780953254 -0.15043601729778608 0.6644949271661201
Ni 4.983921890610525 4.337454140694488 2.489400920274625 1.3759937338856045 1.724278453437185 0.31078595127517444
Ni 5.23791314045084 4.751726801269246 11.625880895625262 -0.7439319875475253 0.38994173297073487 0.09573502621048027
Ni 5.500677458650681 8.098697883895714 12.449922283651198 0.1271071127638585 -0.8513436787649855 0.43834583530573534
Ni 2.073447361643845 6.710960461759487 0.2613582610820543 0.5060797483175994 -0.73913867992394 -1.2070663426518502
Ni 3.1220110444738025 2.1409745060709158 0.6251056924883202 0.6491644674566368 -1.9385675606351904 -2.400988948832891
Ni 7.918194732606423 8.698970514524444 7.033872172174013 -0.022095032126826463 1.0888999840210474 1.005133700136669
Ni 8.644275347677182 2.5837414374275016 0.8582399733801216 -0.4075974983792851 -0.4755538118146004 1.3627414968613887
Ni 7.153026639730508 0.7310486835536059 4.952962242008578 -0.09582167238701562 -0.5408099527099332 -1.4306854690015298
Ni 0.8161246949077284 7.262926612250901 2.1550478182194364 0.029170708026685244 -0.20061958013071257 0.8204233350370452
Ni 7.523898093866897 3.943148401261643 3.63616836457138 1.1206777906532763 -0.12266193250831132 0.020693266683293396
Ni 7.800340754125214 4.2535275469065565 12.635187827754327 -0.18650036712051107 0.17257578661961892 -1.386812164657347
Ni 8.60097424886532 6.890580845796832 9.266400563103524 -0.10535917956380565 1.0721803572735211 0.502559908089799
Ni 7.067543827385026 0.575784485045933 0.27524409894820323 -1.674399052108239 0.9976348206564625 0.7057840157228942
Ni 1.952644758527276 6.382034103130426 8.960179524236068 0.4856980993374538 0.6948339444692936 0.51492254342021
Ni -0.094589876149818 5.00323356183347 1.4060634882727212 1.3525786973957736 -0.14638344449496724 -0.061543982151068204
Ni 6.690975339230936 1.8280380656033595 6.997695096092275 0.9115599432435656 1.6683615876649076 -2.5290923640717478
Ni 3.3110324447096873 4.514781150015442 0.5587407065980868 1.3973462314194516 1.1007278298939107 -1.2948731151541892
Ni 6.173591823351768 5.720623014784571 4.643197393162697 -0.060948771769230525 0.3650082029538488 0.9584607215601624
Ni 5.555891365017128 3.202552180347061 9.006212651182295 0.1579464667422183 -0.16547928478415372 -0.2253996152888699
P 9.382541791102094 5.843746294697488 12.548715770045067 0.18405164846970237 -0.6649561830732548 -1.1725076308403741
P 4.031334119522872 6.439140953707228 12.402757030456085 0.086930797655289 -0.13746660162131163 1.2442406377093025
P 2.276356419884543 8.675982163200619 1.1244570946251966 0.7370666278862598 0.09212134071729296 0.07359551399896358
P 6.354750224560027 7.707022244832062 5.789990319400745 -1.02968105045873 0.9450976699896949 -0.6783326043801607
P 5.068412727384236 1.1145255080061585 12.317563620158147 -1.0819911727163558 0.388010320275977 1.0663503808553054
P 4.123869969190588 6.3701212955758395 8.095884859590807 -1.7532115915317676 0.19608235438199134 -1.2886926973750903
P 4.71373140666237 1.0641258684054684 3.4650216360833666 0.37301436108777697 -0.5484630983798168 -0.054870426785634537
P 0.43306195200119096 5.4682061848884445 3.6102077268095654 -1.2954495564829496 0.5219036027237334 -1.519660550780357
Ni 0.8925277455288324 -0.3640386535924742 4.124630787152058 -1.4775129708780295 3.34746241612419 -0.9516277577987288
Ni 1.595715566555614 6.794723243067676 4.690441822389685 2.168143675899253 -2.5053641672168725 0.6168271887765119
Ni 5.9515258056745495 6.057776400174018 9.18951881601384 1.731807929045011 -0.9609282092640481 0.3607589407591916
Ni 8.74157996064406 2.5870176870223465 10.021806342256136 -0.0024800861093763737 -0.17797716014084833 0.6596566252372124
Ni 2.2749094096468196 5.4135292194278195 6.668989884310866 0.618972774364605 -1.234894420607712 0.5755530126180733
Ni 0.6719114682973322 9.073700662628093 8.619205667791297 -0.7763433139986953 -0.32095286450584726 1.5155845809387705
Ni 1.7272660884819364 1.4626725309249735 11.21936111568897 -0.6604133008975788 -1.4797125496325096 -0.23456662650011859
Ni 4.281357467076096 7.068845226529645 1.5162574131873179 0.1095089400661211 -0.999043528078531 -0.9931736995613153
Ni 5.510970342794484 8.099744463627399 7.885645192881644 1.275563359081984 -0.08270416116845111 0.030527479164895812
Ni 5.318226758991123 2.5073684190943504 4.925376220419988 -0.09559464397787408 1.2524504272136041 -0.2790186861659065
Ni 0.8353899525947456 7.452421248539374 6.965740741710559 0.28483477862705137 0.14000428044150082 -0.684405292936802
Ni 5.267171869471464 4.820473438601065 7.065679095323961 0.8240228794628452 -0.05000152872910744 -0.7159434727543992
Ni 1.1739257332993516 7.655876348379214 11.367809804970035 -0.41044679490262215 -0.8921938800121281 -0.35969476116073534
Ni 4.886644579723604 0.09665664360256566 10.222175396991496 0.4353736400512889 0.3422418557916106 0.29561592840295536
Ni 8.313619857317507 7.470440621311019 4.985981377508618 -0.4343056037980907 -1.2114133067666364 -0.9402776228932324
Ni 7.406098719545603 6.2950769784672636 7.076268662069963 -0.3731989662947573 -0.83381775406608 0.08425145105091297
Ni 2.557322124722409 5.6256117765340825 2.5444919672812656 -0.28960546054281733 -0.915021933650237 1.1735890368300113
Ni 2.492006448771858 5.381603987264724 11.251315470070685 -0.0735327790818282 -0.217501957708348 1.7837694097139667
Ni 1.192818772629621 3.3836377760087677 3.7301921775967553 -0.743635539353029 0.07616867404277851 -1.7121256201247352
Ni 1.4362350168332427 1.2705932977339 2.2873136546406334 -0.41633462114196684 0.4273574546150317 0.432478577891681
Ni 1.5644364836181688 3.0220581297510902 8.25483028854602 -0.8112519529504222 1.386424185190309 0.11015325851833932
Ni 3.7891373682239977 3.0504431922130895 7.112006174664393 -0.6750043113378762 -1.0744187596857366 -0.6164080989612223
Ni 4.041208371774 7.112956287046897 5.96884897540729 0.5238846377095042 -1.2297234179297336 -0.8485447758636095
Ni 0.8410323824525332 0.7520667347738648 13.304640288716863 1.091142757308637 -0.6795353664390104 0.11331520118608872
P 0.24832697831856063 5.545043338580866 7.8457659547577325 1.065897609588603 -1.2191374148837713 -0.025453407076098094
P 8.757169448299528 1.789824254356827 7.861443719138395 0.18650833754031104 -0.8854586181708235 0.1961818560743331
P 2.0762867779593766 3.347817447105135 10.384703768906405 -0.9809825568117622 1.1895059651705835 -1.5641961712988868
P 4.413945468040787 6.3898515986914575 3.564760684513082 -0.9381999144285972 -1.0235245439390308 0.3745027727078453
P 6.869640150469785 4.41989732147142 10.390497270273288 2.0624140003699063 -0.250631136162149 -0.5641457992223962
P 6.806863567955238 8.017820022369651 9.709017333020345 -0.1179231322717453 0.7100214508430095 0.791015057078257
P 2.3924994680217777 8.544458943354254 5.633643138388111 0.772441664951444 -0.07407811006233694 1.3557157003628586
P 7.008007091692048 4.141052078176884 1.488991736003557 -0.5440138043592114 -0.5700847904146504 0.046643668000468055
Ni 5.411345053031257 3.0771810291843478 0.429440786129556 0.016450946467171667 -0.7042974038750387 -1.048458073955917
Ni 1.6504198340961969 1.017921648424843 6.95544512735876 -0.1749741116484664 1.9353292562035507 -1.915646433062643
Ni 6.95307530681849 1.0961603088883918 9.136186933025765 0.7023739616000806 -1.0386148626132499 1.0622404724519898
Ni 3.3073193618355305 1.5974446982862263 9.250896621965255 -0.2982999029930217 0.8680069983532793 -0.2408123502995143
Ni 6.644352487357636 1.8367929325762495 2.3714941577721653 0.006343682829840688 0.018272830167258853 0.7677365461662906
Ni 4.032708324214043 6.963140673629317 10.234336653473692 -0.6620809184079888 1.3302612648454961 0.6961099829682398
Ni 8.685683502278685 7.730966168954384 0.0034000190239829894 0.05217205401786498 0.13808109527685897 0.04102760736527128
Ni 7.892184951100686 3.841903188087631 7.8935837276638186 0.052386226911200096 0.7731307205986685 0.007386522272058247
Ni 3.140867681030796 8.774979505124834 12.18034336629408 0.3094818877517702 0.2814157256431734 0.6188930701666051
Ni 0.4276597804470253 4.900605043274969 10.355186580195522 -1.6100834207493044 -0.2923781381919481 0.05668691116908302
Ni 8.973920661078443 2.5230944171496037 5.6651306272025606 -0.9316299745205633 -0.9790889393334752 0.1645266910628973
Ni 3.788627729398133 2.9054145434813097 11.439603354425058 1.061008656927418 -0.7010179617928185 1.1548251259589466
Ni 1.2501804426193555 3.3488731275301404 12.64405827353237 -0.36438342488565634 0.949278797950578 -0.8918465239750382
Ni 3.2783609556944335 8.737675763210204 7.783509021831701 -0.39283576668907827 -0.9994795871746851 0.8211915806616373
Ni 5.793856293922661 8.134181487146542 3.3451172713973842 -0.25361541560145356 0.4099361738147908 0.42205943944088603
Ni 3.110662479904994 8.583082285800142 3.179499214100671 0.4352921360810762 -1.1849096040491527 0.6687269629695967
Ni 3.80109567924518 4.671840915314956 9.357135385563408 -0.7376829213140198 -1.1634966855910156 -0.2895257563448175
Ni 7.316484192433288 6.744259898613753 11.445638024164897 0.42580399408498276 -1.0433009552350099 -0.2152463289049519
Ni 8.085520079969783 8.618638694597523 2.4624155444450895 0.552904421980622 2.478053395217061 0.6875140137691127
Ni 4.438016801869574 0.26294269178889434 1.3326973390121717 1.322399345598916 1.3572033406519788 -0.7935859031292268
Ni 6.027552997661578 5.750564295804121 0.3161753772197929 -0.2073137043214365 0.7448771250696139 0.42769169802599893
Ni 8.538852916269743 0.019937798923292116 10.659663926223056 -0.2999433521337157 -0.15843137679843683 1.0022360668738997
Ni 0.03469639327873433 4.961952816938431 5.700934574858219 -0.8896687995974291 -0.2941030913028548 -0.4385924040989027
Ni 7.443866596819504 6.418819105525873 2.560196123672553 -0.15074583522872104 -2.056225097950375 0.6255977358802903
P 8.703520861183952 1.4162134915314157 3.4913954453218645 -0.6280647093635442 0.6684850221621197 0.3119177508867725
P 1.7507185751650312 3.4274121108732167 1.4499515818036581 -1.4589691464375714 0.4507323818955463 1.2709423153702049
P 5.09407668254385 1.188186519730244 8.031563889420024 -3.049636367443793 -0.02332607632045015 0.6250138383523623
P 8.29009456508786 1.490584357334384 12.265909905018098 0.6351133886802094 2.019791023493057 -2.832914225324263
P 6.767721485990166 7.769807928039928 1.0420757985628335 -1.8057456568747414 -1.4152696486670915 -0.2086311375812794
P 1.9647941841081573 3.1926961294825706 5.649227165627587 1.8594428892878814 0.7162332360806761 2.3754931185546315
P 6.963823225628244 3.7267976189887637 5.779468097785304 -0.23806692634389323 0.936588346967103 0.25820894850940695
P 2.3139968874519776 8.795556172719122 9.930392608074651 1.3733367558787315 -0.3210030010174923 0.3915471297846418
