# total energy = -340891.84033379547 ev
CRYSTAL
PRIMVEC
9.08020391252622 0.00000000000000 0.00000000000000

0.00000000000000 9.08020391252622 0.00000000000000

0.00000000000000 0.00000000000000 13.28979626705880

PRIMCOORD
 96 1
Ni 6.333496845635365 2.1355096424218027 11.418726228459812 1.3194034961953858 0.11733949185413341 -0.3482505238795357
Ni 4.797162631601189 0.27003709794902797 6.208846527720065 -0.8536206477246201 0.07311291793559022 -0.49960288234400413
Ni 3.0568325521062962 1.7948476249514127 5.069273648168184 0.2498757460533632 -2.330039614207523 -0.6614024042837254
Ni 3.404459086126512 4.16717807067959 4.947166695423166 0.7605459419551225 1.5098080834663095 -1.7180353007409508
Ni 5.245770115491816 4.579482898551702 2.620242718350864 -0.8582987699265798 -0.5154213374334995 -0.1636874829910536
Ni 7.12394677353025 6.129056050173419 2.5358258768118622 0.9561850381521082 -0.30549693496209324 -0.19153561555157336
Ni 5.392297369161345 4.443479601441818 11.256523818440916 -1.7215196597451254 0.5863526743367387 0.8643174653168341
Ni 5.539342194464953 8.163157973131796 12.680167251388703 0.24079023881232725 -0.4828264342166137 -0.0017555492385260088
Ni 1.8243038070734894 6.50745539591118 0.37517768932071 0.2584694012596452 -0.3168509265223317 0.11575774918931031
Ni 2.7280746822197663 1.6205531071236507 0.39451943208835344 -0.11542350577834315 -0.22513324900136064 0.028479338386615472
Ni 0.6474403452962857 -0.05203138557210944 4.714329377658394 -1.4627486680846613 0.7742468364809827 0.013763372332679522
Ni 8.610230902528395 2.4794496135747055 1.4214496556356124 0.687652596229506 -0.7734647068993196 -0.5009797080868726
Ni 6.898103936988854 0.8699607351550466 4.915749189214046 0.5254257569443789 -1.1122867383761037 -1.3543255048835514
Ni 0.8138078449389141 7.379808764848337 2.4769525574453675 -0.6374883166702892 0.06475091912414009 0.03448312137853416
Ni 7.562066621677658 3.7838572543160076 3.7429382225296552 1.1593368977863712 1.3574270266270105 0.6276163089722159
Ni 7.4621843765041564 4.101836921927906 12.599338906512664 1.669875967426905 -2.099273849510733 0.32270558553089584
Ni 7.847357554505502 8.778296400338972 6.942709531642519 1.4026702147355263 -0.23955996594965195 0.6766924976735765
Ni 6.764143685802974 0.967513907975185 0.4609311369042152 -0.1837480011863545 -0.03749336895976769 -0.9270071310365712
Ni 2.0676078761120347 6.147788511245504 9.42071176068262 0.07327001233874478 2.5918581344450593 -2.6095990033682477
Ni 8.988330601530635 4.867125604243175 1.4645225118360694 0.40588462945323645 0.2638018692161521 0.14781246363200995
Ni 6.590067092873773 1.8688876092372981 6.981940553485439 -1.4651238531850574 0.8877088476575808 1.056404325386187
Ni 3.1868338343016633 4.268485907897841 0.6309679470263538 0.1641356262720657 0.09590369057786063 -0.08285534203433473
Ni 6.007590159838333 5.797982728239686 4.591172753318643 0.0951362162842168 -0.4890227928353126 1.1612343719194003
Ni 5.566646368213746 3.0470985733039333 9.048331682247179 -0.06424441180136678 -1.0390835747195524 -0.1271449079803294
P 0.18434630377385883 5.577415490284271 12.669853955564335 0.2314064836045821 -1.0811787041173895 -0.984711170616259
P 4.132201124460651 5.749094909329308 12.646091969437558 -0.4871199193856449 0.7530524617915546 -0.6180086106791227
P 2.3939413315020803 8.478867589717025 1.270394104178082 1.072297856687992 0.055309314095266036 1.3114690718396576
P 6.340524923613937 7.703908490028139 6.003173548560843 -0.17602235040732267 -0.34857165466438034 -1.2289068355657093
P 4.63982993504471 1.2645546249170747 12.27651585803026 -0.5394030450600774 -1.5651248537607432 1.6289838571982334
P 4.016501163733309 6.166811538849003 8.210649256650566 0.018452550278232737 0.4106995343433765 -0.5159851803567694
P 4.719772051999939 0.9504976054792629 3.758128495979724 0.4414532705864655 0.7544544843454039 1.0623533438807702
P 0.06372850450233725 5.5990717770787075 3.621841896501712 0.5470255946023418 -0.322991749312747 0.49474632558265114
Ni 1.398487635490635 0.8445661283298889 2.6298377700303948 -0.36565740650207346 1.6291188401142007 -1.012247428363315
Ni 1.8197637050201483 6.693690382139228 4.706594859800322 -0.00252096664964082 -1.7803557560467274 0.047836402756988576
Ni 6.010750070867459 5.437507705408515 8.892016876571057 -0.09990561264840213 0.9095976773108722 0.55278435146299
Ni 8.789864580370885 2.3863230402565745 10.229634455812139 -1.1654736068117282 0.9893705237651413 -1.0626798739822536
Ni 2.4666737663966036 5.1394227649943565 6.889337907944263 -0.1243640028010826 1.255236988819806 0.8329932012822558
Ni 0.48607967019808174 -0.1374497736240781 9.110116115050275 0.18469391003939162 0.24282475274385276 0.40593322330298476
Ni 1.1099641500008128 1.0493901084051371 11.36143377262829 1.9167016138000343 -0.7993336042462815 0.6778878035332583
Ni 4.093610257007252 6.803243044686347 1.3670419806487841 0.1365284060777584 0.6807499555724018 0.6269894740214944
Ni 5.6044563381139705 8.02965173215125 8.339214050556254 -0.6370067490481803 -1.044165360117834 -1.2217128889204314
Ni 5.3984900683621015 2.814436503478419 4.913263937350048 -0.08665877494082494 0.2824729632630942 -0.17698471432059198
Ni 0.9734705218691684 7.366406383586874 6.9333269567390845 -1.10111838046411 0.24296384942487834 0.5970644043272879
Ni 5.087674681790376 4.659406855098717 6.762898789819948 -0.33331652827752273 -0.3935361351902126 0.23348727739301076
Ni 7.914342220200496 7.199267066595178 8.976207621027802 -0.04936980868237949 0.5258918979475201 1.3602799226947735
Ni 4.563501739323941 -0.03926915870016783 10.381470904822844 -1.4880184983950437 1.6508773148372147 0.4543954325694303
Ni 8.033973909306031 7.276221796399309 4.434991426642891 0.26176761239494273 0.8324154744019147 1.1337073701437248
Ni 7.433118643158667 5.948051261510819 7.0252258864619925 -1.0171042422349839 1.0427422545180622 -1.4061391471207332
Ni 2.15754729778872 5.204827475174787 2.638410390727513 -0.16725103197259583 -0.3679150921879986 0.45947927485024087
Ni 2.1910350905341636 5.290263115614558 11.433796643215672 1.085894364425504 -0.8087973207623426 2.3931689385678396
Ni 1.1098733479597462 3.0390625926695196 3.953262990252732 0.12530014146210677 0.8464367283816714 -0.10895281045233494
Ni 3.8552004179822084 2.696103283560139 2.684126494343425 -1.0333240465279558 -0.2066490741542441 -0.07292959828019052
Ni 1.255665105096633 3.4196684280052043 8.189691237551932 -0.18799726338101172 0.5050507928324527 0.8054569435351999
Ni 3.5773552525218446 2.750312102077031 7.464626043388443 0.40875012392648963 -0.07645946581031993 -0.746838876781675
Ni 4.336759962575983 6.8905492071720955 5.922969921727342 -1.7899606261263432 0.12429304035383111 0.24956309990895087
Ni 0.6341469264841031 7.218853066853291 11.302068306199212 0.10633542743414591 0.6898737722505409 -0.26808738396538345
P 0.23220624357935854 5.754697395263131 8.100197653896885 0.8466303324497162 -1.0806678259192422 -0.20065711823686733
P 8.41405309280353 1.5685780188170029 8.003806747202402 1.0448580153094844 0.11214200681359397 1.3228166356419928
P 1.865773099228706 3.344566059838837 10.357349342613443 -1.1654219276381863 -0.3050027689344941 -0.07324712952060933
P 3.9703464862590434 6.03310553337811 3.5961921359411564 -0.4506200246873981 1.0819736892148593 1.0238942685736239
P 7.118689335352481 4.101464633559532 10.216065906815524 1.547809502410747 -0.3384062840956043 0.2274870939455179
P 6.364305978169337 7.988718172038328 10.485197708415116 1.3769645824393062 -2.504363236756183 0.8768091700259415
P 2.3458434903489858 8.52170799269235 5.794776508169615 2.1884988425168372 1.046081089083308 1.2950857453856275
P 6.9430872681333575 3.951904591718372 1.5169243697357313 -0.12474298340705615 -0.1765219157515605 -0.45198630890730546
Ni 5.238451470981831 3.050467329027512 0.3272868768212476 0.09391597072387052 -0.34107148963259326 0.20732758827850745
Ni 1.3705206068420543 1.2403831215850871 7.272787663206161 0.5835792253566595 -0.8964521410678497 -1.151804593965068
Ni 6.841234618668705 0.6790548919345206 9.524226087498795 0.9534792091851709 1.5907921766198603 -1.3240947310234679
Ni 2.9109953939488764 1.57668664108427 9.569955811420868 -0.4618673154664432 -0.24181970851810614 -0.526529531531519
Ni 6.47806277521785 2.0082415016625474 2.6598732691744775 -1.155109489968585 -0.5016751914920006 -0.4551014574975194
Ni 4.465144968440361 6.688151457634152 10.460691145551593 -0.4513062521211453 -0.6526868787875985 0.7278211980285917
Ni 8.131068531818784 7.18111573858592 0.3223463377668019 0.31914743586599226 0.7443531342453439 1.1241022429537932
Ni 7.967724740143679 3.8561447592093034 8.176414163107141 -0.6104253990152261 -0.48698519357999354 -0.542739308522162
Ni 3.0844726934070366 8.358691088365088 12.51743364942957 0.41939089146978736 0.2389159046077498 -0.9862690020216821
Ni 9.276336515386376 4.924421692156338 10.11426592253469 -1.3861647608813352 -0.5810235488143413 0.74882428264282
Ni 8.64759594242739 2.469397827628608 5.906304115109938 0.3136540168515889 -0.5903589672826542 -0.7053541272743272
Ni 3.431381891302824 2.9136104927316007 11.708722523055737 0.1407218753338157 0.7396354170547004 0.23282213300518614
Ni 1.047564987379694 3.433724583962348 12.820746063347945 -0.5868532681222409 -0.40715321175301494 -0.24164924437851285
Ni 2.947189087518111 8.491670677507447 8.157609060402203 0.6955217145649377 -0.30959295940833775 -0.11525047053558862
Ni 5.728682610497487 8.085404185366277 3.547937207257016 -0.6563658703010825 -0.3000590517759736 0.3482433247906841
Ni 2.8877319110275566 8.456593849043333 3.6177085875923503 2.1612027258050457 -0.1172613303180303 -0.2778465202346763
Ni 3.599066020540921 4.366397748780194 9.419807372353594 0.4627247783707321 -0.8337563047005254 0.14915637925441408
Ni 7.406486404513768 6.172641029885493 11.654433798742707 -0.8897104514686418 0.9201921649972669 -2.61219890288494
Ni 0.6437583225310262 8.898836109855175 13.499376909750683 -0.3731606568576541 0.8710504131652934 -0.005191057282636221
Ni 4.484422241758847 0.4900032263925791 1.676626999564055 0.31113047909878677 -1.192748126256965 -0.7238267321572179
Ni 6.076744994314823 5.6874040026285115 0.3737993143373156 -0.6136277080026077 0.26006374232995855 -0.08510222908698246
Ni 8.01725725354563 8.857157973005505 11.739887599590691 -0.7901228842812908 -0.044216289505898045 -0.7917251957714043
Ni 0.12178642154005156 4.771937824592827 5.877638818765553 0.7275666588156244 0.7972386693904657 -0.661721478186041
Ni 8.073527278394739 9.033749782472258 2.237948873071747 0.5118511035837378 0.2434958106689484 0.8637268829206867
P 8.519555984319066 1.7705217581496115 3.5455581937810656 -0.6621328546918468 -2.06879599263685 1.1622844104504693
P 1.7585631293411113 3.06103668660769 1.8695422919533897 0.14075941343997048 0.06431665980019892 -1.250616459328659
P 4.774716367049472 1.060268192924942 8.270625820816022 -0.11630925081740615 0.17749456407747496 0.555253638939089
P 8.412863586065553 1.8035555406897208 12.420537883386757 -0.03239872804567969 0.3001966057951023 0.8401616940062369
P 6.436475440409246 7.867106998437535 1.4996338450757876 -1.6433043875859634 0.517961844467166 -1.2937891380613913
P 1.855866596548316 3.200472300869899 6.0367439711636575 -1.2596690564492306 0.16379752620635663 1.1667128785354681
P 6.97638437659256 4.07251694286743 5.903235006121879 0.20751579302991358 -0.4623589103908811 0.27679133949728457
P 2.323306423756201 8.290308071237664 10.373510289882516 0.09093400527741113 0.5785642886405713 -0.44010061321331306
