# total energy = -340859.8099742584 ev
CRYSTAL
PRIMVEC
9.42774092173728 0.00000000000000 0.00000000000000

0.00000000000000 9.42774092173728 0.00000000000000

0.00000000000000 0.00000000000000 13.79845180961952

PRIMCOORD
 96 1
Ni 7.836752897987657 6.9413155131789015 3.6095783442601195 -1.9010299687010483 -1.0442741177815564 0.7622876072365775
Ni 7.019216934658121 4.510259438451272 6.643126445065133 0.7551206571744931 -0.035742447706931996 0.21812493600432759
Ni 1.597756928932492 8.670834546261649 4.988650342478607 0.06320131524883309 -0.0788747601200319 -0.8017720384844449
Ni 4.296023458577888 4.006808656845102 1.5242045242423765 -0.8059264269724506 0.9175210459230069 0.08203181769177485
Ni 7.12294093793954 2.032988578767679 7.935972326758273 0.3273795939677975 1.5980794543098928 -0.9699478962641552
Ni 8.68639974617236 6.7935168220824815 11.04592283826976 0.28197905434581116 1.028995594355931 1.1491234475884788
Ni 5.7711820473293605 0.9252865546678093 2.51046310639809 -0.802337938290244 0.29148596539498184 -1.0776118127017376
Ni 0.727758416879076 5.033800735508516 7.236652689728171 -0.14246893993190946 -0.26834577983309266 -0.074530109998091
Ni 7.382816610585634 0.44041030780669077 0.255509685923714 1.1748604473432671 0.605308646613951 -0.3594371366239745
Ni 6.396222400860677 4.412276929261689 2.6377536331300244 1.2908030588498738 -0.3056992807808865 0.01310542703370646
Ni 1.4516552311637083 3.91971518817452 9.558807988751019 -0.19022486715994982 0.7271203153068251 -0.12260511112844691
Ni 1.60379068298631 4.791922619876076 3.262299030274114 1.4778631551285968 0.2619133939441876 -0.7882444363116553
Ni 8.244955215209881 0.30880564692627643 11.566110687956778 1.809675073836135 -0.39707423025045807 2.0605046991623355
Ni 0.13292077348340342 4.386576908088707 11.865785568006302 1.4193145081604268 0.5848046131233283 -0.010894535425316721
Ni 1.7025085559512023 1.9525416672970053 4.253138551640374 0.6382822733264942 -0.25568335387407576 -0.2053290697912399
Ni 7.779469945439221 2.9434914932295624 0.9065140373678673 -0.5685727246454981 1.5591447249179085 -2.085150265625157
Ni 7.44135345264838 4.831943379186167 11.774439245501847 -0.6200791200549064 -0.7823504394247236 -0.27663553064571067
Ni 4.6095806868215465 7.96140648564326 6.231546168346842 -1.3933872467717034 0.9689757621588732 0.39654535433018157
Ni 0.5988067222342 4.357756304741016 0.30051677729484366 0.584352098966942 0.02467487703886073 0.7029298341035507
Ni 5.4636208621766835 2.6378441394408316 10.925544731025731 -2.128423731601812 2.1526905745689766 -1.0493487040909864
Ni 9.369854381137204 3.5703325452363157 2.4608024822129533 -1.0090844572543007 -1.5197690513337632 0.6166708657043057
Ni 1.4667207608168358 7.896911311452367 11.84904755715138 0.39157669747099655 0.40497497315477354 -0.629945985546657
Ni 5.675877016501159 0.3531905074106061 12.034361114077415 -0.29007571531101656 0.5241656592850328 -0.6627982561899876
Ni 9.34696382669553 5.950987918133144 1.9961807934912459 -0.12076497259591461 0.9475093647549812 -0.13528142104453478
P 0.9577170399330115 6.319640863080731 9.100548139459805 0.524963986816612 0.3683660636824882 0.33426552245435337
P 4.0468388438959035 7.014163665638048 -0.020346007224289336 0.8181651351304876 0.5177852096799856 0.028236883358506205
P 1.7694360872450394 2.803593248847361 1.5713535983026117 1.1025545986900043 0.6407479612581675 -0.16814346187987816
P 8.411826225760791 4.798936858963639 3.9446185652575836 0.6966769112153033 2.558141201808588 -0.8003432764577184
P -0.15315081949697093 8.632463641575649 7.5042468536927975 1.9936071660088375 0.8611845761148071 0.5848776324531089
P 5.377319323725665 0.9920245883733937 0.2516876798402485 -1.6908466561413011 0.6985425036691324 0.6416882136842497
P 6.5281164933808595 7.2437480073858325 5.76590345530634 0.7111532504546075 -0.26705200072233365 -1.433589530022202
P 6.189255209074002 4.385247596648725 0.26990490321242505 -0.3191554062857923 -0.9527865539935203 -0.0850304953087826
Ni 2.128057916078153 4.09935135964554 5.234152481639621 1.1377635424909696 -0.002276197628686402 2.7731101086824372
Ni 4.974123136819969 5.339334956408737 5.63979988112968 -0.17638950393875427 0.7024292403180483 0.05742327511447529
Ni 8.69041596371443 7.810392934965039 0.5957097094112636 1.728562939745152 0.33286298567987194 -2.0713406134355745
Ni 5.090800855835679 3.4364586271672235 7.72833293705904 -1.1557458380010033 -0.018941316989193185 0.573249047075245
Ni 0.6586681618665733 0.9614692807352297 1.7697896275216305 0.21963134534652495 1.5765590637396139 0.3042743754089018
Ni 3.373971561747368 2.828793599762761 9.9751492745274 0.2941809957286417 -0.25469913558393553 -0.1848468906774881
Ni 7.16578059172165 9.107140958537673 7.99589881780154 -0.04677196604821622 -1.0665172454504728 0.5059817892871544
Ni 8.3104120189531 6.7657426979535 7.809123018291525 0.3546124615418216 -1.3349453005847267 1.0705186533003823
Ni 9.237818872506384 2.35315465324841 10.633528004754204 0.18810859214789538 -0.30281167482044624 0.2411411943938428
Ni 3.3327063406636763 1.1576228539285776 1.3524565434226525 -0.055466408498420605 1.7345291846309159 0.4759073384992772
Ni 8.860812949290542 0.974649262246539 6.480015217509007 -0.30077330423417875 -0.38263851444110225 -2.6366439233011816
Ni 6.9131077129773 0.6362461661381421 4.839379038283427 0.7915272208279851 0.4177950077375772 0.504067602983577
Ni 0.46213653627079104 6.409892624888858 4.771628465225686 1.0780769252636142 -1.9920709318699692 0.1537198302553804
Ni 4.404103078066907 2.980617936141963 13.328296842596528 0.17697725812142426 -0.8830086139684341 -1.2110253272995983
Ni 6.822912517613427 1.243330444714924 10.063045043932325 0.8586003603273987 -1.2720054665273963 -1.1287713662946883
Ni 8.012042880991787 1.546281464660855 2.4771671545357936 -1.0489434982327677 0.3776839986493044 2.321576313931518
Ni 8.568779253085738 7.905509410979058 5.728826979419698 -1.1820577364226545 1.6079869432315919 -1.0093521090933906
Ni 2.629368600543359 6.159312704581928 1.5961768395896483 0.28842506708147103 0.9196154665581905 0.3074473738202447
Ni 7.0143522204522295 2.6037534290367583 12.386359012288322 1.7357661423618107 -0.7506109422295977 1.76620440424701
Ni 2.6587548683335953 5.9207248704569615 10.520863674958354 0.32449378777957016 -0.1942365594225042 -0.20278213499967013
Ni 6.00579137487509 6.56037822208737 7.696458688495674 -0.9920182458006334 -0.8705863290446814 1.067185475162091
Ni 8.345709480167937 8.784523671472579 2.4474179187282563 0.9604620682609071 0.7904126476075678 2.360204053606045
Ni 3.5825226139731705 9.071683225730782 13.199501648447422 0.046448264160210334 -0.05546049496114965 -0.0709382788817746
Ni 3.8933552251519012 1.3085515549404159 5.723183533831236 0.8063511732146951 1.14959755901142 -2.0408275324483816
P 1.281767343585888 7.488850410340781 3.117222127920408 0.01103337499602616 -0.14670071862506995 -1.166292503168598
P 2.9981535338608727 2.4508731856981383 7.243690498167507 -0.9491381586076557 1.9959841508814462 1.198702286957871
P 4.369173298739725 4.926579040424023 3.611689215404885 -0.7989366259181789 -0.5259219798545071 -0.3146050679109485
P 8.774633971468742 3.1094008742281463 6.627258614677662 0.3924071637920919 1.562869224957347 0.3661865395326661
P 1.5238057308103818 0.9589237907437751 9.870653139281906 0.07011089788447279 -0.06820442489037931 0.6009395710119779
P 0.7444408040638125 6.487228381925533 13.296160502841449 -0.8792396338443053 -1.1894167478908872 0.3142106606860072
P 7.523667056779455 3.4603108111612233 9.697261903256587 -2.7248343043951846 -3.204579271472997 0.5157514670794086
P 5.7676937832669966 2.5546537554238125 5.818172735345683 0.674249949670355 -0.16694789890988024 0.2602756012304485
Ni 3.703122273123862 0.4005818744070648 10.425944238725155 -0.7932002376550339 1.6095956824796085 0.6686408310136935
Ni 7.588143375488928 3.107072222273001 4.674170138419528 -0.22697672996800267 -1.8582146733077352 0.04585999575690812
Ni 2.141332174996553 1.4575852800697264 12.140222386177586 1.0308683858986118 -1.4759250575656193 -1.0941604610890383
Ni 6.465676566664551 8.008347206633823 1.4801741468087086 -0.6400941297242524 -0.2104170258371086 -0.5583415338357933
Ni 2.018582990964188 0.5587454236390594 6.79868982340956 -1.1210038065341272 -0.1635931235050344 1.5797500598730856
Ni 7.506357724837563 6.074708159458546 -0.07343644347939361 0.04331666050976411 -1.5979395862979189 0.43915213325711466
Ni 9.408008447786894 8.520546931618028 9.58728825065911 0.8151250627525832 0.37644344137398394 0.5360706382527348
Ni 5.042483684701588 0.7056946752975903 7.378362945874659 1.6366434306260198 0.2707513039507918 2.026673609545503
Ni 1.6474034115065652 8.559464645265157 1.1953884976610545 0.7222737858478012 -2.0803847259157138 -0.8200857491919683
Ni 6.080864474141583 7.6106473925615274 12.842149736287825 -0.49853484609080595 -0.10558312264915365 -0.06614060038281512
Ni 0.4895241230307004 2.008325609072697 8.210630696836223 0.9509039922588268 0.6527979504441661 1.2735787245517873
Ni 3.994109490109957 8.43114366647372 1.946050667818796 -0.19510199274659304 -0.14725813379043673 -0.5348593915534531
Ni 2.7302265706492146 5.39883342802381 13.165695655812764 -0.10659253775027448 -0.9097324031165235 -1.1225544388506987
Ni 3.3558043054009494 7.031341009210012 3.9429489123780037 -0.9905126077893845 -0.5447727940124231 0.9576922188252539
Ni 6.4962507297841325 6.157021763589619 10.194572397338927 0.6397961388678595 1.8436334330594506 -0.7047571171202767
Ni 5.257888704422899 6.576348814848569 2.694230513847834 0.5757430171416923 -0.8171999430037411 -0.410590519569338
Ni 5.366006034874755 8.589228022683757 3.945184229700129 -0.08241568339375484 -0.5931864094291204 0.9060618962434718
Ni 5.239702592595063 5.297966030177245 12.117592980153555 -1.7280204369781207 0.1288102114978943 0.5840641354128779
Ni 4.272491817767997 7.752544317974057 11.051745410931696 0.7479652770766345 -1.2232879467170352 -0.015481383465050758
Ni 8.803718551556289 4.949799565790514 9.61062190891411 0.04456621664614906 1.5223848916900558 -0.9424422346447189
Ni 2.3980306990236833 7.718170775348711 7.84984237318816 -0.8994970985417606 -0.45111136250151984 0.3137087813489242
Ni 3.4869630341458238 5.3673636295368645 7.633068445515888 -0.11834196497671876 -1.3571727445243593 2.0460252745992378
Ni 3.7852473224407546 2.8624694895756346 3.5575579565754976 0.13986929752553331 -0.5563149903240677 0.16586906402340468
Ni 0.2702197897521087 2.024098219279006 13.287467183133595 -1.499631914264256 1.1754713414543885 0.3950199188245907
P 2.0660045267309157 3.5093067796263697 11.825908110354987 0.9256385328238188 0.9882716342740077 -0.3078682634077472
P 2.915792791026253 6.5606044878643885 6.091795939493774 -1.2443766490665342 -0.18982943149374404 -1.9041191491493337
P 4.069550271264103 8.803313158705796 8.665592722427395 0.352356061407477 -0.9172780766742653 -0.3219309121484004
P 0.5584644769659285 -0.06640429168448261 13.221524850743858 -0.15920399329840323 0.32969692924706445 -0.1953591030627216
P 6.91114674290981 8.435565276866283 10.614748888035766 -0.4944894723768387 -1.23365463466334 -0.7072135490805691
P 9.351479714495184 0.9353798938709622 4.160261164044765 -1.9545803911236792 -1.264814348095596 -0.14189789791978788
P 4.704065504208057 5.220366296400718 9.777527802105645 -1.5605644880835705 -0.7175277865223836 -0.47400266527739654
P 3.572133243711752 10.01791727748012 3.8716940480986937 -0.21855096779815267 -1.3028849297150724 -3.1707672080195586
