# total energy = -340885.61821454373 ev
CRYSTAL
PRIMVEC
9.18944743637079 0.00000000000000 0.00000000000000
0.00000000000000 9.18944743637079 0.00000000000000
0.00000000000000 0.00000000000000 13.44968520671471
PRIMCOORD
 96 1
Ni 6.744153862137659 2.2758217975718336 11.615753800691122 0.023771905608617125 0.1946638767679099 0.49566138119775277
Ni 4.606192155204342 0.8376567307080082 6.479587832174917 0.48113979054281003 -0.11651673884252191 0.4101984263372419
Ni 3.0332160563657675 1.9607432128682714 4.734638575875515 -0.6452705317188693 -0.742737710129108 1.1844298361992571
Ni 3.7278647679740065 5.167253869238116 5.276069792267508 -0.05726103850499816 0.33942598360937026 -0.19267281447981013
Ni 3.818344067562518 3.6102306511720035 3.0476048931823114 -0.2157826610243961 -1.1891465249486357 0.1716036525143367
Ni 5.421489122378045 5.130670678941359 2.6793791391541344 0.5362457303780184 -0.5051924606166396 -1.0692618980751456
Ni 5.179687191637391 3.1951616887696197 0.8993969523427195 1.422888084444298 -0.689877886015599 -0.25647191121364216
Ni 5.721285655972965 8.542639001388793 12.691096508627123 0.5520217622653525 -1.2853885727025218 0.16614391495134612
Ni 2.4591788425331944 5.701032113794103 11.838561143553505 0.17302058746652138 -0.44490420524954344 0.5208026563500707
Ni 0.8676088157251514 7.661104496998555 11.481417863149517 -0.5064505013934568 0.45482377835610055 0.9421830674460612
Ni 0.7009701325088014 0.3208725313205192 5.15691849769158 -0.17246728606621264 -0.5814732347572502 -1.4305168046341492
Ni 9.089254904031835 2.4830897847969875 2.056363089360074 -0.5427189968071879 0.5118099659331572 0.11426496669386772
Ni 2.067708381181319 1.2755504426856445 2.6027428232036627 -0.560708234295757 1.1324192474599208 -0.40321890969561525
Ni 1.8742061862356278 6.799253789045307 0.7506482854212014 0.2956642651423876 -0.06209085579347371 -1.0743966481985496
Ni 8.08522506513877 3.887476280725667 4.110465574647553 -2.7557117107003317 0.8587685104741468 -0.6242216814683701
Ni 7.94373514275767 4.252775195741155 13.281698620432296 -0.8979420953498148 -0.6957657122549437 -0.956694630798675
Ni 8.166174907722072 0.12589543005917128 7.277759345081594 -0.4694001335083787 0.28433315640028456 -0.5060373251154381
Ni 6.857744622061849 1.2369271950550826 0.5374751592649509 1.1213264799808687 -0.19950449268966286 -0.2754240268361127
Ni 1.9107342398476865 6.577760537168212 9.613874945259576 -0.17418658275016455 1.361966566368577 -0.5349900035940465
Ni 0.5597283252088406 5.102128255162982 1.7256082262522825 -1.3903541163723345 -0.07046185346598832 -0.2498837164731632
Ni 6.671998320763599 2.2463696184959474 7.565569163423289 -0.8036954807594029 -0.2792950797557448 0.11886981245573076
Ni 3.6645770433887868 4.822594453194372 0.5863970206522509 -0.915203967754056 0.32682037903021777 0.016811672240700078
Ni 6.372661259541157 5.7176190664405855 4.614977266966135 0.2256893786151468 0.5028242174947792 2.0991692056120685
Ni 5.263182511164224 3.2383612812300697 9.824537514372603 0.4541172392073792 -0.18311988068405236 -0.6594110848853095
P 0.1925437355767006 5.816313732049015 13.02721709010072 0.7922934095700483 1.6162970057591841 -0.8726195574246262
P 4.395303525684056 6.520170270001729 12.766010722125541 -0.3951533590786614 -0.4804206529885984 -0.33086600985450115
P 2.571115501916462 8.687731187170124 1.3717060639637577 -0.00568342353802247 1.183194421130259 -0.27892329823862283
P 6.424995162766485 8.45045965402211 6.139875095693281 0.44420023720398333 0.7276669318389145 -0.49430461005954224
P 4.806981581977546 1.2763866824035557 12.70482829995102 -0.3092206636705836 2.519154279022429 0.8896415459039195
P 4.318112167107629 6.493980344770441 8.57908343102906 -0.9363415210636198 -0.3360501251586019 -0.2782926066331594
P 4.801945764775178 1.363208581907136 3.678031313399709 0.3066665297901622 0.3741484746922202 0.06213662142974461
P 0.36909875153588645 6.241913801228611 3.835056915639059 -0.43108195465447047 -1.8323007816554506 -0.5077887605889062
Ni 0.9280790557223317 8.10507427162985 2.965091006643092 2.6234150833157335 -1.4644736211955682 -0.10350618551546689
Ni 1.7837085077522177 6.984972522001209 5.177173877759932 1.8669512818497849 0.6566934288438303 0.027307686676017486
Ni 6.611678787704592 6.120659042131475 9.309844833224636 -0.8552448135916045 -0.11338204986828214 0.7571526000028573
Ni 9.017273962159317 2.765821514478048 10.553644816027255 -0.20399106770610673 -0.1486825249417891 -0.14591858904340677
Ni 2.3640313036403 5.523308200119332 7.429605774738364 0.5237506832348011 0.7056680589703201 -0.8843707844232833
Ni 0.4840238192297556 0.5209525327506159 9.453891259886207 2.2897026051513727 -1.0819973433639432 0.8240815006149226
Ni 1.4401793937447724 1.2514649009203096 11.991591174041783 -0.21340901858589698 0.06995483192258274 -1.4518777868084285
Ni 4.062526065192612 6.896652742563348 1.838692647622002 1.416404276492167 2.0971444618725563 -1.84888671103859
Ni 5.720568879071899 8.272000584551373 8.429872534900827 -0.42587572786318273 1.2179189690956378 -1.038553156137379
Ni 6.640322295404916 1.3816242345960834 5.258813847846697 -0.10166090477661202 -1.1234646093697944 0.024036986344545697
Ni 0.7027574800377436 7.778058594689291 7.03688830536758 0.5078378686592866 -0.4745179143509183 1.252148065481837
Ni 5.242818695615967 4.8816090847155404 7.404589341946386 -0.06285807297680142 -0.2811107928082449 0.1328393872619454
Ni 8.573074451341784 7.6521815435250184 9.355507197601572 -0.49354921995075646 -0.3260318216906514 0.42108293446022965
Ni 4.9799913091106855 0.6875443497849729 10.63790745441613 -0.2602866569740421 -0.020899469156828523 -0.8026971214018757
Ni 8.052685231719826 7.56704131290471 4.66227994771282 0.07423931823054956 1.1289050636590754 0.509447893458884
Ni 7.5477894204978515 6.778954299629198 6.946372247989271 -0.2571537677720152 -0.6937754212977922 0.5583219934517674
Ni 2.5876473178782464 5.759715925207086 2.971680759409182 -0.7879945250843784 -0.16115186105339344 1.0698776772822738
Ni 3.348579513940267 4.749032926360529 9.550540354492362 0.6359114591014726 -0.7281423288134363 0.43911382382001146
Ni 1.0502527595644253 4.1312171848781825 3.7966716746974414 2.4180541318452935 -1.0666409155125307 1.5448763879243523
Ni 0.6358904656709146 0.6519343219731267 0.7011686245737122 -0.12182272443646762 -0.8850243588468824 -0.36984624777244046
Ni 1.2655339449656082 3.6250348510132677 8.484976137587456 -1.5165595432575303 -0.11929173048449779 0.2748033625329784
Ni 5.256262857234694 3.352126640655803 5.044317441257707 -0.8671582771997388 -0.6233102253976942 -0.4805782616123852
Ni 4.655925444801439 7.192258888121263 6.52563891017897 -0.6706684029666836 0.2501886493080917 -1.1203556314271672
Ni 8.6634434775609 7.589564648603617 0.662314721812166 0.3156378800508371 -0.007040451786549166 -1.3230081828275086
P 0.17900216581500752 5.903843219006213 8.35702962285754 0.6165114573083059 0.01402073975912424 -1.0533053747458891
P 8.801900882283638 2.0237093067927563 8.303862236748538 -0.06828361486774692 1.4607524635902391 -1.2923912292726
P 1.871697467081894 3.5583837886615033 10.776560594369545 0.3059746459294601 0.8810185801215987 0.8278941894927935
P 4.459932909596914 6.795403410563936 3.974812789286424 -0.08428230428884839 -0.27288069158896877 0.40363002909110485
P 7.18798579505721 4.275509888731402 10.479093585703094 0.2532590607032993 -0.36714710367372255 -0.2788446224818875
P 6.426493042700765 8.15929201158234 10.370648916350662 2.2518922191718187 0.13713312954129284 2.0349186231631147
P 2.8209673886229445 8.989705619810595 5.891621253898278 -1.4857307308021317 -0.5680829294932732 -0.23331449926057238
P 7.364322102167096 4.162231570020497 1.8469916376137128 -1.0077505689342259 0.2754319972559127 1.0655307131674874
Ni 2.743371694358737 2.066522942460324 0.29810383737470836 1.2263383035075848 -0.40202103273277223 0.636132316863027
Ni 1.512261419539235 1.2015937696114687 7.093027558781776 0.3366335084658977 1.2401980922088125 1.063630153710665
Ni 7.463963280862832 0.8412479667713019 9.580950073992495 -2.416359003531058 -0.05354245200283037 0.24315513950007803
Ni 2.623283995087697 1.7579596759985099 9.756078887707508 0.7300999667604394 0.8315492697468776 -0.6155508931672495
Ni 6.690386405110198 2.1920048473842644 2.891386124429034 -0.5695762262093481 0.08110133545770548 -0.6126964544375899
Ni 4.357470570534157 7.365581056467687 10.590699424978174 -0.46677760828386705 -0.26344782831084307 -0.1117457998164398
Ni 7.394233753615461 6.7972780578436485 11.80566292168403 0.5224363352987519 -0.6811998986256269 -0.036778345170614075
Ni 7.679465013002805 4.4098687998916315 8.06599155162681 1.5995159296461032 -0.2210994452516192 0.9220369315154896
Ni 3.1958508973283384 8.47119104746835 12.484643625390746 -0.3459324172693204 0.20604897867639999 0.9223225810767083
Ni 0.010459429087105749 5.240447818173977 10.845221388878532 0.1652409435211025 0.11891686364358228 -0.4149487965380338
Ni 9.03039649311731 2.740403502832524 5.879570212512907 0.5873965422202206 -0.6325713389846461 2.043568071307997
Ni 3.850801195954415 3.3132644673915523 11.930650434335185 -0.8527441586569379 -0.7001173043554201 -0.37809486093447786
Ni 1.1230423728125052 3.7963904776054846 13.172823884939227 0.8706470070792877 -0.6279135284976605 -0.9653368798547054
Ni 3.055509655878436 8.902608036883526 8.238443479299761 0.44569584791290334 -0.6922790392579239 0.5070313135975912
Ni 5.926476828074516 8.538007519874206 3.4845309563435074 0.007983018205476575 -0.07709864205621561 0.1807452098042887
Ni 3.2613992259861533 8.704501928765598 3.492345662454626 1.4996694523704108 -0.5117516018913961 1.3783090122823423
Ni 3.451409430901006 3.1330410240104962 7.621465815424816 1.1596477441585704 -0.5478550324821726 0.4778580344677447
Ni 5.822544177419827 4.583310431054901 12.047622910920818 -0.7869213466248577 0.8490165732937056 0.22196436435507577
Ni 8.377385167903093 -0.07276480173996612 2.511258198064169 -3.0164210570340892 2.5678640855233064 0.38308794327369505
Ni 4.645302443549731 0.7071684148135395 1.3600860076637706 -0.4743219962900283 -0.9649931233620412 1.1964271177704493
Ni 6.147565744263829 6.0712473831951135 0.4932775928114772 0.38951235874280016 0.6818010225447355 0.46455694648346446
Ni 8.088082983295587 9.309737316689477 11.787022127532568 0.3973135999547738 -0.2104136834029989 0.504531429993873
Ni 0.2790798432645991 5.151576671889142 6.056904493615817 -0.41030564133906755 0.4290368991999837 0.11353143096195285
Ni 7.692780522357238 6.393392652987398 2.51533279906331 -0.3796339232868236 -0.29204132367781965 0.5256831243708237
P 8.450514790706807 1.6328177806302038 4.146363232164571 0.9059953046715945 -0.41173311781421346 -1.6572407951613977
P 2.0699414169115657 3.471074848443096 1.8949660669689616 -0.6621577943925112 -0.04258466743974601 -0.7768040556851977
P 4.577006470104493 1.4806864781024969 8.619405807493049 0.6773794964382721 0.07871792282719346 -0.6317537281793572
P 8.709399904256221 2.103602362919357 12.824328793530032 -0.3720625386974689 -0.631855286754228 0.07116453595996776
P 6.7205829294295 8.235251984200524 1.3701061811627866 -0.9156469688287456 0.010510669723336738 -0.19509890742279948
P 2.3024252479383525 3.652070205409916 5.977322959757756 -1.9715918380800106 0.5185447135538296 -0.7986242368840826
P 6.877648965237628 3.9841308890002924 6.154589238949539 1.40090206709151 0.5518710956201012 -0.9966760562876189
P 2.4283850041296704 8.949226103795217 10.448670082031786 -0.5416280777358544 -1.262511153883716 0.4000829351697948
