# total energy = -340870.1527842546 ev
CRYSTAL
PRIMVEC
9.24066018965808 0.00000000000000 0.00000000000000
0.00000000000000 9.24066018965808 0.00000000000000
0.00000000000000 0.00000000000000 13.52464024781052
PRIMCOORD
 96 1
Ni 3.4959542742582004 7.2873324538777835 12.581999709881496 -0.2734820726183935 0.8848965750197664 -1.6016620294548287
Ni 1.5727141561770615 8.208395255469773 4.3187287940429835 -0.9296168007452764 -0.593861581119274 0.4498294104653027
Ni 7.667899801966717 8.771659695610628 7.480627659068865 -0.1814617762553391 0.0017406368401905506 -0.758959571304609
Ni 2.869012444944831 2.2168805760313632 2.049348331370389 0.5686264607015691 1.3057044014417385 -0.4143664416720025
Ni 2.4522586716636794 1.1690081950438702 4.187025361025978 0.04888824106027064 -0.19823385350735537 0.012251306563527287
Ni 3.7236995845971634 0.13293336488449337 10.895828728242218 2.5301138633577267 2.2725165802903895 -0.8757532179576015
Ni 5.122208815410671 6.82943002089772 1.7321146198959643 -0.15812670107382445 0.6732359065835438 -1.6782850174262065
Ni 6.22972965774029 7.8604289564304155 3.527131337576898 -0.13399484102262726 -0.4392007271068629 1.4051346171156187
Ni 2.8957087121512437 6.181142266611414 0.8835891524392829 0.31143566904403136 -0.3452515891522118 1.2218211323635215
Ni 1.5847547363674237 1.9778339383149535 9.642514294281423 1.6007767986363979 -3.8719006123443185 0.4929732928426285
Ni 1.5956864373384125 4.185224356360513 1.1183629088970408 -1.352611350405922 -1.9787045378653922 -2.4989428370715605
Ni 3.412307818476804 9.237148710583236 1.820349063447518 -0.021439915041330818 -1.1831013471958205 -0.3685920636503652
Ni 4.492624157291129 7.3397916816143045 9.924746233196329 0.30823464560823044 -1.3151015263859223 -0.4520953236813439
Ni 5.751275996561174 8.344584104929142 11.757334551027679 -0.16913539347950227 0.7854715015522086 0.9265283916279399
Ni 6.0986324120298745 3.855591527081462 0.6183572560233874 0.7087983770691858 -0.7245677240883005 -0.14328089431024355
Ni 1.960304405988693 8.217201604603629 10.404059275770459 -1.8509471931120445 -0.2564120045099842 -0.3951767561174291
Ni 5.006645119431646 1.4329676525555346 6.517199202834701 0.3723240198889717 -0.9880947423765112 0.013383363285441466
Ni 8.599275180298878 6.728124663547803 4.3530809481931545 -0.21199465473687362 2.5470715742579877 0.27736109595782554
Ni 2.579631931329032 4.44785315880893 6.748592725805403 -1.4164251024277736 1.1227621839861308 -1.7174406045797455
Ni 8.22245954023549 8.164345028480167 12.133198403094438 0.5775985822931924 0.27834608557891416 1.7425499980528634
Ni 3.8873239540758626 2.9151972644317308 10.990081613756919 0.7562959084295169 0.48311979708731634 -0.6606369868726106
Ni 2.8868099564157728 4.617040405704818 2.864883717984697 1.5728373919136525 -0.2214411448617541 1.3284931172014798
Ni 4.108221935235195 2.259378372113847 13.133453662270007 -0.4786733312801885 -0.36497117906832627 0.7697332648813453
Ni -0.13374007451658748 5.592891081394013 6.3300998602818686 -0.011747113233599124 -0.7759833595561153 1.6003494812909922
P 5.831050615734925 1.4753268387355967 10.392617490358559 -0.5410107558668296 0.8292669014706041 1.6816948144387036
P 4.3880291249237375 9.271154339977354 -0.1825788116018544 0.4692258127140435 -0.3671252492968516 0.2473072139952386
P 1.214398317756886 5.858828040180226 2.307763392785187 -1.4135614077267333 1.9579775897306861 0.8463518819773488
P 7.92558485122876 2.252771300098414 0.4858498855723366 2.0133398685510744 1.0668458324344854 -2.410078569838985
P 1.3406626982028647 3.4131025152506878 5.296993130166347 0.07314994182111273 -0.8836035672399557 -0.4778310378845513
P 2.990443960126374 6.789750626164477 5.75244863633566 -0.31566436241339824 0.7459240782768896 -0.3748570707234705
P 6.373107740805263 7.266300711350336 8.214014500913947 -0.2966695664784504 -2.2591005639947994 1.2150208216122365
P 0.045260753470755574 0.28372707772902683 9.953675043897746 0.32523452260033664 -0.09316006639445246 0.14832462738173813
Ni 8.385427822842727 4.109450943036667 1.594947184525497 1.0212090084319767 -1.4393187191964951 0.3716485910885019
Ni 7.738784906065159 5.519575683673112 8.335803629643738 -0.2909015536464216 -0.19257228434620383 0.9124138066034286
Ni 2.3401879452256797 0.4232906162793567 12.681027244501616 -0.6543082164411054 -0.10187199234615359 0.35284199990496007
Ni 6.9721982203920385 6.399924136593775 11.307789371097627 -0.8030416492254879 -1.4916013306502958 -0.1293671124426288
Ni 0.33594512423533407 7.316117110280683 8.303655372942073 -0.06243204118297635 0.30140322450869383 -1.169264184202412
Ni 1.8948805320456652 5.173993474955407 12.341599315451434 1.0741153695127048 2.275443781239513 0.629088008421736
Ni 8.631090773234732 2.808864987953988 10.418855420820964 0.48075772461304295 -0.9302325799524044 -2.5354548159546657
Ni 9.147615954279 1.2533107376967292 11.953145063914707 -0.4563278737054528 -1.0610256262082822 0.09996294824889881
Ni 0.21940191827919495 1.036644978891338 7.938382241486345 -0.09794720337045068 -0.0016077108067520697 -0.8365258970258624
Ni 6.756022216575204 6.540132673223375 5.809725944280358 0.3100151345474209 0.3945951725823462 0.22466119446094854
Ni 2.4007881945644334 1.7916438767220064 6.782877423136394 0.3871004068671978 1.3716897071936118 -0.1339148797143113
Ni 3.569528410463622 4.430480717705414 8.769850374351016 0.6773663838121496 0.283798366942737 2.8638476816783256
Ni 0.7360259743871903 2.3257447933933424 3.1972924415762463 -1.354602669804338 1.6859746727609803 -0.4288821187896742
Ni 6.534911700232159 3.7891142178800297 5.870289230978466 -0.5556552452528818 0.7485617730100528 -0.7113491685154975
Ni 8.103606169238992 0.0060036569068905475 0.6502421539104519 0.6006716620625719 0.11506586532860828 0.6016481670432283
Ni 7.449395151789199 8.351708653913617 10.017687869034123 0.15184678160238366 0.27656842485320116 -1.53998923503538
Ni 1.8371264060366368 3.9124770310353147 10.492497013845565 -0.6713793129907792 1.9506859411652793 -0.04934615453329566
Ni 7.475195074959952 1.636474711291029 6.159634630085651 -0.7495413633145027 -1.0456026067849928 1.4398365393731785
Ni 0.2761441920005454 0.9169719613385175 5.187700146172878 0.7346191947870315 -0.4082680420837485 0.845104382723493
Ni 5.133944453815706 5.4434788472436155 7.1871295072851265 0.4985464160550317 -0.6026308426714718 1.2759989039575057
Ni 7.096531302864276 1.6729660782685738 8.686024649762489 1.0201348015311915 1.3236481304043528 -0.30396327192638617
Ni 3.856423186495992 2.920316590161171 4.904764993019687 -0.6379973950962238 -1.0316854824832684 0.13601315700423672
Ni 3.9352552583332754 8.914049028038328 5.024782687196529 0.4810153491498039 -0.09107747283381089 -0.791105045688902
Ni 1.39148632909081 5.543813935276581 4.598932408052452 1.9995009057854534 0.23585449207360673 -0.5799025478360206
P 4.537977317363499 1.2281669013974383 3.322571767649015 0.3169247171830606 0.2539733131615045 0.0489499475361415
P 1.5638985663830431 5.227422972008879 8.638471288505677 -0.9348034871525384 1.7488599994312914 0.49886600417797955
P 0.9093216187908576 0.2566879820306239 2.58858890322352 -0.004238977782012055 -0.07413287455967232 0.7161468470144569
P 4.414873242692734 3.3959888126316926 7.053667576639399 1.147623723114501 0.07706907436986082 -0.6891497496003227
P 1.6744168619139204 2.567545147837863 12.401702417273501 2.3937430659037546 0.3442375460654007 -1.6124334090387198
P 0.9925115859602787 7.287544989061496 12.267876404617411 1.7146535287529117 -0.39128436304155834 0.9988224132066607
P 6.1974243098158786 5.251106784002662 4.086401964395976 -0.259378800447792 -0.03943892272191272 0.9491363588354428
P 8.070681697083764 4.72502676035146 10.686696879666453 -0.6536847239244935 0.9639968208870431 -0.5167117741101488
Ni 1.8896318370739649 8.838599037820131 6.756585896845053 0.8823300998441709 -1.0331720943311238 0.16648150079642296
Ni 6.643803639574621 3.193008471525401 11.668978130761996 -0.5908991560568404 -0.048006095565633455 0.7999159591123126
Ni 5.58231976616932 -0.04513970082264066 8.833767096621711 -1.821920209752075 -0.15267390548936932 -0.5513638169663795
Ni 4.319075318799038 2.015535831773647 8.753850171281474 -0.4541480924453147 0.4240312184552762 0.8070615690181585
Ni 0.7719074577940798 1.710972913512595 0.5491262300938445 0.2518932907040243 -0.12969030011000243 2.8330404664894826
Ni 4.727891365001508 7.6776579390972035 6.858575063046916 -2.149624019828511 0.06649721239128548 1.5791309382318481
Ni 0.016755165004731322 3.921126288946427 12.450350796759443 -1.7142030714790542 -0.2550287510092124 1.0546590605603063
Ni 7.081552192742574 5.828620322112465 2.3373556828861974 0.5140717653841405 -0.03017832335559319 -1.2518338766755277
Ni 6.402141895032522 1.2301998466329562 13.116385238885803 -1.6676401361178503 -0.30819942149492086 -2.0016588326687206
Ni -0.6244366863436017 7.6733240694814855 2.2911144953723124 0.39045903892678563 -0.29586969628497434 -0.039333250381983875
Ni 5.956030544418462 9.520282537929898 1.6891732721257313 -1.611865452350392 -1.7737395362817903 0.8845019106845089
Ni 6.817075258261869 2.3119946910731124 2.10954661199212 0.025740342188897602 -0.8394322720393801 3.8035231522111848
Ni 5.068520579872678 3.493773478460099 2.940175692914132 -0.4165860750311406 0.8152178795767057 -0.017075210314731883
Ni 3.3696252091910908 7.177710502382567 3.1882985070411123 -0.12097991682019811 -0.8519296331754423 0.6624010207515689
Ni 2.685141789052406 7.101179354925482 8.309025120561888 0.8345415196059821 -0.5522559897633457 -0.675845576292249
Ni 4.1815096109756125 5.123641117735696 4.946298988247332 0.6649415277852355 1.6315297635485386 -0.6672218391789799
Ni -0.35132250680999405 5.989241477038695 0.4039887253341313 0.634638763036636 1.2980335151600417 -0.5921924209469672
Ni 7.782539431929599 0.3766761060949495 3.45733108698141 0.6313210115173127 0.3349131833406813 -0.23696315175675317
Ni 0.7510817819882321 3.3550064848156858 8.088640920107531 -0.6131343133059569 0.7415496033582777 -1.3588370196006596
Ni 9.27217081259511 6.724123457697897 10.44904280943637 -0.21473596492743663 -1.8314386907654718 0.35923324814328456
Ni 5.399798246660467 5.517385647214849 12.903304856223052 -1.7678162288188197 0.8683571826038464 -0.7891533212791699
Ni 5.912553238358865 4.100977257668623 9.620698943772284 0.13880923169213516 0.36768009335905716 -0.21989385497929226
Ni 1.192719729018137 8.312722308692482 0.8730631164493813 0.41474542227797606 -1.014603073079685 -1.3716295433796377
Ni 8.51312450561373 4.555673181572665 4.126962918108621 -0.7513732743169188 -2.5829598035141643 -0.4783701982174729
P 6.054110911372034 8.818084772261724 5.836180106190541 1.8939560925734027 1.263187096904818 -2.5145915993524115
P 7.924244955505351 3.4326280301718204 7.534618064194137 -0.7389571600407532 -0.35290987702841803 0.275610431815306
P 3.991484675415666 3.9394320367262488 0.9264270048157076 -0.8638083868908994 1.2765478344824401 1.020277754866959
P 4.181029096647217 5.483324573859764 11.011613275999101 -0.25228846925991394 -0.7375034583133621 -0.04209512939783718
P 3.208375689373883 9.397196944579457 8.628490451465302 -0.7275728294632114 -0.7179180799822669 -0.24934738435371892
P 8.021234924559874 2.3654519101070695 4.310600709364977 -0.6473227862622077 0.9506144860428661 -1.1897455919852156
P 6.832091331024216 6.965415575833538 13.680714203077256 0.58122486619187 0.37205585382924955 0.23324687924743054
P -0.01355235219277463 7.988347415045292 6.164882400991335 -0.037718854707012466 -0.44684564524663045 -0.7207087553535265
