# total energy = -340861.90983307705 ev
CRYSTAL
PRIMVEC
9.30119572334825 0.00000000000000 0.00000000000000
0.00000000000000 9.30119572334825 0.00000000000000
0.00000000000000 0.00000000000000 13.61324012039267
PRIMCOORD
 96 1
Ni 3.1656155244977686 5.510995785826223 5.426537206418124 -1.0660978985248672 -0.07273625132246182 -0.1264666509663822
Ni 7.913029631487387 3.7303283334250557 1.7794136511915057 0.8127064260087616 2.4785714725040604 0.262064060589439
Ni 5.3237534108136195 7.2925189482517885 1.4325897277049693 -0.3302707994726634 0.3589072322624335 0.06234050991043457
Ni 6.861938685648914 0.5114941562468631 4.274897542354092 0.17553229814478158 1.9320678118434598 0.1260205645678991
Ni 7.251547180235767 4.598604273507593 6.879682577100484 2.3085711599211014 0.8921311450949926 -0.07584111550003068
Ni 6.4888491150113135 8.885516170628152 11.195746282465269 4.15045212906582 -0.5507007294610837 -0.3983569536176236
Ni 3.9001681708762574 2.5332086116838526 9.565697746152056 1.920789924936795 1.1627783193677523 0.6793726156089009
Ni 0.9538190389346022 0.24718486222169533 2.341994626014531 -0.4229570115544909 0.7280747088002945 -0.48428913480506913
Ni 4.502532220877064 6.085493452858585 13.072427189962687 -0.6094249827751698 0.1217767016898806 -0.4999713214270164
Ni 4.432494215619257 9.062173784686788 11.222605345915863 -4.020489806241353 0.3013464031288294 -2.4159561116656847
Ni 1.156194459704769 8.071921961343842 9.32315046021476 -0.31100423793356763 -1.074419273906369 -1.6928413179738264
Ni 0.7402440481603284 8.762861300065776 4.580025134662644 0.1415356294843627 -0.7388489165976629 -0.07452599623303294
Ni 5.182375232869575 6.703157970143467 10.76371689353847 0.5174365680913153 0.8222308205594291 0.6662360782269429
Ni 2.8221316604651605 4.744986494855184 11.868758496176063 0.7343757113176578 0.12180061294928056 -0.8016779361087419
Ni 0.7738929846306029 3.274923178918717 12.458728702616972 0.07528781409972195 -2.0016156381356107 -0.9682214004913519
Ni 4.327269786206035 4.337240668229457 1.2983874224111762 -0.6169958531438923 -0.21094641597801733 -1.2270294160373383
Ni 7.439840590387035 5.819795490282954 3.4973910431095896 0.22480723312050963 1.1989869080778253 -0.5864712021924738
Ni 5.544173151663487 5.677440686767584 5.130748944930204 0.7822589081521818 0.04158245142747677 0.8094951181603156
Ni 7.944188637810581 2.104395576305279 12.676186942686748 0.11642289357713498 0.016375098923913735 1.1972696682764026
Ni 3.7169532136958754 3.4951941006339062 4.732098757792074 0.4094314662642304 -1.1196187532611428 -0.6761978174253451
Ni 5.851754399455042 2.3865752580464923 11.956781293859699 -1.347362443302157 -0.42248855655850465 -1.3415419799656378
Ni 2.6950680230379493 7.465084036106781 3.5420702678182754 -0.4047924248303223 -0.02795817577582282 -0.49713282353695676
Ni 2.7439737111714884 5.488245060612332 8.927495258162025 0.39985307854717583 1.0232301526270635 0.7719076468248448
Ni 6.147402212884609 2.7329052880298166 0.8181750482736164 -0.565827043579561 -0.9976744156451464 -1.4508336618146305
P 7.29605340270039 1.9517908548889664 6.487443704308197 -0.9628894467554772 0.5221103194179009 0.7700731647192673
P 2.9830237474438506 7.103834887871992 11.363352902776711 0.6547995542552272 -0.7119034983570707 -0.30533135591850646
P 5.132911472980993 1.0904815105485401 9.144789797183655 1.9734461176799305 -4.235755675530331 -0.33096885398095255
P 2.166378745898642 2.224511220382213 10.570953328629313 -2.253413798022667 -1.6059922813990661 3.1603197874339894
P 5.9764834367069914 4.316285073827619 3.3763694625503033 -0.38414158134919 0.034978058737081694 -0.21474393534723665
P 1.065033438518612 8.812408770717614 7.063243538768992 0.6173637780062722 0.9087543554739704 0.19060436198655561
P 0.5460434484819392 1.3653690546905346 -0.04860060890744903 0.7150662123557685 -0.7472857345111065 1.1457429611520202
P 4.3524667259461935 3.3848819170538818 13.061277846416532 -0.6728484413371381 0.05990696076827748 -0.9618242387157564
Ni 5.317047248557195 0.162443526457708 13.123163353452764 0.4134608991385976 0.16307093245297724 2.21023083487729
Ni 0.8358370892011129 6.646960144410709 12.224132078949845 0.6928174282598972 -0.7508845076059584 0.20487989806896328
Ni 0.744523528401911 3.7392388791138975 4.479559197080748 1.0176135777712345 0.6126506888013191 0.14097847142931205
Ni 9.17922003411099 6.93473914609418 6.685911692673477 0.5260122255754683 -0.06063458296292139 1.8109701384984744
Ni 2.588718148918725 0.8532842725029183 8.488740174467374 -0.37908113610714717 -0.6582312056445954 -0.3428252390989064
Ni 5.608286295121928 7.829690916067739 8.752769502495429 1.8817268974970625 0.5068240826827916 -1.0851443736333568
Ni 5.1630845525369455 5.126865695634701 7.755612471303426 -1.3624892716412664 2.6777949436181947 1.1638823510652083
Ni 8.931919837059919 2.060800871040559 10.714096873558475 1.5813675408718508 0.9082380779591843 -1.1905665452246141
Ni 5.018850907446267 7.939798473337581 4.1745953058203416 -0.9114265029894948 -0.7292324765538215 -0.6762433259512999
Ni 8.483955639287478 8.300861597654022 12.871182794616072 1.3022593803159312 0.5695433160888836 -2.4773946785871397
Ni 0.8556579377010314 4.4290434719339125 6.797621845999883 -0.24176725801361587 0.9824802244032111 0.7764839533416175
Ni 2.2572235264236085 6.793258654995044 7.080722346136915 -2.1477383727700237 1.7342929002503937 0.979463034843442
Ni 2.8288006179379153 6.455383412100611 1.341291978938827 -0.773023762707159 0.7817909673768277 -0.20661873513694093
Ni 6.169734384282218 2.9996077797645238 8.808351589058457 -0.46644696441732564 -0.7782785833481951 0.7787179848784589
Ni 5.551725722748393 3.287135649158226 6.611461200072469 0.03717403794713598 -1.2283296229060006 -2.5906923962717316
Ni 1.982363885869366 2.4181621193818854 6.129688085259975 -2.1730130881764125 -0.9450503616915273 -0.03501276862975905
Ni 4.925057647815494 2.597740308958575 2.807826421144243 -0.15562373214631262 -0.4840723908085728 0.2854796112999019
Ni 4.140576181752556 5.548554014940569 3.103260307067711 1.1583742767627856 1.8874517157959816 2.0902212523901613
Ni 7.118409861874513 -0.28936857606574984 7.1755796625806365 2.082765824553381 1.786544915576575 0.6008814640805329
Ni 7.496103524491214 0.8790262623238353 9.274101533664094 -2.247437782944891 0.31419266296387827 -0.8809941546415666
Ni 3.115026319903185 0.5042466643880473 3.315722874810267 -1.6246674892110666 -0.7929241011755118 -1.1951287106739998
Ni 7.896240972856531 6.487565549974715 11.173434573698678 -0.7034605097960401 0.0747748790190454 0.04647011853708126
Ni 1.7946099450813071 8.920116619440774 11.397372026844495 -0.1903130559983819 0.7841802935446107 -0.7296338257572982
Ni 5.550702591197481 0.5124084638055408 1.8443080951070059 -0.16025531738105306 -0.649290708621856 1.1393676537532957
P 7.083372256853775 6.843299089030501 7.226220953872357 -1.8225506442472224 -0.8477263937273721 0.5079515114190155
P 0.9645991250028355 1.708536678061952 4.238006208987022 0.8492981090898664 -1.793785142078756 -1.2368350892738504
P 9.01776057418134 9.301140110195895 10.386630599015172 0.22042144534798816 -1.7938260226190204 0.7395971076175972
P 6.533308831496348 7.398254943440467 12.960417538127741 -1.0594557106180014 -0.5149731941524873 -0.34134685478116694
P 6.666213619959668 5.011158818422602 9.503443911757497 0.23109306612922137 0.7549509643658482 1.4272265639186517
P 8.794959727176625 5.0076708699535875 13.24368173931292 -0.03841588077403706 0.5401985443781793 -0.048710063611193524
P 0.4823153745344773 5.699438015112167 8.624804579183825 0.41499713327746596 0.06429814785743765 0.5668169182966561
P 3.570133836140168 8.937314530691994 1.211996054491447 0.7312721326916696 -0.2666812476464762 -0.022402278954600126
Ni 8.08070229028984 7.483732933921109 1.3235936633472525 -2.8285263806692127 -1.3237183215206556 0.8201628822868068
Ni 7.636942233072051 4.143245624980842 11.631832853051227 -0.074118219271653 -0.11041396837889372 -0.9572430471029773
Ni 2.043258815540397 3.3717207248308014 8.910220146984692 -3.4313986499275284 0.10307012641931282 -2.9896905830177802
Ni 6.525477224533922 5.191834549117541 0.2799232116116592 1.2098521329271035 0.15249958469503413 -0.03473380393675953
Ni 4.017977118365684 1.7352311103448081 6.583036745348982 0.9298623410971792 -1.835584080392413 0.8598974818722674
Ni 9.03839062672607 1.0074776381819177 5.871363180688045 -0.513714896265354 0.25233037824144283 -0.4118362190509811
Ni 0.8074535597396623 4.556730289487587 10.532237100623254 -0.8910700508203299 0.9499660538255899 -0.2848790016014255
Ni 1.7157637072897496 8.607466219874253 0.05887098943941053 -0.2913257856680338 0.5764899226100458 1.004520234922386
Ni 7.685243343470961 0.5823674088980497 0.6802057586332877 -0.06259144957897607 -0.4214380038068032 0.6686202621884033
Ni 4.586494116423175 4.589610017055495 10.215715543315923 0.5193142447300023 -0.5742695179199594 0.29502791710996934
Ni 0.18807018144924967 1.5340741462398169 8.051904857610067 0.42524606469898374 0.04828557447926523 0.6981362693696492
Ni 8.319045435672484 3.548787591509801 8.950541761406088 1.5258687364735979 1.2269638529067257 -0.1118589283555364
Ni 7.649284920054403 3.309523627731339 4.4609912196709 -0.30247563163726615 -0.46556533314332077 0.4653390760651276
Ni 7.492513262867108 7.6714589711214165 5.291534998275436 -0.6555145780443807 -0.07898660310754785 -2.12510058076585
Ni 0.40406348316204 5.190430068534018 2.7807627313834677 0.4411673639149305 1.3343169229721086 -2.4049211940077613
Ni 0.8446378807781297 2.6279412921022804 2.0779253028440317 -0.40632454520413247 0.8512727163177339 0.025007577787931126
Ni 1.627969719025681 4.753701715429761 0.14950091233868568 0.05928321114134951 0.9991851958627179 3.0923845570445967
Ni 8.079976797008285 7.586343727281551 8.996881249586025 0.5638472941453708 -0.04900908290885108 0.6216078979946068
Ni 3.5318594149401843 7.986155633789761 9.19074793633098 -1.944972949940902 -0.48531191964262865 0.5998666496627734
Ni 3.049378479118378 1.4667520901898827 12.548970765646493 -0.09362877850075489 0.790447100389929 -0.2884644049598387
Ni 2.85794126474704 9.16994674178137 5.642225428904824 -0.3100069070173048 -0.8729594572625481 0.3862856242753864
Ni 0.9817877350581379 6.409509913836135 4.683117729971605 0.7148841782519495 -0.09696041397714913 0.4355903840477853
Ni 5.227281406758643 9.00258102244419 6.1431655181442455 -1.3711706014653482 0.3992200729488673 0.20215658560052926
Ni 2.956385122336499 1.8791392135783782 1.4068468077644605 0.7503180935795272 0.2583840406346905 -1.014299682906653
P 8.587933708447773 5.287283421621606 5.297347315604202 -0.20872678261887923 -0.6785670889884701 -0.6108275195496512
P 3.3635821784031013 3.7591713419648247 7.188226498669486 0.15087541882804986 1.2825181931332623 -0.3687525004876294
P 0.6925698383662494 7.532926959128088 1.821151837751118 2.912331488211326 -1.437044064229706 0.8440314613742883
P 4.538611559840548 1.2772681269611925 4.4326067600898575 1.9233998517558164 0.1790426252908852 3.0759156128552965
P 7.645573742883372 1.7982932186645864 2.373727516125827 -0.3791006764911729 -0.7920697235950166 1.6940425373707793
P 6.736698082621508 8.169035747917118 2.9723562058462174 0.9502064519711699 -1.4745981112240798 -0.6744517812685158
P 2.4546786145534853 4.378742604412768 2.8306692281977153 -1.1499539139095745 -1.0348011452941146 -0.6797562242005648
P 4.165540591594781 7.0445490650946665 6.4851704920259925 2.393055552918427 1.270281284747438 0.046928546230738534
