# total energy = -340891.1647789455 ev
CRYSTAL
PRIMVEC
9.07164123333495 0.00000000000000 0.00000000000000
0.00000000000000 9.07164123333495 0.00000000000000
0.00000000000000 0.00000000000000 13.27726392053334
PRIMCOORD
 96 1
Ni 6.522664068924697 2.0754463056434935 11.297902390554091 -0.3706980542497745 -0.6497457938814036 -0.048703892963606436
Ni 4.6511936102914575 0.14962311019184454 5.900721436272884 -0.28618435067641035 0.7331935180840986 0.7197404779029862
Ni 2.7464302293309935 1.392279168145241 4.9084181754151555 0.21213992206548626 0.9942486777930489 -0.8208159424897735
Ni 3.716941594271977 4.349026321518295 4.830268710027598 -0.6724936291008805 -0.8688526341830263 0.3322929721090149
Ni 5.192815933873722 4.41699105559883 2.8121778543606366 -0.6768380221125053 0.6576470510063512 0.12265704741230489
Ni 7.017213647559832 6.297995808882182 2.565671433032474 1.045246766107471 -0.5233189950140213 0.3044877769712885
Ni 5.358736247052176 4.294578332469794 11.675893175972385 -0.9125297633560026 0.14414478497243563 -0.440422515329106
Ni 5.319909623738683 7.979125096869696 12.552577465616844 0.20191515901368454 -0.3382268210949465 0.14939703451031044
Ni 1.823336331693662 6.479727992255827 0.4021177217184269 -0.21783620111931515 -0.05774569145090055 -0.15672005053428492
Ni 2.9135570707572738 1.5730951157818158 0.3792354145581572 -0.5378171886301963 -0.4779986738106671 -0.10142796283019952
Ni 0.595371796276761 9.237924139913362 4.755517481344066 -0.08056320356604835 -0.18736528622396764 -0.4029715695714995
Ni 8.728705717844136 2.407831230458068 1.314795561204228 -0.3864866845425989 0.22849393794347747 -0.5026221287863021
Ni 6.947053576366712 0.7396063517377143 4.849600376915695 0.5383938870692727 0.7173449810876162 -0.3944157095816884
Ni 0.7089578127506498 7.298298442739405 2.4905491742336343 -0.25828402472171647 -0.06590431600229295 0.553100340041512
Ni 7.373484203024973 4.093287691184025 3.900727597159215 1.0861715293462908 -0.9894736250019088 -0.3096577512080022
Ni 7.55076221068672 3.790231381596675 12.703699210895461 1.051083427393906 0.6836563305859193 0.6800848111845771
Ni 8.224295265484288 8.91663383199421 6.719901501029048 -0.9254001915607675 0.6437034443420655 0.8384971618196203
Ni 6.93604060423994 0.5663715744523278 0.1426878406770863 -0.14679147856666333 0.6126851415836803 0.5105832926149076
Ni 2.0206082360336652 5.925187651944962 9.242050829386566 0.16357126912816347 1.6029676356401297 -1.064318438026941
Ni 0.11059963226949587 4.9728286405671325 1.4067130560784418 -0.9570497001452487 -0.4531052530030971 -0.21755980752947693
Ni 6.375875846533195 2.1092835264283836 7.258799610830696 0.3361552832778985 -0.8669050235383522 0.25610372924094604
Ni 3.3621315730015717 4.237817074976213 0.4575953420160123 -0.32525586275657536 -0.3933047359056968 0.4878704243984244
Ni 6.2441737630599965 5.970573071673328 4.7803329551931455 -1.3602727236059218 -0.17176023269685906 0.697288062436741
Ni 5.135492234640553 2.8704667761920657 9.34309076641126 2.179734723170962 -1.8090587804083749 -0.31196223097146275
P -0.05587949399216201 5.801087603597162 12.491037267664957 1.1561140199736992 -0.7195885257061543 0.5313986866983623
P 3.955153814269409 5.906826650639703 12.589488158359355 0.044737709227006824 0.7877893510521078 -0.42404947328772136
P 2.2605168528908224 8.447321558512845 1.450010184057563 0.5142573990323853 0.2882808281941228 -1.7869850884377867
P 6.484817182835002 7.884299233903354 5.906071890111739 -0.5562432565458678 -0.18429616038034066 -1.1518513880426033
P 4.787277296348866 1.2884995955502974 12.608103165611524 0.5142671692243981 -0.8186515878486029 -0.028334071058002813
P 4.151836061946941 6.102774095399385 8.23826287107209 -1.0871374928039859 0.1696709542679981 0.6093082546916473
P 4.704562074065588 1.2175140050297177 3.838761939246253 0.17099687216827325 -0.48119558348140995 -0.2208315363022132
P 0.06166538659714933 5.462570249492886 3.761209387833935 0.4620856021248364 0.40264349680811945 -0.9678946132795526
Ni 1.5165515776713014 1.166476952982589 2.550190677732363 -0.13477671349397433 -0.775315129844497 0.07084854738144572
Ni 1.9206750392062268 6.409558849421746 4.649657781476743 0.1469776264355404 0.33793680065835346 1.3737069947339566
Ni 5.926112959322993 5.561941004580737 9.272628609574134 0.3822135110885418 0.746510804018295 0.8551196008676499
Ni 8.736344039533378 2.445614615061035 10.002187211783337 -0.23269126385427666 -0.5013016102026656 0.4893956027936991
Ni 2.6703554482312386 5.0968289008643595 6.9015883261978885 -1.2247503901951744 -0.31495628060278014 0.1153923954300916
Ni 0.5019620164644468 -0.1562889519700582 8.906202352053045 0.8209586387152249 -0.22501240715278023 0.45161375605923515
Ni 1.5409996500614564 1.1596369356979221 11.478446188961833 -0.6802982127469639 0.006189159529847406 -0.6986939416453322
Ni 4.070354582834373 6.608862801337036 1.4816366459402335 -0.1687175892157933 1.1312799916491547 0.47306626950605624
Ni 5.811910071263751 8.154461773365767 7.920896955032706 -1.4020672910442047 -0.05422122323740985 1.2340148462162361
Ni 5.553830957561516 2.722871177755026 5.222704269348246 -0.8121037594277561 0.5047574299617501 -1.1920233322757987
Ni 0.7832028438685517 7.371343295758154 6.644048975132841 0.9545603580644915 -0.6329438918327164 0.5754614813455315
Ni 5.146414490357714 4.404463119431556 7.146673221387448 0.8879063083803677 0.5238373294113366 -0.2898921385453007
Ni 8.094588943022531 7.2015856784531564 9.541984680155105 -2.0116097732338454 0.8769629219949865 0.8868842948737564
Ni 4.468445403130169 0.27753869072788134 10.561199871088025 0.029145768326020775 1.1106191208656937 -0.6043604237680689
Ni 8.344630582833233 7.2017852545543 4.766909648063011 -0.24653691148811732 0.25974055466258494 -0.33069888814901754
Ni 7.046197540430535 6.195622340636208 7.221251181728621 1.293562623872882 -0.6135094372571885 -0.4659129462907266
Ni 2.2070848876299647 5.301167613513058 2.6317928096697134 0.4693299423920756 -1.6285876502010792 -0.39414265842595986
Ni 1.9945000533476298 5.077243228029353 11.607395029403339 1.1374017882761767 1.727739415402592 -0.09179018263011933
Ni 0.6821520208747059 3.264529787901135 3.5784747881340886 0.5103536931026049 0.5874176252661433 0.5609458042278598
Ni 3.6115200546630746 2.646959686192571 2.5551964092146955 0.7071549279284918 -0.21358951002781923 0.5160075489542727
Ni 1.1560627091592501 3.410002622353278 8.134103196720876 0.38266191147987 -0.07867678517661289 -0.4039850984376785
Ni 3.5943111517598747 2.734428448339463 6.995418122986702 -0.47321667904099146 -0.9946117175594225 0.1019133871070503
Ni 4.2567314463801 6.749491379515954 6.14020368600487 0.10794031002742055 0.5018461698522261 -0.8344918973149692
Ni 0.9094138630679984 7.6736557307866935 11.620115284358988 -1.1434436235948824 -1.04793254046975 -1.135377044536664
P 0.06877664594655285 6.125988424618831 8.181210413903656 0.7343057773116709 -1.765694811600443 -1.1428571549637931
P 8.69565772982286 1.6144708702053767 7.891925762459348 -0.17622109668169006 0.7839622639965337 0.04128985988772244
P 1.5795359808641942 3.3940456059027095 10.324864573605444 1.6108205560256452 -0.11942362807667174 0.025336936102891845
P 4.01341189252157 6.107672781518378 3.7141284784099406 0.5173920880066252 1.2543360742720915 -0.0972082683218971
P 7.06899457416577 3.955915832110141 10.200895156887483 -0.6913040769391643 0.17230530656705162 0.8290717547406625
P 6.179683467467561 7.990700510736055 10.548865160873222 0.8246000921225539 -1.0606967821139537 -1.0433498061950741
P 2.486255566566747 8.352042113498449 5.739946557847564 0.521231002136741 0.38156147932683965 0.22047183896994932
P 6.943597281160534 3.8510113760360216 1.7639243407112488 1.7365145904920607 1.8604980700252733 -1.5869969712434862
Ni 5.444862406336826 3.0022958626387197 0.5807474038833774 -1.284155471626369 -0.5394318414154838 -1.145150064763028
Ni 1.6775732047307639 0.9985699504336544 7.075307529110598 -0.665622355902344 0.3611662034999393 -0.5799920222260334
Ni 7.130373296908549 0.6430877205680323 9.08591065232827 -0.6982221442152362 0.4743425651153185 0.2177837506148249
Ni 2.7382657524660066 1.6973765969488372 9.23986002809446 -0.5550528357821923 -0.43632006312495825 0.1887014885368879
Ni 6.390118322842116 1.9282045012039368 2.4739389996338663 0.5257006078723204 -0.8719636690081821 1.4585773103157913
Ni 3.970847753132106 6.918505122262141 10.630626953691488 0.32219624999464513 -0.6503993683050024 -1.2005606803228486
Ni 8.197824217159809 7.461134397991088 13.760024670672033 -0.589866601027268 -1.388579798080731 -0.206005012812342
Ni 7.831030558179796 3.8853475370737716 8.138431276623415 -0.16647121638377782 0.6633204472420448 -0.4379840810909425
Ni 2.969048298516301 8.259538590618149 12.409541273926852 0.26318634711934025 0.9608757587595581 1.2783643188658886
Ni 0.05247399997536639 5.148464681214921 10.185068772066755 -1.359006969519621 -1.258220239817846 0.6613065021358095
Ni 8.63384356831395 2.3353125326150628 5.764762031696644 0.33278610969534944 0.46708691199416974 -0.027607734414939546
Ni 3.50773141042717 2.720866345102624 11.430144236664475 0.07905679422385094 -0.012040218993985715 0.5990917191699617
Ni 1.204949782298599 3.246477222388553 12.68784561115185 -1.0829535366296255 -0.5171254646087997 0.9054337757411697
Ni 3.102628211668446 8.18268364839574 8.003600384182734 0.09001046502187723 -0.041849589045934374 0.5321733600808577
Ni 5.543888439068155 8.240342998344468 3.805303913053537 -0.48818435609441735 -1.4450710482992404 -1.2998011485834258
Ni 2.8947243441220376 8.376390397838032 3.4821611760501274 1.1874241429408905 -0.3145089086527164 0.43609252049518443
Ni 3.676454860662603 4.332642937942555 9.67269886192764 -1.8528158708896674 1.6147096066674063 -0.10514063579509633
Ni 7.078764731480871 5.98533263151703 11.66979884757472 0.04141790082515447 1.009042805383088 -1.6822635424579802
Ni 0.5045238478718604 0.15500168611767864 0.2133559237640278 0.7639086877797683 0.8590680439924366 0.4709181128148019
Ni 4.770077465086627 0.36758017025134043 1.6005604159556315 -0.8289339436112176 -0.32267601784454103 -0.21584179639710568
Ni 6.041631235321596 5.611463092587362 0.4410922127795856 -0.315659734427708 -0.37631231511275837 0.28638489672299067
Ni 8.018405302231242 9.027543714384574 11.133224892187307 0.48918708632731883 0.46865682758445093 1.2513952464762126
Ni 0.1584942678877008 4.867552247213609 6.0121837815977806 0.07879017082602559 0.1172379332792626 0.21092044783608838
Ni 7.938674649824167 8.743737426916672 2.692788709163934 -1.1824189764168154 -1.7706678393350022 -1.1355644779571217
P 8.464603034543734 1.4876856161330927 3.2627145525448196 0.2838330768354144 1.5889556376317537 2.3896359857139164
P 1.7691332769511103 3.1442670436798794 1.6453316855909308 -0.36081781902158505 1.1602509249602082 -1.1480826650287905
P 4.542270417271572 1.0287331566293003 8.26919898107762 1.133467743329093 -0.17172192325975588 -1.1744832665095062
P 8.487708504071646 1.8402095838813013 12.312696970846666 0.744521284392092 -1.0810426927601575 0.4238134460175153
P 6.117225219450413 7.742935852806587 1.29525433940993 0.8106225468965395 0.307585956280638 0.8483822821438164
P 1.758274522720678 3.237813805270706 5.675392760768402 0.5938173581448999 0.21669514553633648 0.9012541904421834
P 7.084670369746545 4.1652258040055194 6.015237295945286 -0.986355133977585 0.0181275628386462 1.255227218627793
P 2.300722365630402 8.617387611610521 10.170702921440762 0.38032734980942245 -0.4401903447136419 0.09299448735086566
