# total energy = -340860.54939082486 ev
CRYSTAL
PRIMVEC
9.34393260010316 0.00000000000000 0.00000000000000
0.00000000000000 9.34393260010316 0.00000000000000
0.00000000000000 0.00000000000000 13.67578985943517
PRIMCOORD
 96 1
Ni 0.9640415785572455 7.5623905388501385 3.6016693541858285 0.1978589866664399 0.18947127682337692 1.3250797206445566
Ni 0.08471676671211718 3.39518338964482 2.5884581324594986 2.5245314841739424 -1.6775072587199173 -1.5745602881420302
Ni 7.397498156765681 4.357776658618391 6.144778577597302 -1.0785122130288198 1.919919863627016 1.5434828500109354
Ni 1.9077694472118665 4.318868522447956 4.080951436761388 1.4655452569931922 -0.5682827042089051 0.13780290191480785
Ni 0.5312558399772923 4.755669348951165 7.4695931390544015 -0.9550139006621423 0.25268236226422286 -0.3469510883418218
Ni 5.186845127910041 3.7042806865991946 7.162106736114384 -0.5740221777958437 -1.4494979737223423 0.5454821613746218
Ni 3.6645783161409375 6.320619245741053 3.0886771652553024 -0.602151331931892 -0.8685798401376138 -0.763504253252498
Ni 5.6085087832806595 1.1905852292422154 7.247115967923076 0.18954146793968002 -0.8645954015685691 4.614574044894394
Ni 7.033832292271599 4.518819340390116 1.8230788435115837 -0.2185285992006495 -0.2447481950188108 0.7587148022836546
Ni 1.63881368555725 8.528057961714218 1.5697349247756904 -0.3739672119193495 -0.2805556916357233 -0.4826323159279365
Ni 1.3687459958996842 0.6566701059906422 13.330011547386478 -0.0356966820706611 0.5866231543893059 0.4699002130732488
Ni 4.043970019533878 5.377059567876794 12.34977226132408 0.9100669036378068 3.249718072793164 -1.2127420528803887
Ni 3.453825911884411 3.5945829155519045 1.964171294366522 -0.2019853501299876 0.7764700693845465 0.3937114844258123
Ni 2.994478175539881 1.0512017836960124 11.708800896827182 -2.303230978655111 -0.8718253436581049 0.5766768418098713
Ni 2.006544160818417 0.700164244378285 4.983143655342805 1.6919211201524025 0.1499372232844966 0.5617094218667618
Ni 3.239130367987172 1.603951472288303 0.6634752922473492 0.8942538478649503 -0.8207560357861154 -0.48064253919141736
Ni 7.897407905385875 8.827493632155567 6.889001333904222 0.4869013756169357 2.0786425464136262 1.1824606282880281
Ni 9.042450806171148 7.558101673695904 8.639174141760227 0.29454197861248627 -1.9115419239759661 0.2800625540493886
Ni 0.23077364906257722 4.9880716455004155 11.788394385186214 0.44194100885616144 -1.7233032340081094 -1.211026869961495
Ni 2.2604748785340183 6.800561009972144 7.570357175953624 -1.5332295477140434 1.1724775489333872 2.7281739102913787
Ni 3.498826292239074 8.219399829601343 0.07251919683774473 0.18536265397164206 0.1761313651813612 -0.23513921117413694
Ni 1.8846432135370759 1.8162643133220786 9.860669100697882 -0.9750132266022047 -0.8042261564518924 -0.1762303526530707
Ni 9.166650360920771 6.086899454667299 5.414888479809073 1.936069476803685 -0.71161399214111 -1.2300568900097526
Ni 6.465581019167599 8.042033297231697 8.741510762549337 0.06409451648706381 0.24571441558682197 0.2628911844764247
P 3.4080780169059155 5.090985721336433 7.359558052033108 -0.10375558252211163 -1.6209882405872662 0.2597912053948622
P 1.3217833896574624 2.644641331586683 0.9469085433790246 0.19049149055777514 -0.36251886087309176 -0.3270011275824562
P 0.4909489170670116 2.114447896768511 7.439753289664323 3.2795120162261457 2.8950004531320466 -0.17233615980498707
P 5.953739068364494 9.02370687697857 11.323568301042277 1.1720623157728396 -0.10633928408888783 0.5828086657392221
P 8.797294041352771 6.215546721428721 13.232516952573238 -0.8635587327739386 1.5910261470075375 0.6689542484890544
P 2.624888257651932 3.644488860625463 10.962403807358191 -0.2537200595001179 -0.36873630253771333 0.5411369970320488
P 6.311835948911032 5.418920386811365 4.152174630120065 0.29365083425678457 0.3092679719687513 0.4694320151875786
P 3.4735883297519594 2.6404272178948323 4.678515561445664 -1.2341161476807907 1.2375611688065975 -1.3011921153936814
Ni 6.073238624916777 6.9162295540772885 11.848499232908672 -0.5526820215571707 -0.085803111808749 -0.5327474874167728
Ni 7.625919937943028 5.601510177615036 10.222776397201276 -0.42189103218382173 -0.634878646961584 -0.8336431761614287
Ni 2.525225870429582 4.039886720901198 13.221207056314666 -2.2275042772457576 -1.7615316813616888 0.5842345995524713
Ni 7.505168294395828 2.198319037562419 2.776842095991144 -0.2484654959693979 -0.7207195539868039 -0.5816046181287918
Ni 4.446151575020885 4.727516079431107 5.230989604020417 -0.638179686310359 -0.8311363505791749 -1.926743828527385
Ni 7.888699360018236 0.9774874978534166 11.315895997821926 -0.6419412102353202 -0.5275754562975301 -1.092058327144371
Ni 2.192348264504564 3.732742305901583 8.606721728759858 0.2641101444851903 0.9721181644425966 0.8923610017176116
Ni 5.164045931883177 6.226993039106143 6.813223907699852 -0.35766178989110664 0.8278425103192517 0.5547121646133221
Ni 6.564832273346843 2.8792020766122475 9.240074984846633 0.3036115450139223 0.3989894449952999 0.5440893947921532
Ni 2.2099802656941923 9.198896273006309 7.119082597546475 -1.4743222318548737 0.9630375422975672 0.2597076445421205
Ni 1.2347259677794726 1.0416896601077548 2.9831411818761944 -1.1225914627362215 0.7650340596334632 -1.5826348376200483
Ni 8.170409589941979 4.0196944821249465 4.161734407765591 -0.658442293214137 2.0100897370448934 0.030361385900676746
Ni 8.947273506691788 8.552548409577502 13.326743039693772 -0.9931091648719671 -1.6088320648407066 0.022411792036296885
Ni 4.197229205284956 2.493297652059174 9.562249115751662 0.3938960896327926 0.9744576112090508 0.5604310693749702
Ni 0.7547477622104698 7.259796619123099 11.252823517042852 -1.0133463178544484 -0.5235007720075243 -0.025682492367768678
Ni 5.13961154761668 1.563081110230309 5.301680193209614 0.610241050918562 0.30913941681068696 -3.25024566316186
Ni 2.0280912698503637 8.180510381296504 9.613560388318023 -0.7680260523822515 0.7693720248871847 -1.908137269169791
Ni 4.195808927499676 8.32934054290138 7.499775910778163 2.0799458386060823 -0.4349671486414896 0.36431503354156614
Ni 7.96747805743729 7.974598134229287 10.929745827836268 -0.8352974239354002 0.31207793061372063 -0.5554174182104629
Ni 6.510674838850242 4.818890398261724 13.195400982713439 2.1090520119434193 2.7324727947770486 -0.4395689090795591
Ni 2.9511783909544342 5.638241177443561 10.131600169745973 -1.7851246381902803 0.474203468434293 -0.04640249852393944
Ni 4.954153169444055 1.6345061325374204 11.891154286131066 3.5483187948560566 -0.41348815283210727 -0.271177592854933
Ni 0.5468228320185858 2.734978473876734 5.3525401538218365 0.1257850515183253 0.1259262050818799 0.2351816343762982
Ni 5.072615549455771 7.40904725770388 4.408773975042744 0.9673335985697598 0.46063678549345183 1.2770713110860779
P 0.6519149785897934 7.959956191534985 6.210176763249771 -1.1270145315045816 -0.46656112139768685 0.06024814615778012
P 7.430398144147071 2.097264404353182 4.907311099934927 -0.8150227328467641 -0.16303005191271278 0.8663357812984434
P 6.466169686933867 5.03794955877558 8.1238842797547 1.4698994201968296 1.0476142378983828 1.389649376995826
P 8.702621314244498 8.917382265671321 2.696072206492858 0.38164092641452335 0.25440808670607795 -0.15294207154909145
P 6.526129703697961 2.4247412171210163 0.8430525991169787 -0.007190604211168261 1.6075948499994959 -0.42070703917804964
P 4.904929331464743 0.14982996241425015 1.3511448296882886 0.0482925164578007 -0.31791844855489765 0.20245071980218038
P 0.6495107846808948 0.3304425770378863 11.28989837359834 -0.4133308013186366 -0.30250957019899516 -0.7981041027145545
P 0.40765055935361494 5.397466717107397 3.112787315053711 -2.657663462975642 0.6615893234835509 2.407137227822474
Ni 6.233197410483945 0.34764195413897214 3.3010348571665076 -1.1155918914899368 -0.5452803297764608 -0.4303327351932718
Ni 1.7440357127943484 5.987283787108938 1.8019765056808168 1.768537937476193 0.038534408629772345 -1.168650204767497
Ni 8.533692353191348 6.694769002834374 1.7927456344697763 0.38966688204279337 0.6356273522021505 -0.5325543975693603
Ni 3.8479716851652275 1.2440792445101658 3.037871399453306 -0.007394749802174362 -0.08555705723621396 0.16692758719490608
Ni 4.844819811775884 3.5061893112838156 13.127664945074937 -1.1004750904531562 -2.890430831483493 2.9811632622730593
Ni 0.3707130586102553 2.51702189743303 11.821285028634804 2.316313779980998 -0.4141445554691835 0.6821164969026252
Ni 7.346854041001089 6.807316673385022 6.382449917851285 -1.2823053057915077 -1.6229255668192952 1.1614434026064127
Ni 5.755068369215646 3.4178143948813227 3.6214999827628014 -1.341328064182619 -0.7210232012701517 0.2950988795572208
Ni 7.453356187031499 8.092116777028416 4.42099957671551 0.9413613428757143 -0.7691622228692238 -0.7953864466730753
Ni 7.68837478476416 2.824988578518859 12.62164613319148 -2.0930067855550987 0.4975418860499173 0.41635801818073453
Ni 8.816701389774 1.2334178171877674 1.1844247743485632 0.6616500015181572 -0.2523591745968492 -0.7677730558311808
Ni 6.745020673421455 0.4408504869778165 0.13225682800124858 -0.13520094551558653 0.5403579527741791 -1.16400910645106
Ni 2.8425458282461045 2.5190401869173753 6.753502161222104 -0.14671331703056023 -0.8698826181094375 -0.309439464549609
Ni 1.7431106634473568 6.407340286038319 13.292116293531333 0.3358282389557829 0.8430973795957931 -0.8073729296109903
Ni 5.9550472189562 7.687776773065095 0.4403122764486577 -0.3851186005504787 -0.7637168834839363 -0.5838049682142205
Ni 5.017729288200935 6.366497955778719 9.402105320315094 0.6588672965666975 -0.6211864941864721 -0.04484569555978083
Ni 4.053267232667784 8.8029377767627 10.30150744056306 2.6398524029361505 -0.3825549535883605 -0.24546039059448696
Ni 2.587895627705065 6.116248747585488 5.5550783067557346 -0.36782047559166325 0.43799642238611664 -2.6156107567799665
Ni 6.2200785288357 6.7678479012467125 2.45908484211968 -0.17046671069641608 -0.2719628077603897 0.33485430507828784
Ni 9.081125344021638 3.1884021568273986 9.727083565452771 -0.003557378333955164 0.7697247802409132 -1.3465216925684165
Ni 8.931024407556249 0.4974906044188181 5.10422887729089 0.6402406826044458 0.13471295013557444 -1.2548297260790582
Ni 8.950114062262347 4.1956127049109195 0.4416568683782749 0.955517065550806 0.4116510996233685 -0.6822753910779927
Ni 0.33787847875845145 0.4562137812841159 8.51802070910272 -1.4190345150261625 -1.0419562682816572 1.5747150685523397
Ni 7.850155637226918 2.3905424230807197 7.052440734438607 -1.2029456356152572 -1.6605667742108368 0.569514005512845
P 0.5586008593103328 5.547511589975999 9.61011434590216 -0.3495841550892947 0.17246857161779328 -0.587851113259136
P 7.2357640239669125 0.72531343950382 8.742002253414507 1.0188834456225937 0.502717773823902 0.6934419492177736
P 5.908682624413044 8.734157087437394 5.906628827984067 -0.18752803705407706 -0.09862546038439789 0.5662142517156507
P 2.6506307925101336 8.007367306551506 11.725718087157771 1.161143611977807 -0.4326999498738677 1.319410181063605
P 4.156246716033388 5.44788657848484 0.9332944332924913 -0.21458992626787557 0.40608671816171354 0.1342447522499043
P 3.524381948441318 0.7555046207670992 8.592868413993699 -0.25661203633593227 0.006871787419168811 -0.44390558878170006
P 5.883052216748417 3.6993284022163104 11.274034244494073 0.8967431899457072 -0.03176803644021626 -0.9717972907680683
P 3.142065594082636 8.190938210298956 4.72603880365576 -1.0604975216189543 -0.37076438871133566 -0.3647919731779847
