# total energy = -381173.3468194847 ev
CRYSTAL
PRIMVEC
9.19305979394473 0.00000000000000 0.00000000000000

0.00000000000000 9.19305979394473 0.00000000000000

0.00000000000000 0.00000000000000 13.45497225716164

PRIMCOORD
 96 1
Ni 5.938118961251547 2.344423255617563 11.9149967811383 -0.8903509132661183 -1.9307655480922685 0.8054255760766322
Ni 2.38677568125557 2.5144213139848346 11.016688687280931 -0.7297161010584594 0.28221251051285584 0.7268652618732255
Ni 7.450735796947659 4.200005566303282 9.09410827744018 -0.9324167320879168 -0.04543756350750884 0.2682203099988219
Ni 3.409880478668074 1.343014078892208 2.2403872385869152 -0.25948524411866924 1.7529133435650583 0.708127062033774
Ni 0.6101884125201069 1.7064524976404083 7.937289508647739 1.1969662781033708 0.2347257777858022 -0.5295189531771461
Ni 0.18942575124784458 2.9904011685178142 5.472069449712744 -1.6234122766477268 -0.15261502722697587 1.4934887774809955
Ni 7.109241211496164 6.681892642317005 5.066591169353385 -1.7328605386792415 -1.6720110114920366 0.3109859831011225
Ni 1.5778691728305971 9.03606054112456 2.3525076322414096 -1.0321536803689384 -1.2716012891104425 -0.16520083431178648
Ni 4.0547828035935805 5.391223844862352 8.876258505174286 -0.6343837096030365 0.12829033443868226 -0.15130325039408782
Ni 9.336747134953065 6.850226756894289 5.811228998022487 0.9971005454195474 0.4178500293452288 -0.5088184874050011
Ni 0.18695281821189413 6.444794441832996 8.0859808127495 0.45194722813925386 -1.584628985231942 0.844214781029688
Ni 8.258621875755566 8.216536048846342 4.093177617068105 0.30955644974344754 2.63366144363409 -0.42627039219844004
Ni 4.8624390559111585 5.432813246552462 12.248895141431408 -0.2839621462141109 0.18606739334815053 0.752423312847988
Ni 0.27225981489257206 5.190125665823628 11.721002998568657 0.8607153497878725 0.41071958894803456 1.6292278548882393
Ni 7.4451923820009 2.457240483190738 7.50498128380726 0.4732729862002236 -0.9980780788414683 -0.28259071978788103
Ni 5.9221873889418735 4.966458525434503 7.499559217247396 -1.1588375895524492 1.2957094950125556 0.257665160190795
Ni 0.3170870121784519 2.158631520834816 1.775047431250252 -0.05872322487282145 -0.19228817744688173 -0.9012163952257124
Ni 5.117059228017924 8.20606515394691 6.032752316909814 -0.7381259223887094 -0.7275368340189535 -0.6707139114926385
Ni 5.181907070529428 7.187639623877523 3.559391803687332 0.026207511633303253 -0.4562458555146078 0.5929010169782175
Ni 6.610554499718583 2.993784214455471 5.350585005536245 0.8419282989883564 0.37842679035259985 -0.47234918883437355
Ni 7.234708089097101 7.115372982258167 7.354581909229367 -0.6682657070624621 1.1558911053296157 0.37671315009560286
Ni 6.650617853512904 7.120824466608794 12.113807726945259 -0.35921345064894267 -1.3551127766715374 -0.6469882857409245
Ni 2.337850217994126 0.4871457447391706 9.456261506454455 0.11791130519720337 0.1133429691002306 -0.1539941669626896
Ni 5.133257399056381 3.7033964859982844 10.407286281357752 -0.8267389928424278 1.1007129174955754 -0.27363608169775455
P 3.533288110915654 1.4302929868599172 7.8172309080172475 0.07344484735371222 -0.4764305579925988 0.09105407579504318
Ni 5.626299572231457 4.553634990444198 3.948011851328006 -0.826693484316473 0.8402596530366819 -0.2834942054387569
P 7.932718719408056 0.16529672768108175 7.748759161406221 -0.0516236377135627 0.018702975726141987 0.05213682990455537
Ni 4.753096804871772 1.8224045585416841 6.031217995260372 -0.410596433106609 -1.4594476287358864 -0.04340870600293814
P 3.949641780797426 3.4930776681675226 12.227205955885989 -0.6474204881823366 -0.20603020962332258 0.7479215683228926
P 2.6555623582262755 0.4786375680671552 0.5429365849197513 -0.4087583514566057 -1.0903621703888706 -1.7923504665147583
P 4.365747238069642 6.430103932571105 6.969083824633335 -0.6681006422395075 0.05676275871234095 0.1664758443694681
Ni 8.24038284548298 1.7846762418891164 12.14120120598067 0.2965137576268765 -0.23129001263137586 -0.25804182680392335
Ni 4.897280751845182 8.743546577292188 1.8578493191863334 -0.34712103826078283 0.1197578714876389 -1.5575493554063304
Ni 0.9225235321844963 7.344280166626817 10.446641769561856 -0.11408113281783577 0.20093788270207974 0.10118139403703219
Ni 0.46599159526323897 4.781549324374622 1.4858328565130576 -0.17544256664445268 0.41819481427915717 -2.276856088206008
Ni 5.172153234279825 4.408191594303781 1.1625350132599286 -0.08638958043983831 -0.7815999344119443 0.21798018289634719
Ni 6.915175723061538 0.4736972178310222 5.646648409685272 -0.6497301101521198 0.3248108047993567 -0.7800469881025276
Ni 2.2413690573536047 7.467733764172463 12.748895541427714 -1.1895807842725772 -0.1591502572423324 0.8913605854775551
Ni 4.545370429851933 7.884914809419423 13.18717741640485 -0.7003157935194713 -0.6559082139383736 -0.5368214003758304
Ni 1.774389208181947 1.8171920937410007 4.256816836100927 -0.3540283069035774 -1.0986357232515722 -0.5838111388618075
Ni 3.544558802001436 6.72806018769449 1.647817324815504 -1.098986935943404 -1.1081989414599753 0.5781634536577269
Ni 5.176317690284604 2.98524386207481 8.322586265238241 -0.260014634259578 -0.859236708359817 -1.5469461259691875
Ni 4.308502055858254 4.159896247210895 6.10383489245099 0.18742699269983848 1.3839019329890876 -0.3222448438443934
Ni 1.462339992671528 4.98251880057876 4.986857005410229 1.1007509698223623 0.13230022692902377 0.46445924456333554
Ni 2.461735889341593 2.8411334595783058 6.461924789116231 -0.863887576868267 -0.5721645557618147 -0.31126340513222517
Ni 0.0467035007529337 0.5961055644986477 5.94073346740554 0.055037548491118124 0.6552384415648586 -1.7015056785170435
Ni 7.178455757323937 0.9156783799965086 1.7068974417256868 1.197028241689558 -0.8326314470674627 -0.3605923332743403
Ni 3.0338475682497914 3.708792811991232 1.8866291116114133 -0.6399619750217623 0.5072418869465006 0.14642843880028977
Ni 7.328449717972888 5.306951067388158 0.46246789551349987 0.8905188063025502 -0.08995724318643862 -1.7043549750403808
Ni 1.5620846894747347 0.398126590586683 11.882381644242592 0.4905217459783423 0.23365414198817824 -1.431895944369863
Ni 5.89117000580694 5.974440739783295 10.225334487575438 0.953427530011629 0.3223129780781675 -1.0394363300732807
Ni 7.359641769240471 3.99583690535375 11.554012909306824 0.3493874656974564 1.3889235545733951 0.024722699557660648
Ni 7.892701330911803 4.8124931630326495 6.807112226614348 1.000918890724373 0.8929749811525265 -2.7160421600248514
Ni 5.627338387967749 2.3331525645317814 2.8303610323235593 -0.6179438188794584 -0.5860793660706939 0.6968198645510709
Ni 5.806979965869266 0.40550126300839107 7.831628158677478 1.305705686993319 1.474476240934235 -0.8379001516655699
Ni 6.952802916058361 1.6874412503603131 9.839284819402614 1.07106604116342 0.6891289236647163 -0.17653297149515404
P 8.77976723216819 5.58492161091245 9.87643397329955 -0.5314565365194912 0.33380323810595414 -0.25526426405878616
Ni 0.4520153867332929 3.86788790165725 7.599273576953879 1.464931791778909 0.6489562081005726 2.046100093701231
P 8.674157363331764 8.965163665387571 11.559758571565073 -0.8188559905499252 -1.196443315720365 0.5598787964159261
Ni 7.545461083202058 3.5122084252225894 2.6309047337317537 0.4652953673113857 1.1792513773221112 0.4400754164023324
P 8.224773030259769 4.813550364888168 4.527974403145877 -0.3456799349388821 0.013869044672608372 0.13651452212068746
P 5.131740544220203 8.637035788613668 11.192128117633255 0.12909406128690024 -0.39477977778932655 -1.0045207491430186
P 5.704367034466741 6.46391600582845 1.206516449061394 -0.9688934868577119 1.5656899822355939 -0.5319676718279548
Ni 4.6586105381673155 8.072306136574866 8.862951551384182 0.00606806057095084 -1.924020773169267 1.0467356919481714
Ni 5.079413648901876 1.8263851533541995 0.6073302902863634 -1.0251757063892086 -0.13355338260983451 0.38728218386070073
Ni 0.28018055505530415 6.462086586965423 3.2990645801726917 1.600572910155708 -1.1774204947609592 0.44974764938477385
Ni -0.0800770650667292 2.90457476396899 10.106325734352772 1.2576512546882535 0.26584281090558093 -0.12577965220168663
Ni 2.246186220590921 5.282405598220918 7.1192405024374406 0.7350269717484115 0.6409019703375285 0.8286482940499987
Ni 2.4729422290100818 4.986232796662493 10.560632950847637 -0.40758387153253034 -0.09913042504527443 0.27965683397053775
Ni 2.4811516312446686 7.509176076908763 8.442900432925981 0.8514488368842821 -2.3475783944222344 0.6181847312456707
Ni 7.358520215967662 8.199014077223586 9.685063889943514 -1.5799171815785693 -1.173527073243824 0.4612497364871024
Ni 9.076510003422634 0.47361264168258077 9.639666722961616 1.317782672762511 0.5598890808285711 0.7108565451497951
Ni 2.3138379462844503 4.930605592943028 13.115717925419533 0.5368841352929656 0.6727710511319833 0.24044185433397297
Ni 7.153257580924159 5.885543853323663 2.6717669644064608 0.3817226874950522 0.39253674739142075 1.1955403442901216
Ni 8.381882419049335 7.73753167770062 1.8070300856445707 -0.26312309798157263 1.0615334190826362 -1.0352359188386882
Ni 7.054340259486141 2.8804429824843436 0.48967383613280036 1.2994607345248717 0.9268844894157778 -0.8356051849838061
Ni 3.521989840651033 9.114072845002164 4.043838466124067 0.628931942459846 -0.40672178064255116 0.785620368425247
Ni 0.24536184177031378 0.23992230839718406 0.26275235264060187 -0.41834136715935044 0.6705653017299161 1.5406613214017402
Ni 3.7724731359318593 2.9692847105862965 4.127407055231889 0.04444306080472346 -0.875280392086241 0.44617458732153475
Ni 0.5949169018906612 3.7502627039063716 3.4090999879069135 0.2611767728884792 -0.8658575561104442 -0.7436288544848096
Ni 4.776548299945042 1.1125164952104754 9.742004781881706 -1.656045746412032 0.208180423197106 1.9274969046433255
Ni 8.681226826174314 7.375288356702136 13.005939004048521 1.3989783677062357 -1.3509311344900217 -0.5614232580849106
Ni 8.174431835817892 1.580001962660859 3.8154663178249066 0.3436045404670921 -0.25898979253948945 0.2668936207675984
Ni 0.7742486736832135 8.497126614360395 7.589169485133012 -1.5794556685611185 0.5313071554258204 1.289674344562069
Ni 3.419827369169555 7.138677388377626 10.88612150020659 1.2082451934512999 0.4159204164226837 -1.1170188537444503
Ni 6.472649412460989 -0.037498490162237774 12.95723233560587 1.2660297085599357 2.358205535118777 0.31898494214619905
Ni 2.8881008011421385 6.891439243140259 5.243389333916541 0.4369816079683571 -0.1342951458718655 -0.409332735902837
Ni 2.1756386811192336 2.593031166737297 13.512962901589312 -0.6675879642691471 -0.974158334801077 -0.6881531900150085
P 1.2444736728983303 6.86859449000146 1.0719484424433905 -0.7677188055544778 -0.45690817168895503 0.9445343412870572
Ni 3.8577939222019575 1.125919976126519 12.24413221724581 0.5316725091850392 -1.2482968100565468 -0.7766181649266367
P 6.0636961555678415 0.19834209976668604 3.3790543111730957 1.3223574366173871 0.0699507181575247 2.979674850652991
Ni 2.6692232448114885 8.929724420578689 6.5218672150181325 1.2155571537316807 1.4779246044941514 -0.8439345307851077
P 3.291685311221177 4.9159702420388145 3.575632262800009 0.052924615913173365 2.1628420611806813 0.8821272398047453
P 1.3376729112569394 8.820584416850794 4.496019327930398 0.31482361167965783 -1.115132692465331 0.9419156727172874
P 9.315143444862047 3.4685505851195084 -0.443077894177341 -0.09784178814083795 0.025388872386749826 1.0810331796784607
Ni 2.724179355179191 3.1124298418234146 8.942349249345495 -0.15201955973482206 0.7941512887143936 -1.3784866755107872
