# total energy = -340892.2148065199 ev
CRYSTAL
PRIMVEC
9.05278420958033 0.00000000000000 0.00000000000000
0.00000000000000 9.05278420958033 0.00000000000000
0.00000000000000 0.00000000000000 13.24966476017686
PRIMCOORD
 96 1
Ni 6.202605663892659 2.3293357069203755 11.220305975110886 -0.6525961188460051 -1.3466494763955326 0.1843234140738503
Ni 4.4875556857496495 0.6172378417247003 6.2256866426431134 0.05277497770918652 -0.7716366525516453 0.03133891932259764
Ni 2.7381322857696966 1.5224700985703714 4.835570965795857 -1.00787912409229 0.34310651778475104 0.9324540130837554
Ni 3.542064792019314 4.350143473460219 5.04491569654043 -0.024661507302422045 0.07546701999006357 -0.9959859721991298
Ni 5.015459747113764 4.502501832563659 2.629501590479527 0.22233794564441065 -0.2670329745589401 0.12555596622665474
Ni 6.98587066367566 5.962000763818313 2.6443282405412987 1.2813717382336447 -0.6271434831008553 -0.9997053300322462
Ni 5.220650155161215 4.726549190225635 11.180702759806678 -2.4497782024214523 -0.4020092056582303 0.5629715764086369
Ni 5.461861591781011 7.992567431790926 12.3969696729946 0.11184427306751706 -0.09431346327260531 0.1056206607553084
Ni 1.6161302045290284 6.277544612000698 0.4929566930050577 1.0211532154933767 0.6466782106996732 -0.4678885819598587
Ni 2.9724092896459857 1.4370661318572484 0.4886982632889401 -0.08309394040770207 1.2009448031351446 -0.3231987231172305
Ni 0.5718888242503821 8.918549575439984 5.008174971619376 -0.16754053818855663 -0.05388209473043624 -0.11239654602656128
Ni 8.73819095461896 2.1198180679964285 1.3925798447229516 0.012248221239733745 0.6680389357636367 0.062008837602628694
Ni 6.893052466653225 0.5787970039195346 4.607345748197681 -0.08395114620167476 0.8346158244873433 0.8009037769468786
Ni 0.8542596497887589 7.321566009621815 2.588573952838014 -0.3613778052901131 0.00016866436738035466 0.4226050275317108
Ni 7.6547899454648665 3.57170360768804 3.8213621973012666 -0.7516938908811313 0.2460437739017827 -0.7295968018717758
Ni 7.246835275551767 3.8972326769097054 12.5737334331858 1.996849069984903 0.2464132414260595 0.24704573280373585
Ni 7.880530173783547 9.036887571292638 6.896782213768532 1.159808695216467 -0.8875083016110005 0.02021452727466196
Ni 6.964605673447854 0.6200260992769202 0.294497935333681 -0.8631545553569845 -0.40613274090830054 -1.116361936886742
Ni 1.9167279058974034 6.511359923879703 9.172199537633643 -0.0033120950923684893 0.2037470700161007 -0.17886419073149196
Ni -0.11949313112428855 4.836857366439267 1.4068361693763145 -0.44562668523786475 -0.6996735319497821 0.2021229041491164
Ni 6.558153765721991 1.890474831542087 6.816793622600013 -0.4885561376115392 1.0919174306911323 0.8846687752796764
Ni 3.3781279218467524 4.3986301859592105 0.6928104847309703 -0.23639982305411542 0.3605475960793339 -0.9110238682344376
Ni 5.965947777755871 5.562075913544237 4.82978080498287 0.15199307737226084 -0.15316267220032978 0.251778876613347
Ni 5.3614752671168375 3.239620322661806 9.007321177897996 0.18400382595090245 -0.556515536370648 0.2569393377683639
P 0.03582186731861645 5.633239850615666 12.37331836883574 0.0856699286649944 -1.2409843355555337 0.47197894997914847
P 4.06962484758153 6.151276377135885 12.433154556962062 -0.26171927565551056 -0.7478976570634926 2.4064556283744167
P 2.2865160373684286 8.378460466461298 1.393824602558764 1.734261018571194 -0.3922824652887696 -0.5195577281993762
P 6.527129874061414 7.704869947993697 5.8735369560251565 -1.1331363281316034 -0.3662091652404854 -0.14601654807385175
P 4.837463902984718 1.0959029042177793 12.47762002269256 -0.5013689731054914 0.18741233741181917 0.33906885738026765
P 4.032454115408107 6.131993946661118 8.313475959926055 0.6426094399469384 1.6235891685452233 0.7105323290411569
P 4.708416463351946 0.8644032945525976 3.9509573303817955 0.5360732093558961 0.10256798997191367 -1.193583991894699
P 0.20106505425996135 5.4640795239248225 3.5197071307312706 -0.5460133512877435 0.07909458944032184 0.7064550736479898
Ni 1.6152339788872436 1.0599361923509956 2.4354470123508616 -0.7130651227653397 0.546572052004691 1.5162109016688596
Ni 1.85285146015564 6.509658000438738 4.903913150013302 0.23321885422297256 -0.2700470787949156 -0.3896787091173353
Ni 6.20461538199848 5.70072835727735 8.973719958558469 -1.148145657056242 0.9083393794237388 1.2060777534863358
Ni 8.528944899222823 2.667149404383477 10.542161906160278 1.059293474008524 -0.11402174033481009 -0.8683196444976916
Ni 2.5731905565442252 5.242575998640033 7.0597658257584675 -2.381225907273351 0.22822705743533597 -0.2814103263265347
Ni 0.765965129061273 0.2018254881378395 9.237215728913798 -1.1035604142466995 -0.6439528413487103 0.6974646972239215
Ni 1.373922961640582 1.2774293342084029 11.68661489236687 0.8051142154838006 -0.6315984335484155 -1.1849761956210303
Ni 3.985162370431495 6.7488959300897555 1.5395581341404045 -0.1921909897473851 0.5197143083818985 -0.27831266123781745
Ni 5.691023772550143 7.942243004087063 7.954502284532569 -0.6107123341280255 0.245814431499796 -0.09256382757135026
Ni 5.413003715127341 2.7996640603880025 4.719570398839252 -0.8251523650815983 -0.25607956087122996 -0.30466775419257847
Ni 0.7754126147154827 7.501363357818692 7.171884558824191 0.12968824322747344 -0.4248154049194684 -0.9184834098362763
Ni 4.942331355857817 4.653991124378097 7.09320771609501 1.754337477606095 -0.2126122337162145 -0.8089492729591744
Ni 8.147759312367889 7.398451306345851 8.840931908469278 0.7125493594711858 -0.26034142147137745 0.655628992135058
Ni 4.665470054820353 0.2993909652264564 10.20172561709692 1.4282850870901531 -1.1054180362807284 1.4237056952495866
Ni 8.043353551492073 7.250039961179968 4.406043510990096 1.3565713634949346 -0.9405169925975481 0.6292391892876196
Ni 7.314133673743982 5.98388134337583 7.021408273568498 0.35817112542735735 -0.20034190098929366 -1.60444396307534
Ni 2.31326701485807 4.979221451719167 2.83578557486564 0.276764085803775 0.8487072695834027 -0.016373299151700833
Ni 2.3585580945131213 5.075678868014304 11.560094084821193 -0.42923564547435106 0.441340399157685 -0.07953141986742432
Ni 0.9383210885960567 3.269684619190774 3.92579602180829 0.9547868722530009 -0.7126105517264244 -0.7033190991221694
Ni 3.642405852762186 2.599588475447709 2.922637987060436 -0.09544577710483562 -0.096350291196976 -1.1115004950293828
Ni 1.1226538817074208 3.459512452348234 8.387527735176569 0.06641725108296948 -0.8651846984131357 -0.32476221094960844
Ni 3.5137476828526135 2.8743585833210084 7.2283675956604405 -0.540407832175508 -1.1372827461998092 -0.4207507479317915
Ni 4.280120187205607 6.8939667978635315 6.059310047112358 -0.28695542451448003 0.5963532371928761 -0.4630772766141444
Ni 0.897889543532017 7.292615205556883 11.271092094812031 0.39858526757834584 1.0032046014347562 0.4371024498169376
P 0.2770459778363778 5.475440768171692 7.918674985543396 0.16122616593475458 1.0485012684890265 -0.03787594911016703
P 8.551078956739634 1.6727734756466892 8.156149432820477 1.7535813161663605 1.6421928996893396 -1.1394504432750892
P 1.8067365771328876 2.973676679442449 10.4752645463108 -1.3126548646176426 1.2133673451692137 -1.2138777091467285
P 4.12004885591226 6.238355108937192 3.7217915284989593 -0.8505291532834901 -0.4975737677291173 0.6255838519232194
P 7.034891490446019 4.2428589271895785 10.325000096206804 0.5226296822564807 -0.26122613806917594 0.011011263508839101
P 6.452697881871962 7.854974163816285 10.03766743961527 -1.173468709202063 -0.2554522116998762 1.135497115054296
P 2.4240640414217665 8.375391572597005 5.878783949782516 1.0003517053669935 0.3780292978038651 -0.23137871569044025
P 6.926710718533593 3.712094185999161 1.5232477327383445 0.0022330030955767994 0.6683294704208619 1.060471039256393
Ni 5.182610355698786 2.965891284978459 0.49718977492524596 -0.08133504873506638 -1.0612451984182563 -0.4508329120291526
Ni 1.6321717382385532 0.8764190551014982 7.222736763850438 -0.9251945033078646 2.178003856522784 -1.754857868885939
Ni 7.055613313618197 0.7777265063724549 9.228683479748321 -1.4221455498513185 0.3576777307307066 0.08954355268778773
Ni 2.9885322984138543 1.4299959073498338 9.179579367362766 -0.9135625754958913 1.6535720880605589 0.014236969534988384
Ni 6.472668323950523 1.6870768747782066 2.3032419615680433 -0.389136206350304 0.9259828035371149 1.7087330495034185
Ni 3.8996226119544652 6.965918327165619 10.5535702248853 0.571221475122255 -0.07641807104942323 -1.7117242709212588
Ni 8.193421556177618 7.181908706835791 0.29052919471389793 -1.0624772710531443 -0.26644033528026373 0.49109021688730253
Ni 7.7635319900014395 3.8858714326628356 8.326778121118366 0.01748941503401504 -0.9598270057800695 -1.027756065521875
Ni 2.9279872772799376 8.51768323560282 12.375358866408046 0.8651258201507422 -1.0472110889226933 0.818139681209191
Ni 0.09763699408427447 5.368663177819637 10.194835542996291 -0.906258071414678 -1.609530633569628 -0.38965068409287734
Ni 8.735375538713956 2.2138855492468057 5.866726546426016 0.6261674923408314 0.2565503298600614 0.05268267510569636
Ni 3.483547594559739 2.905789850273305 11.578537322195016 2.271858892101733 -0.7783989109761433 1.1332250311906675
Ni 0.8969498645257818 3.464111266752545 12.768648931097635 -0.009659634576951107 0.1513706132969135 -0.06115086047770759
Ni 3.083903380597737 8.301366955699272 7.914421987497835 1.6648430329886876 -0.9693146335555305 1.26230700829271
Ni 5.85328587763452 7.7391256836352555 3.7184655355616685 -2.477294662674166 0.7150901236151684 -0.9344985543176099
Ni 3.0019575774721075 8.444065993996809 3.625280700776685 0.8658770964944701 -1.0499907085503595 -0.061990839880499686
Ni 3.2132405093268432 4.360554175359741 9.342497799306027 0.5952970280142199 -0.29316103910455965 0.32852527753646643
Ni 7.037353847764861 6.272022413601821 11.400144060836936 1.132767374827959 0.04190409643295364 0.16339746255446053
Ni 0.6039972394653603 -0.1365531030631141 0.19294832789203833 -0.22388523552687248 0.4539637443486504 0.24446357389885642
Ni 4.718148206431934 0.1717376543697946 1.6469594613280045 -0.4803710306975855 -0.29317286617910154 0.08879201923374386
Ni 5.89715567016068 5.552036375799393 0.41130963176002305 -0.29365083425678457 0.737701176146465 -0.15465468336482396
Ni 8.132786007201098 8.794291058680992 11.03458629545082 0.3510440274642728 0.3675931900722056 1.850958248855638
Ni 9.077951000698057 4.815873012523535 5.665927644023313 -0.1843992616171082 0.09504519923230728 0.5892634202256303
Ni 7.939047371243122 8.723416810705897 2.357658247757632 0.4767504032258627 0.014836036571567996 0.2562603094234684
P 8.73361929856743 1.291071880088907 3.715325124701717 -0.12932700323331275 1.3985978444383655 -1.1020144099158182
P 1.7860962290190523 3.2236150000893233 1.6543130379827715 -0.19763838601520156 -1.0288600972193314 -0.4586932886138359
P 5.101424986451035 1.192287898238833 8.273898997696202 -1.2880154688024077 0.30173643947839646 -0.30692441143723914
P 8.471731302696755 1.602976508998589 12.419440494085901 -0.6049142393890098 0.19062981590785233 0.5007549936705763
P 6.274176976255808 7.676887791844635 1.332227647893783 -0.22552945599851482 -0.5437998885761925 -0.06846976273662402
P 1.7407146215213967 3.3879592455536054 6.02470215816307 0.5394210427822065 -1.091317335213288 -0.241713521957545
P 6.794277537587412 3.8682818728447734 5.923845993995777 1.341334234830206 0.8394083607799803 0.7211710397019258
P 2.4697715491527985 8.622215735458282 10.301256453648483 0.0534033553218048 0.08843874965938317 -0.5437654357938313
