# total energy = -381165.6303985168 ev
CRYSTAL
PRIMVEC
9.29849187482394 0.00000000000000 0.00000000000000

0.00000000000000 9.29849187482394 0.00000000000000

0.00000000000000 0.00000000000000 13.60928276476600

PRIMCOORD
 96 1
Ni -0.07736996090195672 8.04488775140033 8.43764674746289 0.43529753539771476 0.08531177399462726 -0.8802189670384388
Ni 5.022385089236841 3.6513317685988396 -0.18596425734164113 1.045055218921955 1.4770673987001786 -0.29539995573740735
Ni 5.868668725417665 6.915511531703687 13.117116476198944 2.588682307820239 0.0474795336382021 -0.4486253628548725
Ni 0.9488924934347926 0.4759349352580724 0.27820901561099004 1.6704030435749684 -0.3693255993822801 -0.009001175057345788
Ni 3.9119498973812794 0.8630144125158554 2.6998505750408475 0.282024819982082 1.7238704193654892 -1.4087164209296061
Ni 5.854711689193088 6.006816418414694 4.328091810828212 -2.431769681659173 2.309613228032371 0.4452839571864654
Ni 2.4041436575195254 2.413321268947678 10.331106075936958 -0.7949604148792502 -1.0726968918986235 -1.3705977596810137
Ni 8.72616035171084 7.757006444596265 12.945802922571788 1.2044769846581191 0.6629216691417292 0.1868418096203298
Ni 7.694753041849068 7.644150649354632 6.228097277544853 1.0062868399045057 -0.469374679587082 -0.10366430835988598
Ni 1.5870944796265554 4.690958945231115 2.5548982457285994 -0.15672133608586558 1.0888557610466731 0.02273523681398665
Ni 6.693528636440979 5.113593995517237 6.693385439666923 1.5096383906576645 -0.050031096415462224 -0.92033871787746
Ni 9.098630038618152 8.93433498661812 2.0251566576942865 -0.7615232182667272 -0.0013549713659976664 0.6134369321480403
Ni 5.52433627476323 4.912504811378197 8.533496531011565 -0.957914362138389 -0.05676301582265709 0.9876689676930022
Ni 2.202636041248502 0.9888760082686905 4.298369181719711 -1.1876082339272385 -0.712456028426431 -0.3975169742148315
Ni 0.8943717164866353 4.813420082524704 8.610076120108666 -0.7697756880835066 1.7511343972877649 -0.055912237786587576
Ni 0.39492833420459533 6.060357134324829 5.728528365623218 -1.1023255133983338 0.9247548446672847 0.43826433133552256
Ni 2.352918266073027 3.2452573322474088 12.40449401071111 -1.2225233006368688 0.9479755057581222 -0.4062841788845003
Ni 0.43832625523547164 3.87282184379499 4.256003393281059 -0.07081795125382642 -0.6664204263236071 -0.12418582535200547
Ni 2.190966434012097 7.6595210563361285 10.319728441343758 -0.38528058004963966 -1.1087877240839097 0.3178235748482462
Ni 5.766506195771146 1.512288112919879 0.7802001846522132 1.6457191676750431 -0.6883488509655822 0.2604874601309385
Ni 1.7997509875919608 0.4602976615612896 11.639666092738757 0.49937405416264957 -0.0517611917326915 0.13217218599159172
Ni 2.649065932106704 8.192984830646722 3.057828562443828 -0.19851718907572907 1.3657265476316416 0.5396383009993352
Ni 0.6407813878231402 0.7005474440079956 6.6757201649037965 0.008056294645573222 -0.8432688721766508 0.4689895283335213
Ni 1.6496361356202291 4.320702299377399 6.21828550897445 2.043289363725313 -0.8193257310974921 0.4069565223611766
P 6.149529670896244 4.778429857799133 11.942267841945972 0.35404759017728704 0.7480267264421891 -0.2916965387438912
Ni 1.1132712318612221 5.665245619831343 13.05586080162423 1.1526733697232665 0.9193917805831586 -1.2203550893409565
P 2.0144531637581706 7.903095049609142 13.084780970888506 0.27070245299072737 0.11069010485841581 -0.4899509610765368
Ni 2.7557754242541024 4.520303724824946 0.6481653201788607 1.7596475769650985 -0.9729452883295826 1.3989220605470036
P 4.967161346306953 7.589447621966767 9.136496286864219 -0.07848498088078096 -0.0797489351948691 0.2698241641508321
P 3.439577214340152 1.7122149855811901 8.5488753066357 0.28350269007918916 -1.7136001477877327 -0.9180722904407868
P 6.112856419150919 8.586906138187013 5.340051325044613 -0.5410526648483585 0.27503219071433277 -2.1365111365956366
Ni 4.780075690851598 6.180967871745873 11.113027411425392 -0.002432520700892585 1.1853821728101972 -2.27439734225287
Ni 5.904002994340645 0.7923709805978153 11.023056134406483 -0.8482010193709457 -1.1376180180520408 -0.36144542530325496
Ni 6.916943499444249 8.796252383063845 9.150636503377685 0.20262221238303815 0.6297513530373476 -1.1028353631552168
Ni 8.329747048362297 1.7602602928246205 0.6040551346744317 -1.654383013997628 -0.6583237653584018 -0.46035653524887166
Ni 9.281029254195301 8.607260536785013 10.660940318142785 -1.0238143072653079 -1.3545029110016802 1.3363673777432339
Ni 4.119594518254715 5.123338814946522 6.042766247496279 0.5437561798224506 -0.892839998236559 3.0842040781163336
Ni 3.1158409230710857 5.8086376622158875 4.334692810172535 -1.6293926626008777 1.1463592545797805 -1.8848469311832832
Ni 6.777512614575807 2.9980848226393455 10.693085204370874 -1.5135726927150643 1.387263907482785 -0.4925704009772549
Ni 7.613010000243301 6.368834600514262 0.9626319449507386 1.98045134535317 0.42888314723093873 0.8427428244698518
Ni 7.472686460159964 5.397746607100745 9.979387833228438 -1.0955866520126034 -0.2621591914064066 -0.28170908851387616
Ni 5.693550228937014 5.76233117294314 1.9364239397860457 1.5853771762518762 0.7742401516127634 -0.5476493442292698
Ni 5.713588478813073 3.8761042114080984 4.8994646064472525 -0.7042372400610646 -1.0894329737063817 0.07276067680249404
Ni 5.142549499050436 8.467095071062646 3.1701599227467088 1.093400442994562 -2.07951235061309 0.25233732021997834
Ni 7.660618278371106 3.4221332436823864 12.710675679269734 0.7820100253661693 -0.8420370566520788 0.8030966708331395
Ni 2.9871219007813994 3.1814975738250744 4.054913279292836 0.6353571292598994 0.9472077743541624 0.08739282489337206
Ni 3.1777967740799835 5.925296540612651 8.808485478904654 0.256093701938617 1.553123201314177 -0.30240672607254365
Ni 9.38738540365347 2.1384299552187196 2.4452476406179544 1.0866402414525933 0.1315018993974445 2.132261617290663
Ni 5.236891997074792 1.5529132236894836 4.511681233358557 0.5412169583403647 -0.8425422784232717 1.5585294599314128
Ni 1.7204441508435155 8.056166821980218 5.260246089134517 -0.4833018311911354 0.33911899389191275 1.0377969946976449
Ni 1.2140761817017538 7.077444766780973 1.3731631484323759 0.5860315435518939 -0.16954728420594026 -2.1330494032992813
Ni 3.7216748592310345 1.9468624267052395 0.07966203913603948 -2.4837866981564125 -2.4852149459625075 1.2347177858205316
Ni 3.973849957439246 8.435973018934959 12.010314205098174 -0.2172790430642645 -0.53323779678963 0.6468543312662215
Ni 7.3861825907414165 9.636027074969384 12.540627650379529 0.6970268383555545 -0.3408981972795226 1.2967749601625924
Ni 7.0044887999468415 7.570897130782203 11.102480132151882 0.04967319885541123 0.006840162850284994 0.30752887779045746
Ni 3.6936956973391277 9.284116353480151 9.901514823918918 1.0980587677021798 1.3926467690612532 -0.7008143304224447
P 8.638150126617155 4.994973135346067 2.457768059856058 0.4585881304945393 -0.3277035529661195 -0.5850005311842182
Ni 0.6280768584469646 7.148150498594219 3.407805197634118 -1.8948567500108013 -1.191993507479128 2.292859662723116
P 8.317705501453018 1.2806812786215702 7.975094201634805 -0.23092594442373776 0.04072190319939439 0.6813539077049878
Ni 4.68961996240877 2.6963115690534565 7.041374987154885 1.2771265898040456 0.40438336231736166 -1.336623459618098
P 2.1218786397758502 1.5213355454625261 1.9580215467406257 -1.1284504926201597 0.2058641163591035 -0.27175480551464165
P 4.351396620881282 2.064767303006129 11.600593830103401 -1.0259997449524008 0.7697414924114614 0.06908579905406811
P 9.43294801358047 1.7689171887107502 12.296598960856429 0.3438045722930401 1.2738877711517738 0.5838229659363494
Ni 3.9483813883392354 4.1098868927927175 10.281418655037792 1.2167681433206463 -0.07764397303672435 1.4345693774369679
Ni 5.447763194610404 9.4528467860792 7.116552363685254 -0.05413534839182289 1.420703418088153 0.7491114748659357
Ni 3.0348789547783532 3.714263961249031 8.198272882945801 -0.16769480437823378 1.4900195879854723 -0.7892898468570342
Ni 5.209907773807822 7.104624258376202 6.958140467460897 -0.18467694075852711 -0.5555847970262625 0.2392599182107299
Ni 0.7070368614504555 3.6291269701282936 0.6095756492690562 -1.498774451359967 -0.6566260659410046 -0.11183707397866545
Ni 7.084790575320223 3.7848209171931275 1.350250734734188 0.8785287238202095 0.07099638581321967 0.6060828057758143
Ni 6.944959855303443 2.390437680574138 6.495343371297897 -1.8950788933239362 -1.9719497356400617 -0.15955906264497682
Ni 8.722282880621133 3.4698995961711616 6.230479551149607 1.3941171829591925 1.3655969640323127 0.05707206242264365
Ni 7.473393145538424 2.812356746989979 3.969024970032895 0.7743769343009438 0.21839850138068836 0.029821454236806703
Ni 0.18691084380910408 6.240199264650973 10.598827322622096 1.4096957541237398 0.4292425874528865 -0.4484196746019697
Ni 5.239356097407579 2.9473615497512258 2.623679189734726 -0.18191737573551897 0.3487032951462382 -0.16080244813377467
Ni 5.802258896826108 1.8427472137761338 8.963958121864128 -0.42698310199474854 -0.30300887843291685 -0.8994531326777025
Ni 2.588309586542823 1.9526739840938874 6.314325911605473 0.5409863303867973 0.3018403120461124 0.18770904271663155
Ni 3.582411347215386 6.56864059278189 1.9530133790453847 -1.2624293928031871 1.7253048378191707 -1.5786483421684747
Ni 1.2274102189742677 0.5302641632746999 9.151725356770022 0.8303979297512538 0.6641604266448368 0.01826048887208468
Ni 7.897739118319763 5.395756729850872 4.391116988396622 0.9487473509271401 -0.4863683859316011 0.26148376260593675
Ni 8.273119233167312 5.604452080300176 12.411161959196551 -2.225071242324232 -0.5771049304862255 -0.24603734614387945
Ni 4.667759208135632 8.44909319089557 0.5990590550185588 -0.6335391022145541 0.8375342836857188 1.6877209660281256
Ni 7.401915638903964 7.628956913717752 3.2360016134879523 0.3705589575687489 -0.164246183708001 0.3590190752499494
Ni 1.0506365909493298 2.660177629833799 7.998270692500733 -1.7337437126151432 -1.000753311680786 0.1928095971679905
Ni 9.006472686171929 9.437783229327826 4.741270294931526 -0.7445202559508275 -0.40796413769008455 -1.6361495217087372
Ni 7.661073904470375 3.414936211012285 8.490886192238 0.7027938227463187 0.10872063983687082 0.2911445228951631
Ni 3.0211729778329657 8.897261899724457 7.625430925618911 -0.4286142098402683 -0.5260723893894425 -0.4464553517867473
Ni -0.09763881337519638 3.7753178585512104 10.697862769468934 0.8934426648175645 -0.49264059209355804 0.37067645698321966
Ni 7.111021620749625 0.7722927472069233 2.8590928265848943 0.09391468517228987 0.9765762002139504 0.8926222257987982
P 4.087263662190188 4.775547325334363 2.6062593951556967 -1.5820285714946174 -3.699228923576784 2.071211286946562
Ni 3.9631101993850244 -0.6636547478556762 5.286662174551172 -0.26044452270814505 0.2975799941078617 -0.4807772649970688
P 2.1488442660591764 5.158170965311123 11.035658380372618 -0.45158830213793844 0.15057614242007616 -0.5941202340972994
Ni 8.415981261518011 1.3646466597727558 10.531162197634591 -0.2748864091650879 0.4153113220837751 -1.8609680676831561
P 2.237775041843223 6.559890711977541 6.783941591821425 1.0726277292235848 -0.6319223925467375 0.3600089499670445
P 8.112683055273342 6.370545523009479 7.960980950747622 -0.5277528624156589 -2.056962490337032 0.3340246100881409
P 6.727384445164286 8.794987788176075 1.271613389396915 0.36352724753294813 -1.2079508021393326 -1.2476324369996705
Ni 3.9125542993496985 5.995184005145576 13.195492533916022 -1.3372220124340453 0.8237657691467167 -0.07948385445894053
