# total energy = -340895.0906753659 ev
CRYSTAL
PRIMVEC
9.04956489035688 0.00000000000000 0.00000000000000
0.00000000000000 9.04956489035688 0.00000000000000
0.00000000000000 0.00000000000000 13.24495296108011
PRIMCOORD
 96 1
Ni 6.3985038034491515 1.9420275449951765 11.264037582609735 -0.19021226875445948 0.5294641886798108 1.0025250588692285
Ni 4.645557864263551 0.42896837306145813 5.884122923442517 -0.14633407931427053 -0.3864311487143151 0.5800437013995753
Ni 2.7469682300507032 1.4855855983203703 4.73575940087248 0.5639974465699898 0.33693561308734876 0.44872023656152393
Ni 3.4054326601223206 4.456403861936004 5.001704389811385 0.10266234945793286 -0.3279688908123642 0.13768283139717577
Ni 5.154369642125302 4.87388743237791 2.792075785528727 -0.1735155248250689 -0.35579748298885816 -0.595169244187104
Ni 7.518125003428406 6.041353681170951 2.5112696013634173 -0.7389612738058111 -0.65501321292793 -0.44125580986367874
Ni 5.062742799068828 4.31414470412388 11.60227411456813 0.6867732789483463 0.761656658520798 -1.0935968752760843
Ni 5.3945903383163225 7.8333846904959 12.424626162195574 0.7520487031173888 0.03734810163115503 -0.09679972002956877
Ni 2.0198538018135146 6.455244574408567 0.4530818432844981 -0.998317448545784 -0.3598971069795286 -0.8801906849036648
Ni 2.7254936129076897 1.7578055554543732 0.35433842251151976 0.32348257290623644 -1.7819164156656278 0.8162092969556975
Ni 0.6002105718866169 8.965096108976237 4.693759465928342 0.10476036963754215 0.15144723217111983 0.3980520207826951
Ni 8.534517818346409 2.2064558268825993 1.262930107301953 0.6032453363270192 0.21864121351911378 0.5879480438483164
Ni 6.832240392175445 0.8460401883074061 4.665838843816525 0.14558820228718153 -0.5949578995072463 0.9132406733800982
Ni 0.8936427087859901 7.092333932549382 2.524686486056309 -0.617945104431039 0.8268963443558984 -0.44220120449608363
Ni 7.717532162613532 3.582786030020668 3.743976877282091 0.7385722658975087 0.6294068252137354 -0.23954659621321323
Ni 7.625651931744162 3.8577480052728053 12.73306157248787 -0.42982725631176294 -0.3505835428880865 -0.4653089941581406
Ni 8.131748840182016 9.19987801675472 6.696701441143936 -0.4589876799258031 -1.6064766772346528 0.264403507355893
Ni 6.616408272975751 0.7439692425772066 0.3988695207152032 1.2830141589330741 -0.6108974535556383 -1.6396071412400344
Ni 1.8359937948625642 6.4083406803284 9.240076183357868 -0.047128578056686576 0.6491043036426628 0.1926357905942876
Ni 9.368561903626095 4.682498187558023 1.374269617245332 -0.9595786372146894 0.4645199225979419 0.9164666365165635
Ni 6.453850941437635 2.0323060029044484 7.064963523974142 0.03641581962487277 0.5058635185417352 -0.20984649804561925
Ni 3.4704899810836034 4.2039843524669465 0.4777654360865561 -0.15591915189954436 0.69901352976828 -0.40793559844499416
Ni 6.239774437798728 5.746138780016554 4.87657967788994 -0.9122631399581773 -0.5963444954421279 -0.4621516794760815
Ni 5.138297615135841 3.0314231987217286 9.425293625020766 0.35401339450524194 -0.5492411141964217 -0.5824543677235969
P 0.1354538851228934 5.525284152382653 12.563632001481396 0.8117772293262729 0.32252946496434776 0.12483425756928179
P 3.92638895387363 6.050095560715894 12.535102343662153 -0.44218886320090944 -0.40357372193187263 0.8931269333493587
P 2.2904719859874194 8.495993821221331 1.4022825449175604 1.3866224172440442 -0.3441447292412783 0.08876399420928584
P 6.367309953768593 7.867818284355642 5.730654069779127 0.12133601460803618 0.3807369265430152 0.743019760145901
P 4.60134169091304 1.1578827597266894 12.493844473027213 0.9628493375461611 -0.6945179558907716 0.07045696836998189
P 4.011563457265979 6.272723903040072 8.213182253508238 -0.6777096260841813 -0.617829147678465 0.15775003446069605
P 4.814467990253584 1.1281639890997799 3.63658750235048 -0.5921355995671028 -1.4677350655556594 0.8425093683028071
P 9.22114449390857 5.44766603555348 3.7890102263291947 -0.0876728180276361 -0.8612403690534071 -0.25820637740624564
Ni 1.422754470286682 1.004003960780292 2.6763680506823 0.5974338718515647 0.5374202103020937 -1.469146086970573
Ni 1.739380641630869 6.610001181135359 4.720434867931065 0.9616131511462147 -0.28965405439256564 0.7662105964400676
Ni 5.82622742802147 5.771160826540123 9.335824198199813 0.2603650756204613 -0.015173365306328705 0.1371660396617573
Ni 8.655501449439939 2.3177835723918077 10.340533120073843 -0.07668366600598406 0.02174201966278191 -0.3441218464231428
Ni 2.28742228266791 5.406128533367879 7.032076500729546 0.6901648211283986 -0.8468553039763285 0.06067649194445034
Ni 0.6928011935885732 -0.09930720865667392 8.83455523255412 -0.36909779964219014 0.6164600352450803 1.4550692971625327
Ni 1.591682695406207 1.248767538473965 11.553307824682276 -1.2117321235586358 -1.4256203957737963 -0.20590473978905185
Ni 4.1109638764395395 6.87637511944324 1.5302687292117918 0.2819931954131982 -0.13179449093719886 0.6463344542070094
Ni 5.685959174453536 7.893862931695545 7.932919043227707 -0.5628677038409209 0.8294329947348231 0.41354343155007484
Ni 5.288610885572188 3.035142569832465 4.641442122216926 0.1167774487030763 -0.2506900144245424 0.5130947461828518
Ni 0.931498848032789 7.443267003846861 7.023361769878841 -0.9338264679512499 0.21662084065497533 -0.9134635880241816
Ni 5.324329517625907 4.583595494445509 7.124698795908115 -0.618924694735489 -0.2725562183700145 -0.09158629414942937
Ni 8.074066914488984 7.365766531359391 9.02942855980134 -0.45961862864158265 -0.033817462770077245 0.5661875122427733
Ni 4.601893714362565 0.21400410712093687 10.387976368212893 -0.1185114006750475 0.24119904421497168 0.08075192253808673
Ni 8.09143302923717 7.2722392797061906 4.537297016246869 0.43635914389300984 0.030299422314489757 0.3310827538509975
Ni 7.247181034923635 6.2325076373074335 7.0503674809948045 0.5252915453593598 -0.07468437618776816 -0.4540974417130373
Ni 2.4351021297630795 5.013739405967515 2.476461355523178 0.3041645893039149 0.7513226235846415 1.6115330087116373
Ni 2.0643957594948934 5.234186803187829 11.418778805076457 1.6222740492782253 0.07769565221026618 1.071955899967541
Ni 1.29228689533901 3.2209029853801425 3.920493162441404 -1.004517920929541 1.0226740230132774 -0.6747346026162573
Ni 3.7832972361048443 2.741855225969033 2.7174666489777053 -0.20625312426740608 0.5491786363896026 -0.8275141804455555
Ni 1.0609528717288734 3.360003845095802 8.286691867942581 -0.24865112961764274 0.02181246788940114 -0.5626784706482504
Ni 3.6196992046209004 2.7109781110545947 7.473755892433683 0.11494348081813108 0.10235073175478503 -1.1509077931824114
Ni 4.277629710372485 6.933124939967403 6.1110887221496055 -0.5494588866341826 -0.1726709174365865 -0.8443762463082167
Ni 0.5379685705179137 7.338563539731958 11.172422503987432 0.5461406208942271 0.006765343748291574 0.49779333993909103
P 0.12812554759132477 5.735125459720283 8.148851612596085 -0.054622829551202706 -1.4068636839915836 -0.4708075553788666
P 8.570562234730994 1.7001688775850716 8.12548744633404 -0.01674430933787439 0.4810189486942296 -0.3262987021987928
P 1.7358875096387902 3.1393754565805607 10.438121816385191 -0.9846173253508721 1.1208176586652503 -0.23137640169759505
P 3.8527978933565694 6.22973847049506 3.9333933169872806 0.3884602633292019 0.8860528001113966 -0.9390056981593441
P 6.890700580436662 4.072385581925984 10.357420512846948 0.07948102624546312 -0.5198888862865498 1.4498599850474516
P 6.30208069107713 7.761440650762669 10.263526753821523 -0.9261635520893532 -0.6195530723481073 -0.051756306636685054
P 2.442061245052998 8.501468807892854 5.722031644488835 0.889456426476307 0.4381306339711358 0.9837472640410928
P 6.851262577272206 3.8754127556576186 1.6894198045793947 0.5956508118092129 0.7098155054797904 -0.5922104186690962
Ni 5.403802795228075 2.9012633089754316 0.3986740501166828 -0.2135941380135096 -0.35711903001375916 0.11427885065093867
Ni 1.5164536636700623 1.1436568439454768 6.954341644515146 0.5928801910426111 -0.027554255469184802 0.15263662449353066
Ni 6.952644851125211 0.6825335574274004 9.182884744074086 -0.38028466949694506 -0.06903077744641659 -0.06245826643522147
Ni 2.645377816208533 1.5128700360305203 9.364287794196409 0.7014061983701727 -0.5569202280082344 -0.6183485105170448
Ni 6.518971609352142 1.7790991813024604 2.5276140202517428 -0.4940644690242781 0.6901555651570178 -0.49707291683329874
Ni 3.8594312243156206 6.888438189250082 10.60031988020288 0.5729978502963874 -0.2586614626657932 -1.3201902537627392
Ni 8.153123912112822 7.2605291429244545 0.276064212238239 -1.3563268515842966 -1.5209265619769743 0.04095818757991655
Ni 7.576892876890998 4.062648250258946 8.366147951371731 0.5144679723812946 -0.468990813885102 -1.0906493626119862
Ni 3.046445476200617 8.404774208578443 12.487764975430638 -0.16784701368538188 0.4034446525531762 0.1761817588033224
Ni 0.11315032784911713 4.752197935234167 10.348294931756762 -1.1271178898516654 -0.10092659771374875 -1.0773958400361896
Ni 8.811886977821068 2.2633685395721956 5.744097198209784 -0.7311448630851859 0.8685651848495946 -0.15738930868716766
Ni 3.4172875899399973 2.8079713460056355 11.630313285978124 0.7257550595281823 0.07811268514302676 -0.732722491984951
Ni 0.9623216655587494 3.4042743158347917 12.723856355227912 0.5766560158742648 -0.8130416978609932 -0.5003855261462995
Ni 2.9496151334150102 8.337029166887504 8.119274920135691 1.6568967815584172 0.18063053860329537 -0.4187619996365368
Ni 5.815720883350995 7.857175996213971 3.4844552694001214 -1.0261167301462395 0.01415418001319498 -0.07038034949577555
Ni 3.141954582533261 8.50469950250729 3.504587836091256 0.9020319491484722 -1.1499446579381936 -0.04542316532980564
Ni 3.205962153983971 4.379618305063493 9.30526834283387 0.600031714485728 0.4146027260525247 -0.0839999971617392
Ni 7.428832948076484 6.12519789854559 11.423731631862118 -1.4132055670492112 -0.09394322441738014 -0.4336890532600144
Ni 0.5800481416318194 -0.21196795505301524 0.22902276477392683 0.7895379583120983 1.4824438325207436 -0.36152718638378384
Ni 4.559188818324689 0.30272784980679146 1.4014753237421889 -0.9586324712513361 -0.11089193645657676 0.8999550120147857
Ni 5.889058556055159 5.497746326859606 0.18833501671800482 0.4152642708959235 0.9788922499416367 1.7464274787303986
Ni 7.746807504567872 8.858519384958846 11.364380966429863 0.6871651150701261 -0.04637678749232658 0.5964686797248179
Ni 0.11045989225003668 4.784676823108704 6.072241655563085 -0.4524946160022916 -0.27427191550954055 -0.7204961251220883
Ni 7.936142498190345 8.693862554399583 2.2692978143939837 0.5434615314001672 0.2192989017077707 0.595181328371962
P 8.624289500629887 1.456292157236538 3.5421905875251585 -1.2394822970887105 0.6068867897343484 0.10095359429694226
P 1.8375322208694382 3.032780633433676 1.707062836008817 -0.834727410364543 0.9438213743804327 -0.10726308145473785
P 4.8764032113773865 1.0449803899516215 8.352995313969432 -0.6214757432921167 0.334062919525244 -1.0232262959723217
P 8.56310539338003 1.4774047917896986 12.459845258275296 -0.44565368182105825 0.8402861353992431 0.044059452213059604
P 6.187305061399574 7.659171519564525 1.2694041659214692 0.6516329836017875 -0.07244443111365588 0.23561486525897488
P 1.9279464222499052 3.1290499032050114 6.008374352365943 -0.1463338222039544 0.6482224152583417 1.2037547617801139
P 6.942156405584227 3.8843265769327426 5.77866653554072 0.5887430289457861 0.0033874284149941663 1.621679610227336
P 2.297241060417665 8.448601250644861 10.337884312472596 -0.3271664495157269 0.6640933208523273 -0.0059089092852672425
