# total energy = -340873.9362994218 ev
CRYSTAL
PRIMVEC
9.15616129149034 0.00000000000000 0.00000000000000
0.00000000000000 9.15616129149034 0.00000000000000
0.00000000000000 0.00000000000000 13.40096756905980
PRIMCOORD
 96 1
Ni 7.519488184017922 8.870488917096473 0.42681719861388034 2.262954390523251 -0.6335961807047347 -0.7291910817929248
Ni 7.645009997152186 6.306104552945934 3.2777829972843193 -0.4718552799170906 -2.3732578014662096 0.5893860618464237
Ni 2.3718852322419566 3.5398085232299397 7.982768878774912 0.824373835044361 0.522952612813538 -0.43421381541523285
Ni 0.48551917894551627 2.1004874597485044 11.02013763726372 1.0312663926679788 0.5973091733482423 0.42888186167935816
Ni 4.783654702430726 9.358146059669304 11.192072946857161 -0.07337079958266719 0.3693178860727962 -0.07978235953596582
Ni 7.756980691792125 6.959085341149539 7.615354106820246 -0.497627246674872 1.0079837679909545 0.6690419231068542
Ni 1.180476387917524 4.458244735344012 10.156579792587207 2.2772067866772074 0.26521726150644 -2.380669777659565
Ni 4.717364095742267 4.930464590226685 8.573483193113205 -0.003544779928464863 -0.27696668873288427 -0.3720239721500496
Ni 9.106754499277272 6.766860894075299 1.431839564210007 -0.43889836537509574 -0.4293567444332476 -0.8759589062105043
Ni 3.1003677252457034 2.310548108732843 11.458309391313284 -1.574213703435889 -1.0608456489869924 1.2914772020987628
Ni 3.706945088767387 8.229026579613047 7.3456868487831635 0.4598808811640338 0.15156241759274544 -1.6343176107063209
Ni 8.594925091282132 2.191353202949645 5.316405023025655 0.37990054668464895 1.4950625497260188 -0.08536730982291103
Ni 7.828105751565046 5.553669542387352 12.86744808519695 -1.4128859789262636 1.6744841556228773 -1.1064094536597204
Ni 6.415401648531587 1.9069719939528458 5.896948673564286 -0.9638438402489466 -0.6374911448837667 0.7257416897917437
Ni 2.690702763304404 0.1645023379760842 0.5053733987719324 1.1730362496503346 2.2244392651671885 -0.12236214187970539
Ni 6.731765328407224 7.891603729104336 10.029377823882868 -0.15164032201853242 0.5595617793961396 0.17540040055260758
Ni 7.071962495742813 3.96495655366712 7.5682227673273115 1.4809101694850368 0.4282434567644109 -0.9361528020915812
Ni 8.748006949462289 6.6100524783092025 10.053861398784104 1.151948061521468 -0.5289558815848245 -0.039965227539027946
Ni 7.874719767953297 0.7765166299855589 11.881324036203722 -1.745578757576858 0.44519833945119464 -1.1672751787968412
Ni 3.916108433959534 4.030688634525744 13.266113750754984 0.9471707504686397 0.3591633141372976 -0.08238097350107748
Ni 0.6060398968624832 2.7903309527211326 2.752920709515649 0.6667209882831614 -0.8416290225803827 -0.49613729239290677
Ni 7.438208941535401 1.3568881446946686 8.018924727903556 0.010003905290247287 -0.10954185018658555 0.4011908235219929
Ni 2.0643297793876307 2.622022398557149 5.224983500843024 0.16880063584790284 1.78740726357687 3.6184160658937747
Ni 5.799182847324413 2.1630331965287333 3.5140018830432793 0.2528199162833517 1.9661647535271685 -0.9641312895823784
P 5.809144750649971 4.8695303378079435 12.455636003467193 -0.6406109214596709 -0.43773288431208485 -0.2226433926999714
P 4.849359314805916 7.23864125322302 3.0272383817981825 0.8682767070748983 1.4403723572719904 -1.5465139235277752
P 7.328820284338301 7.345099938853781 5.205190627296277 -0.020905639804415607 0.8377433143727314 0.00331569463679429
P 8.75365630088864 4.357133247821823 11.352495299427117 -1.1580636875009023 -0.47636808018577953 0.5417018683965832
P 2.0726069490625436 0.16978544295664227 11.038283317420511 0.7240360199545466 0.3728402974037579 -0.24990917039445992
P 2.170467999378323 8.36553578612109 4.865409149676662 1.1284893162778953 0.20610888538005795 2.4692126569969797
P 6.39966220752365 3.8180367919374234 5.254747433876472 0.675085815308089 1.7702739463306931 -0.3254677216570653
P 3.66971613755257 1.3064010721421604 7.163674268233736 1.8865927102297961 1.1681992332730076 -0.058076078207125785
Ni 1.2623141562298774 4.925465326241616 5.051923814660994 1.2267016003842743 0.24215060949496361 -0.4742456345261381
Ni 0.5763702722888256 2.153849566900484 8.499965628433143 -1.1187769740861377 -0.12870993847460413 0.1488984976073371
Ni 6.978084375525029 4.676399430780367 1.446125006828147 -2.6748587438080063 1.5938271067914422 0.9239194932501831
Ni 5.408013330895639 2.6771058640043544 8.379276437151113 -1.140921371393661 -0.9216767199625933 0.9307789393741775
Ni 7.423366804319657 3.153244555857008 12.691024425410317 0.12532970914846156 -0.23331089971614657 -1.2549459399419485
Ni 3.166933016768506 7.143527051250685 12.114434405254016 0.05896208035650491 1.6509901862659953 -0.26844605285638284
Ni 2.8549459819200904 6.08690605513907 7.771595756211478 -1.047170722603061 -0.5792392032204089 -0.9796301565489257
Ni 4.021733908926116 7.743328855525206 9.603722542118264 0.6247189328197628 -1.803585158888313 1.0897823866260006
Ni -0.14146909900018836 4.4320947391144205 0.8682073433058477 3.722557056779763 -2.059998706060194 1.0331872638397754
Ni 4.209847239646334 1.3059432640849198 4.910020713622543 -0.7351627259953274 -0.12579585015160272 1.4882768942627531
Ni 0.7825020125259243 7.199004231627118 4.009475640385438 -1.669810661406608 -1.0662022853132154 -0.7987818455078695
Ni 2.3454513950168767 4.1036723950110625 1.7793268670490985 0.29998423267398017 0.24931910221894482 -0.07041865893287873
Ni 5.447998286615046 5.41989802806161 3.929699839562897 0.9973962222830951 -1.194523472989833 1.3537619190705974
Ni 8.414722683791034 -0.007747027944627712 5.920990005882226 -0.8949087078401298 -0.4533232825511741 -0.8573184082911816
Ni 1.8486197789769416 8.20685951348145 8.68152223215756 -1.5578275487683815 0.33081972999759796 1.0469082129702936
Ni 4.069483289296325 5.234632263457429 10.906390647361684 -0.4001772946558141 -0.29144277086187226 0.23151446993735614
Ni 1.6295860920706846 4.066919564175777 12.467455691889034 -0.8647404117868654 -1.3359696280841828 -0.33165456719406755
Ni 4.6470905589558145 5.285430645488861 1.8115162671698088 -0.6537220049203322 -0.5168344157309421 -1.0569653400959798
Ni 5.823171989523828 0.5305015674177619 1.5780176768869736 -1.441478960072608 0.5380935822200347 0.626346698231173
Ni 5.914669507843961 8.896217729913403 6.448920523250524 0.7083561473254446 -1.1668617454085066 0.03478831132377879
Ni 2.236950885450822 7.430911481102985 1.5522476613448928 0.6564748850751211 -1.618700472994354 0.7314153431377532
Ni 4.34514783288326 7.704222891275703 5.152926343865561 -0.6051469242251062 -0.7111841036925429 -0.4183624502052731
Ni 3.378660087081201 8.975125526659417 3.2096391835801503 0.3082600995295272 0.22993041327968788 -1.1553648005125006
Ni 7.647381442888693 3.0937386645768576 9.905687242977567 0.48993193491314335 -1.1707142863853772 -0.1598511399640989
P 7.955687700956894 7.477717776875277 12.080007239349513 0.24889718419017776 2.2389220321643957 -1.346802457033629
P 3.3925133588933054 5.428312540153694 5.6413114012494034 0.032126962441531765 0.7398189938204162 0.556727652381454
P 2.2226581179037668 2.4726762541240768 0.24295690474542891 1.2764164511108984 -1.6447192656556189 0.5908215087413695
P 2.4910709818640093 5.709058753176002 0.17372625471337053 0.7619942443658748 0.4703074758139965 0.9448194766276439
P 5.521009515583798 2.967182205233229 1.4184257881328535 -1.420850742299295 0.12201401451166727 -0.3171396614073441
P 3.653372389909076 3.292674577770246 9.782277756219411 0.5904289012886412 1.9551684024166651 -1.392090639447467
P 2.724955962147156 1.9901648741146318 3.228949527434565 0.49189188685299157 0.21358256804928377 -0.8286261825628116
P 0.5692779098660522 8.867046200506023 1.3119561151087193 -0.7260571641496335 0.629285983365155 2.1204093459377678
Ni 1.1357668530473937 1.0043576282970132 4.2921821875088515 -1.5629358165292244 -4.159603970768417 -1.4936715829157632
Ni 0.9904311071957501 6.216081176570116 12.130287382660148 -1.766869291524518 0.5201889340254718 -0.7089870960412241
Ni 7.999527400518266 3.898318012855159 3.584142655493132 -1.3342968683674505 0.42655938419376865 0.3319646422353186
Ni 0.07290135503501459 8.941559039902526 10.31157528844663 -0.18776097900048955 -0.15348174610264534 -1.268439346442693
Ni 7.885661380521351 8.307897751714481 2.72871822876156 1.97821988491949 3.5205560229204917 -1.0748003113948714
Ni 0.24130513327490433 1.6029416631392739 0.14975084675567327 0.3579615805197125 0.2933631278130367 0.3023920707845244
Ni 7.578087615344735 2.5059680560466226 1.4442223565422545 0.3591717987777298 -2.141299302012899 1.4808168384402818
Ni 5.557359475328711 7.014516740720246 12.164272305981356 1.3643705478243793 -0.11878702293393736 -0.3138149679094853
Ni 5.244108890242312 0.28953429648910123 8.62671162031247 0.6003309908937016 0.6619595623387761 0.658658522990001
Ni 1.7114147042218935 0.6196212306885868 6.913397928269142 -0.9521669181316504 -0.023412722496985484 -1.5314588289668658
Ni 3.1205662167311643 6.13507661892194 3.5389945405041656 -2.061819561319017 0.5039048521534677 -0.09285950443489814
Ni 0.664895700701352 7.345539434588733 6.679430542535692 1.649273974905837 -0.08821943455972549 -1.2387929843311698
Ni 6.195333315415965 -0.09676780467508855 3.963376200253525 -1.3674540718457093 -0.8580102921518835 1.3620030760334672
Ni 8.27007365002525 5.39886632591197 5.462462274375509 -0.4719663515736581 -0.15477655365466894 1.129604917939577
Ni 0.9149321492439516 8.482679711807847 12.7279036112694 -1.4268283000389685 -0.3958727537431892 -2.1961229347209983
Ni 6.235263334168502 7.166957667620266 1.3112272846815922 -0.7711537993779558 -0.6046069925612361 0.04384862175383415
Ni 4.34988156819513 3.6256933147683013 6.364521776665966 0.49358341562280156 -0.5787049279834936 -0.34648957532437097
Ni 5.425336787781629 3.0297279420134577 11.19689641254825 0.12420099486065705 0.2154913550362224 -0.5267521890652863
Ni 6.854842446515823 5.177653472653247 9.764588052887628 -0.6066782732679681 1.316406618350591 0.28460003690842595
Ni 6.0905318949524165 5.908672222294107 6.279009640886198 -1.9234893261458292 -0.24669734832538154 0.3551575354120141
Ni 2.8797408663002484 1.3596258368769683 9.30138335426814 -0.25959425889270776 -0.9686417758582221 -0.9122520842145837
Ni 3.482326143562793 3.878559017104649 4.027325576537254 1.4308294507785615 -0.4157314403403292 -1.0242678498629587
Ni 4.471045048624463 1.7486711239201447 13.169358764705498 1.0826455184709032 -0.9632743408987215 1.5589971435964507
Ni 0.2975459374908141 5.350173860943845 7.946559008295513 0.2962998418438575 -0.9615437313608601 0.16726902969472482
P 6.471766976539066 1.2971625055470422 10.212944204978571 -0.05382321646804279 -0.754920625348545 -0.3984734245908299
P 7.8183727522681075 1.3299781870900582 3.3069032521892883 1.198282168701317 0.28224079264763 0.47918909457434244
P 8.957857006740296 9.011264894698 7.9585526637791055 0.9400104852747745 -0.4628898431936867 1.6264898871317859
P 4.6992074281921 8.627942208370333 13.29110640821587 0.25231752272563646 0.6179024241185617 0.9002339767077852
P 0.7154377102207291 5.174091725967914 2.8579308904532996 -0.6781667682262579 0.20013287030228114 0.4355896127168369
P 0.4796729700545521 3.5728164841569963 6.677715593553268 -0.15435412140526966 -0.10184371021137943 0.5667657533437465
P 5.713252274980326 6.806122513064264 8.325793468672021 -0.4057858990918431 0.9748337636015469 0.6252676062343812
P 2.256691568879043 6.464735044779848 9.833040429222377 -1.0276064273178882 -1.4065235270433454 1.6718048090185014
