# total energy = -340859.7959171296 ev
CRYSTAL
PRIMVEC
9.37348215182195 0.00000000000000 0.00000000000000

0.00000000000000 9.37348215182195 0.00000000000000

0.00000000000000 0.00000000000000 13.71903861528774

PRIMCOORD
 96 1
Ni 1.935164743367196 0.9356731640780616 5.406960956297065 0.06578655947750607 -0.5892279390020047 0.22635580855455212
Ni 5.082386330588779 4.177264156566744 8.808294829936546 -0.024814230830202424 0.38060245784768 -1.2670177835048178
Ni 5.780495153465677 5.3782696650803965 10.717518461721486 0.330513768721405 0.13789469029766574 0.7480339255310408
Ni 7.8182432844232 1.9331681916898622 6.700145287321982 -1.1901489980712214 -0.994146604997546 2.078786271080342
Ni 1.5231158457901506 0.9246349516122018 0.6296449099602552 0.37029336261218804 1.3418746807147084 -0.5497504497326725
Ni 7.803002002604681 4.824193767433117 9.125753108070038 -1.6459577660484104 0.1316883043766377 -0.6789686953022629
Ni 4.998203088268903 0.5483758832107217 12.19777499817154 -0.5818344747514108 0.05294929850352171 -0.18124991735484913
Ni 3.338178163609571 2.31166939699847 12.927011280250737 0.13765480637271776 0.9389367925946217 0.5942590736680089
Ni 2.4596110642442786 6.958132571220679 3.087758091772431 0.5276309921258139 0.822070640832481 -1.1143536482074614
Ni 9.285324454499264 -0.18515532834525653 4.018745452172093 -2.2532582462814097 2.009249243421469 0.9075739620126241
Ni 7.989693644658459 2.7410217424457404 13.575317855630727 1.0146760924094655 0.3270623198376948 0.3473023010336535
Ni 6.743348603453431 3.8672362376568326 2.2052531925965857 -0.16617373974801705 -0.5544463125464452 0.022926526889186324
Ni 7.383857379113356 4.074268335766075 4.684516699313623 -0.34873466260480585 -0.10841082190593587 1.4097389486568497
Ni 0.9939077960300374 1.8447950028922013 7.483570606498991 0.4504436470105339 0.1809393280929658 -0.4152958954648074
Ni -0.12210460131434148 2.0682119476304544 11.689732270887575 0.4047230050449675 0.36282739325244606 0.028708937898918298
Ni 1.9334493961514587 1.9599482299158824 3.011960366497356 0.25228461260517193 -0.41456184551226016 -0.2390930536155624
Ni 3.52169219524731 4.304049874818458 10.726957558149067 -0.40646826987084833 -0.012157204187824223 -0.15429987112856652
Ni 9.994568974055376 4.228912042679929 7.294865540500183 -1.3753561003016055 -0.5107671264909397 0.6280487685239442
Ni 3.785396365850259 6.931436894333137 6.479049216740103 2.463718723761944 1.3595846963999616 -1.3264514041811026
Ni 9.31209511924323 6.958554377913073 3.4603802491372657 0.9098478456484653 -0.9169685158536465 1.263660436996811
Ni 4.658358122947732 4.36503374905664 0.7711263733749918 0.22042453067178167 -0.6184487835403348 0.4706183221861959
Ni 8.34154604048979 6.024664987469737 6.721162508781688 -0.6451728297987406 -1.928235839691879 0.3919482218778024
Ni 3.978855661946454 8.75261072245125 5.0359163559617866 -0.3336420299377415 -1.784084112740908 -0.8551494256643208
Ni 2.0767043223706625 4.99705952345841 0.8633436271626742 0.2833653931703765 -0.45292219045801346 -0.4343840224445099
P 8.093467464469544 0.767219506055214 1.3415411875892203 -0.1751124369985436 0.03512821116170079 0.024059097831732757
P 2.226417577724528 4.2169983469903 8.754832237697862 0.9147445116191344 -0.3412591801633671 0.24944740026669301
P 3.7661338602309127 4.8591099880813236 2.6094021194991854 -1.1039805325032535 0.8051687228708199 1.2288947513808512
P 5.253368016721377 3.863749302333039 12.342895247319333 -0.441600080576975 0.0700155099571891 0.6509768380750273
P 9.458968209534973 6.786063561169908 10.86410659815881 -0.8247710704827796 -1.0809079669545063 0.6968900556673739
P 7.89238752746409 9.141891432121048 6.573930414127308 -0.2917960404362329 -1.0905760861718896 -0.3964934180463236
P 5.392789188780817 7.882479756933846 13.439828859292609 0.03857914582477872 -0.4110880280310469 -1.2890109999464574
P -0.2277549922324787 2.785939468444721 5.6085620589046785 3.549398143963165 1.3265125964363411 -2.641141554061219
Ni 4.010828609229952 0.349745237065771 7.22739521668118 -0.16004885779720177 3.0812367679578934 0.6267213079617723
Ni 9.530112938318835 6.279061290393848 8.567731911826563 -1.179379675369859 0.6244618225036342 1.3909171879646562
Ni 8.684934182027076 8.802805718846187 10.444661085893578 2.6819873844329876 -0.12413903127447007 0.8579341874983096
Ni 2.1175258367123906 6.108042110333038 7.4013801664636265 -1.8669083444269912 -0.4485801114392339 1.029973127777852
Ni 4.7039601131365965 3.732614288408635 4.665406044103539 -0.1535046289207808 -0.08186263910376225 -1.4240890467309344
Ni 1.7087482843719157 5.334739214425291 12.118315053458275 -0.42102585597004905 0.23835797522175078 -0.010220906397059817
Ni 0.5168538004139829 7.804689229374259 5.869073621520304 0.9655654509257435 -0.5720316297283761 -0.738862800554734
Ni 6.905369240743161 5.9975287569256945 3.2932004473254497 -0.15878104682837169 -0.3179055930390912 -0.8799207190717296
Ni 1.891587425301824 0.29614016789987535 9.298613240006098 0.11634318937913513 0.12404132935434123 -1.0553792265557824
Ni 5.946237063130532 2.7880672488708 10.473195839959958 -0.08307799956810208 -0.03783583990085096 1.7415961187800262
Ni 3.4210772388881576 8.590983771407755 0.9058598670596227 0.15974058252816362 0.6096864639666726 -0.20803489875817718
Ni 3.0212044944982313 8.0775700389073 11.894145418111151 -0.8964248873743401 1.2078518146676231 1.2729853139421625
Ni 0.3891091749482251 8.327767021871573 12.742859851833378 1.538561501449918 0.5209713207174511 -0.7174614520608225
Ni 3.312832268137692 2.182887127069422 8.747766506926151 0.8469612334265737 1.5053531330187493 -1.8721937611956465
Ni 9.261225232140461 6.16190213821078 -0.15795254607863668 0.9596696542665988 -1.6985756493544424 0.5269370513825828
Ni 8.08633424462705 4.419165607913926 11.930844475045877 -0.43715387188016325 0.6281009619181184 -0.46106924504518015
Ni 4.074333950140447 7.797780973101044 8.626023722019063 0.2444512326036822 -0.1765730807044701 1.5162147583236016
Ni 5.566423570334475 7.698225220213904 11.220980368326048 -2.4410464789754087 0.8216849753582881 0.44815665074857014
Ni 6.999150928685524 7.575357617460431 9.51025709128552 0.22465502381336147 -2.2016397507741696 -1.957689626176622
Ni 2.3854855681674967 1.9716088415900752 10.699780084283992 0.23677031901965678 2.21846402142036 2.155241623125604
Ni -0.17825738290229953 3.1564732140081007 1.769207243615118 1.834984242024885 1.065919463965474 -1.2648871103150603
Ni 7.500322893624487 7.199002939542008 5.165465376722787 -0.2203229720969109 3.2353515196588476 -0.5810896261655862
Ni 8.17849432017421 2.296465609108164 3.466855450539623 0.2576016539427112 -2.176695422124006 1.3078415023893992
Ni 0.14134086118393843 8.688580466545774 7.899861004705114 -0.12417322694651518 0.13743729104527297 1.3441164255610336
P 6.327906505373123 4.175351966227889 6.940845995618149 1.002002353596539 -1.2510509757629165 -0.4612654202163862
P 0.8511590378417069 5.599549455910517 5.57514278334037 -0.603009309056813 0.5277608328354588 -0.7021754724360294
P 8.094554788387716 3.0119716146758195 10.161019518963451 0.07812939731357511 -0.022793086635115582 -0.5462406368072013
P 8.64551868999333 5.719961206366049 1.9609989972540471 -0.23409842861444846 -1.6754956276065271 -1.7130442752842627
P 1.8271916035962734 9.03900809310502 3.5259852500276803 2.6519281031537614 0.4572889520671415 0.055336824899091794
P 1.0733761768771493 2.918499251641213 13.390948025081531 0.351596300423317 0.6983612408962618 0.6148564382033862
P 2.113307769788446 7.073220183869987 0.0909002795592064 -0.7865925025305291 -0.1294920680562673 -0.20836862794851213
P 5.989823754677956 2.1749009203600873 3.7511962792309177 0.718528459872756 1.4483471479473509 -0.4040488617960783
Ni 8.110320985201215 7.967281649069235 0.571584624774469 -1.6285969061724597 1.690859254546791 2.7166767082850565
Ni 0.8400167797250565 8.447700724742392 1.6852189697219486 0.04125000778872251 -0.9938465572586238 -0.2534308103944732
Ni 5.8195638266634555 1.9062381777509907 8.27444596921189 0.8354378061680062 -0.491023111094793 3.2535526160479065
Ni 6.762339278093234 0.39088919919012965 10.090338777541223 -1.6140881710333232 1.0310501628921147 0.40461193338839996
Ni 6.848134759326262 5.586464074964237 0.4000714622094539 0.4817398860206542 -0.2057083075075296 0.12807616154534715
Ni 1.7341785411822737 7.44653785360317 9.586040756337516 0.9870130792765581 -0.23936404788876195 0.8827504752110411
Ni 5.896285777268977 -0.09766793360162379 1.255334210494056 -0.03487752860347541 1.7320331576819394 -0.2349080689999374
Ni 2.841402361753563 5.506142707250283 4.798178605342639 0.9377515140372689 0.3766938668218932 -1.146642075927522
Ni 5.663017302892801 1.8197115649178122 6.2494748316410975 -1.8566969511116282 0.8013310942922844 -4.2423724095159
Ni 3.887126766573744 5.85029947431593 12.88869342296542 0.9473754102802782 1.2183784252305596 -0.7165296842751724
Ni 0.5956800977404498 4.565204458302934 10.205428264886944 -0.004681978856701614 -0.6146672050107156 -0.36377458765706383
Ni 3.7993253601813284 4.557752540070632 6.6630347345251195 0.8330034856949009 0.32694533464385633 1.997974698948914
Ni 1.947190920841464 3.4739717981144196 5.460369182339845 -1.4818041420542156 -1.0630511412787433 -1.2871857738122607
Ni 1.2781773862577281 4.748849718689418 3.0282036735473628 -0.37390139167842057 -0.21654576444266577 0.8056281790057415
Ni 7.461451063549826 7.1920009484482605 12.345487952455251 0.3742088956165104 -0.7819948558575177 -2.1828102767724924
Ni 8.625300089204556 1.3146121109985542 8.900432409126777 -0.38390555407898397 0.5674928613177582 0.8838642771005101
Ni 5.890877278124274 2.3067108249923223 0.22229493893648403 -2.000926582488386 -0.4285869561467587 0.24328035222403263
Ni 5.328824547249715 7.019444517330723 1.720422018920983 -0.9631339586661153 -1.1132174777204893 0.3066315627871687
Ni 5.718255232632365 8.440914323735868 6.874994472149735 2.7657595818546366 -1.2683141337187385 -0.48762591248778603
Ni 6.7016272348345955 9.755732651339592 4.7168383401295015 -0.04435384352502684 -0.331671536474932 0.61545987611534
Ni 4.076508597976792 1.3755303708623638 4.201249959792702 -0.3752170251660506 1.505646238779136 -0.8969175107400423
Ni 5.766406809939704 5.745635173709791 5.426689323974457 -0.9390020986149182 0.28329108828901534 1.041261813317794
Ni 7.3228266374649085 8.359308788980623 3.003509235078182 2.0627770401362797 0.44591696278477394 -2.53118421360377
Ni 7.348313135167585 0.7613751399950377 12.58306072979026 0.3901343085975152 -1.2689201427338532 0.05246541688856771
P 5.4957193952071135 6.139283926016385 7.797435091613281 -0.2391071946829495 1.9642233135300822 0.43273465976654507
P 3.560938964604099 6.63476618734905 10.502390487162886 1.251891983606973 -1.6218901835762456 -0.07836696724567793
P 3.5338027340600573 2.489240641014475 6.418150641188606 0.2331689748216436 -2.042894699390056 -0.06745777653234189
P 4.678754819895516 0.8460176829355214 9.890850457788405 -0.7603831911250131 -0.28057240380627163 0.433564354756692
P 4.131718407270197 1.58128767541237 1.8836377751724969 -0.28398580036319476 -0.49993661153433894 -1.0382006578939666
P 5.523839841366742 7.936499134006494 3.75926309788591 -1.5824067807696425 -1.0066066851377697 0.911338571261379
P 1.2323879264277986 0.4541986343257133 11.381602482093438 -0.15358510444972903 -2.329568588108375 0.4507038426504561
P 2.327576196042767 8.671736319296157 7.2106307440290145 -2.6500488838531777 -1.8557839523790556 -0.14152431663045303
