# total energy = -340875.4573961877 ev
CRYSTAL
PRIMVEC
9.12376008616431 0.00000000000000 0.00000000000000
0.00000000000000 9.12376008616431 0.00000000000000
0.00000000000000 0.00000000000000 13.35354512990260
PRIMCOORD
 96 1
Ni 2.635206521382303 1.9665626347711127 3.306351230651574 -0.4201503953436313 -1.2049994328204925 -1.0167715414859135
Ni 4.425607595109166 5.319836451516247 1.1538773847361559 -0.2296771596183012 0.8843831257184576 0.062385247105440945
Ni 7.718025931630293 2.9947009189514717 0.41617028326684724 0.06191884899198369 1.4781745157214283 -0.43073177040390337
Ni 7.728645988448996 7.036544914483094 0.44156718203019785 0.8906458187987177 0.17016974828128756 -0.4605552815232391
Ni 5.261517376614919 6.627225662715528 5.251669189905205 0.9822133438950699 -1.0184309314662072 1.3675404609119286
Ni 0.42685785591068576 2.7045288510287815 10.06766514683939 1.0893733241130399 -0.16641336656264888 -0.141262321218318
Ni 1.5081940484181997 9.176677962414855 6.896265277370626 0.4037333874381886 1.3219648291646586 0.17312831668897927
Ni 7.322948869462379 5.149988532498237 1.787852807515984 0.052056611485923256 0.1424882232056191 0.2615148729541883
Ni 4.013852299380609 1.3718668242042378 0.8960025153809265 0.08600494340690994 -0.3676032173745346 0.20757184307882962
Ni 5.505158267754635 3.35191437648226 1.5450449156782846 -0.43200240958621083 -0.584550073910361 -0.7224941293887235
Ni 5.250514121869769 8.627756056538212 4.363430994414927 0.6400483640879816 1.022691249404458 -1.1452331113951373
Ni 5.118812644053644 5.0690425324161685 11.289460714534394 -0.4550068409011841 0.7557158675563308 0.7941512887143936
Ni 2.834542433216504 1.766734039888621 11.635878939051533 1.7157948414462063 -1.134981094649826 -1.3718198050135728
Ni 1.5187228676353668 5.888173718999591 9.385071943329475 0.4169480863562497 0.025507914463117363 1.158614674908366
Ni 5.538615096237609 4.84872197222886 3.4287765815196107 0.4054349435103276 -0.41157756607295565 1.2806153196835945
Ni 8.728673967596347 7.180828057550929 9.567614662225099 -0.7294571909701179 0.03530124640445534 0.873436911119599
Ni 2.2369726382012693 2.764471955237437 5.418321055741436 -0.7407350778767824 0.5200315825120011 2.274009105675516
Ni 2.072334386230921 4.7761424602075735 7.438792339755663 -0.29725012157226877 -1.7287017793158614 -0.8156788783735243
Ni 0.9657773835310197 6.471090755208265 11.726122050730044 -3.0495276097800703 -0.6584680042457498 -0.8220634417436293
Ni 8.4677435509657 4.743689245341488 9.533656939309697 -0.766921506464163 0.4514420063680612 -0.8660812420854761
Ni 0.49347316591961354 6.207067383885575 2.9780144740066907 -0.5062111316891411 -0.7839051855063531 -0.4030227345244091
Ni 0.7572620566063575 0.33197531219410864 10.993065329810987 1.5305653706183189 0.17312214604139217 0.28796175429180726
Ni 7.7232720937185695 2.7719169435227125 7.9337554157083465 0.6449442587277021 1.9351384803489835 1.3523737804738192
Ni 3.751288729682484 5.143802623114147 9.493288862510427 -0.564743580707395 1.0782430185278333 -1.618765779014651
P 1.3938003436133106 8.147864519983136 9.228260965194835 0.807362645198345 -0.10503702033769653 -1.4344140828060263
P 1.7951180577262356 6.614041829293686 5.375336284530136 0.3496813427887913 -0.9800315057524025 -1.1780763831774035
P 6.3058047162670166 4.7907131051727525 13.17128277737559 1.269441305344646 0.40822433333000663 0.09191359558186105
P 4.0783481599058735 0.4737156633071564 6.952068931597626 -0.28829702614403896 -1.4376212768894143 2.156965547795247
P 0.5597727938272294 2.922714451340164 1.6893298834981505 0.2928370801062376 -0.32576314141029705 -0.3991336838826481
P 3.7261710179798313 3.753359823237334 3.9013983059843595 0.045766150491521176 -0.06824684809254053 0.18043539187335378
P 5.482996654341725 6.810503756679526 2.45966993790857 -0.42672059236198123 -0.6343094047216753 -0.1340925429427562
P 3.555574950629232 -0.003238934854501167 2.975557445397347 1.3250498958478856 0.8986056970757428 -0.03393804750834155
Ni 3.5383310439390705 7.787120167272933 1.1914152711358013 0.3973351972213286 -0.11364430239073331 0.40694469528663463
Ni 1.7853738818822713 8.095913829668968 3.4063157087736644 1.3549916777126405 -0.2114611508309068 0.674717890445709
Ni 1.6296951623826843 4.385745886998418 3.817778131801293 -0.09373496506131598 0.3185802505086126 0.25201644654544986
Ni 3.646712190802787 6.381677905703726 3.532880509623355 -1.4833077231829357 -0.08277409517443808 -0.06500391567521063
Ni 6.156941445602112 1.1322312637719192 7.890075413973349 -0.8575374662805231 -0.7407929276979113 -0.14224885350130342
Ni 4.017483555921712 2.517874965807979 7.698599621511409 -0.6565677018992435 0.5714009381229127 0.30132223475911335
Ni 3.2812873491338275 8.173821617619913 5.504024184367553 -0.19452760830036178 -0.07179959844080537 -0.22642831366370034
Ni 5.2326771707696285 1.6648763815346743 3.3193042329415325 0.19397019313499494 0.22592823409883026 -1.6566237304026887
Ni 0.8300395542229757 6.9394498589292875 7.272287366457904 -0.9498650094713512 -0.003214393172239625 0.6695106352131567
Ni 7.510752348462526 7.80220174280671 7.6519817690069765 -0.02576528188956208 0.7146540645190144 0.09012333645065769
Ni 2.7214443023534156 3.6379989998561713 1.6257810692768222 -0.11150205923674991 0.5353152481439492 -0.8915307925068324
Ni 0.9829118050993385 7.724020242051158 0.33112406537178474 0.20813748577431251 -1.8933655101772553 -1.098502540107818
Ni 3.0892595691825986 6.43486030363862 12.152273727604847 1.4528193247860917 0.41747361984241654 0.8740997415145784
Ni 6.510414161469955 8.939642673626292 13.168932496760041 -0.1898901095283504 0.9101124121637615 -0.9364219965925679
Ni 5.157643367267044 8.025597010165754 8.421320034552538 -0.27158614114726126 0.47595927478313516 -1.342484032163933
Ni 4.000686713479074 8.729294383286785 12.377494659370612 1.347758650299311 0.570113843880373 -0.5119842867274924
Ni 7.4538657039053 7.104106358419942 3.5948144182975095 0.2144963381128048 -1.4935599970385631 1.1205857451601025
Ni 5.408200068603131 1.7635133525544266 12.178780075602866 0.2650887063483757 0.6382372790211718 0.03746225861151613
Ni 7.8424466488439055 1.6132085277852657 11.284827669128436 -0.2487431751108168 -1.8583190600960837 0.46018607110927845
Ni 7.380309949547588 6.111240530993109 11.416012742119872 0.8380582745099888 0.923371848276829 0.822262702238629
Ni 1.6846749410678223 0.3158125710821401 1.5344823385485495 1.672884158125609 2.3434952254917962 0.6962277394930267
Ni 8.086634965592832 1.0734742483832218 6.4943764158720905 1.2975735448044878 -1.2883008612533104 -0.9312692487470349
Ni 4.138637967000363 4.583539883366673 6.0089750405602995 -1.9809971905543111 -1.1402487708066684 -0.7415411187178454
Ni 7.385592606676478 3.0120543107634754 3.1006131763176445 0.3821911424910386 -1.208161889708874 0.10488223992738713
P 6.495496813618943 1.4584330605408775 1.4551621925258391 0.03492483690164308 -0.5991619102862649 -1.0789827249073354
P 6.527256622713361 2.311869585301551 5.508857952496889 -0.009750394518544498 0.7242036558806625 0.3116017623082505
P 8.314856702073092 8.299921106701772 11.667072162640418 -1.655863969418529 -1.1379972557683304 1.4882781798143336
P 6.239547970032122 2.243441384150118 9.896312719772062 0.7523631490340139 -0.6281498128781827 -0.21398905945908306
P 7.969942073229256 4.822701008271009 3.9611023676769923 0.9084386240057645 1.650661342171667 0.498073075963039
P -0.05291050988231878 8.141039947388299 2.1710461720839325 -1.6730520511620415 0.33309644184691667 -0.09652512621194344
P 2.4492642894534753 3.0735028353974623 9.210928558031187 -0.8587186310728179 2.1116933062210084 -0.618431042928522
P 4.17241412708871 3.4853858637681685 13.040484551814663 -1.4628990776195967 -0.9279293857405244 -0.7734755055325969
Ni 6.468016048036527 6.250131531810211 9.222732878917816 -0.466349519607513 0.7663784894764996 0.21908550014538397
Ni 1.1121589914341654 2.498906668448802 12.604064082887069 -2.817701779249883 1.4333905266375184 2.023558203844973
Ni 4.3418697244201185 1.7204309571094847 5.324352712792242 0.42826659669286243 0.7115409728113294 0.6289031461044394
Ni 5.947888729204408 4.135846096393385 8.9476898300817 -0.504529373111344 -0.8112707220034996 -0.587757267993749
Ni 6.998891156329498 8.713665382143798 9.84762559846481 -1.2228140924044102 0.47941638009380005 1.154977592376411
Ni 4.6649420714564185 0.8219750626232754 9.925903811077989 0.43015841439893654 0.27364353789692225 0.18144943496016494
Ni 8.077191873833934 6.184467829985295 5.883865479455096 -0.13506981925436093 -0.02246398543047099 -1.8237989148320268
Ni 7.398694326256939 0.8062009936938471 4.217423460678076 -0.5951898130123944 -1.0994204239363967 0.12281542736704008
Ni 0.26833252324319906 8.20508874366604 5.052193684540654 -1.8754408073780346 -0.27023039845031527 0.679984795271603
Ni 6.397224793005331 4.547145204114265 6.018255729388464 0.372992506710906 -1.0756243499580636 0.21241065922836966
Ni 4.099195951856677 3.1150524391366123 10.489703832636984 2.503686008183501 0.03954562350310609 -0.4984795673728383
Ni 2.264042834576776 4.3418697244201185 11.442238990681178 -0.1277447463478574 -0.4290312427730288 -0.4486675289467176
Ni 2.345308166264218 0.9816709737184592 9.038921044984836 0.3484577547943354 -0.5216097256323984 -0.1367124970641065
Ni 3.141146393175692 6.797420284619373 7.748394367301299 0.4923503145466488 1.1920675552501727 -0.46833852501308376
Ni 3.409439684250231 8.113385830362967 10.029313421034049 -2.868176648070983 -1.4841101644795731 -0.1559230085542863
Ni 0.08940372574438574 1.1963165550902746 2.9058519178244206 -0.2393429648428394 0.21177816785069334 -0.12162269261051957
Ni 8.585795883592153 3.6059928492376074 5.73573484673052 0.7838090262481211 -0.6770766204858727 -0.8915187083219743
Ni 8.679223187564244 0.953341698441766 0.29469562820680784 0.4217331664497188 -1.8305557739398859 0.37332392190839575
Ni 5.384788500049187 6.790851177308835 12.940653280590814 0.7347590627990056 0.8316963368477032 0.18076269330578548
Ni 6.576743897786077 8.524995145929067 2.175318828963828 0.2738199155737865 2.4087217987007743 -1.2384602835820993
Ni 1.0240143445909662 2.567234508238546 7.519474663169294 0.04801612286796247 0.01955812463758567 0.08527372166784024
Ni 8.93881241145232 0.627718348066541 8.729600029251928 -0.25876919188825115 -0.12793449376116034 0.00942360730674506
Ni 0.4629268169256138 4.874898040109322 0.6737568418012253 0.1740531424960938 0.29339963747792697 -0.7469563761961459
Ni 7.063177170371231 3.7277403047262374 11.322190379333135 -0.25478166799541285 0.44697600017690764 0.22950592414775955
P 8.864088815794956 4.974967441473178 7.362036882712108 0.8863703313518155 -1.3968572075981749 2.1421498229386526
P 7.165235551448555 8.143913931836659 5.64427645019956 -0.9079403442131073 0.8807118475144574 -1.02283523118149
P 2.095417499419338 0.3203361313662575 12.866154129433227 -0.887625029694523 -0.27082483750120456 0.030044883101522445
P 2.38406589939639 5.929924045462118 1.0456650274352794 -1.3821160447332583 -0.05235048857725822 -0.2417960543690223
P 9.140000446597686 4.305967728216 11.655815267363002 0.6737748098061493 0.42963108114055687 0.4145772721312279
P 5.166657642298726 7.530496165434752 10.858394980440904 2.1999420513567722 -0.9840252002928278 0.12297920663841401
P 0.9649288738367421 1.0937472434443531 4.859034558330389 0.1629248937934162 0.8811738747525404 1.0439725273807376
P 5.086715255833545 5.931101010521922 7.363799593173769 0.9086340278460222 -0.002224261344828427 1.5163335432896532
