# total energy = -340865.529967422 ev
CRYSTAL
PRIMVEC
9.30746178444065 0.00000000000000 0.00000000000000

0.00000000000000 9.30746178444065 0.00000000000000

0.00000000000000 0.00000000000000 13.62241113418401

PRIMCOORD
 96 1
Ni 4.54798887764851 7.2959239303908126 9.357561179889915 -0.12229606452846034 1.063896262887858 -0.6801604016175189
Ni 0.39161890560958734 8.044672010775948 13.365438043208945 0.3285828702472793 2.298570597064964 -1.4106627460226995
Ni 3.9334450904671794 8.69251789665228 1.4101782069113693 -0.07693203457136429 -1.1027823984300942 0.507016915419888
Ni 3.587458809083933 3.7878205415063135 1.831683372696934 0.7128913161916368 -0.5837471183930915 1.627010021301314
Ni 4.077589752985199 7.335564410642911 3.8325289347655183 -1.2573445220811121 -0.7957029494722296 -0.5381051521842604
Ni 1.4984734442702632 6.901520232179341 10.626937964599431 -1.9624405105980463 3.0404495587382026 -0.7383274968765542
Ni 1.9567263311479468 2.477990735120419 11.54499343076193 -0.07736629389530547 -0.5260420503721392 0.8897996687483385
Ni 3.8751710714818812 1.3944718649471957 10.448076469176899 -0.8684638833850399 0.3244462223710864 0.8539944861242711
Ni 1.8161557340013303 1.8686963564533368 9.179952468839755 0.37248188562307466 -1.3184863836977552 -0.05283462730252836
Ni 4.235314002422169 4.860849902112944 5.083624933548022 -0.713603511767313 -1.189176863965939 -0.4789358409129559
Ni 5.912164954095921 2.712278166185414 10.188691467085892 -0.3336916522287543 -1.4865244303480205 0.5842222582572971
Ni 4.2105840761413935 3.8860794168341837 11.595083398494431 0.3413843928873217 -2.3411956308243425 0.12964890534910575
Ni 5.93346973439577 5.320247606804906 11.971197934063177 0.5175489252994635 0.7682754493888961 -0.5238265307780592
Ni 4.017417011771342 3.406391445189987 8.897505437641293 -1.1099110390550755 -0.572131388531034 1.5504016886179557
Ni 5.2211045225960895 1.6690885284452366 5.134314301827184 1.8380497683240862 1.5773085403111287 2.3096921608994223
Ni 7.665486012778653 1.050421535640126 0.041864032901129944 -0.6474991639390719 -0.23098919356150543 0.33526002515713876
Ni 5.923315293457747 3.16173550156316 7.849287908980199 0.7771352137723713 -1.8280826298090451 -1.5522456838052299
Ni 5.336517050214313 5.11931811920634 9.663861374457731 -0.24171403617817727 0.01789179267875628 -0.22658515095653878
Ni 4.838251384608344 8.927661614212507 12.840403186418882 0.04047739128875609 1.078024474759124 1.9316080985982218
Ni 4.233461817503135 0.5615647832736131 3.6711719829471456 -2.132549580844727 -1.0928355716300275 -2.3741265772244082
Ni 8.604897450281475 2.3575801004593733 11.376211916582184 0.06368853929789677 -0.5233012544022084 -0.41569390223417435
Ni 8.470786231696717 8.143777865137146 1.8007602612647737 -1.4841664716388052 -0.38732357862159744 -0.6287655920853107
Ni 2.659616546728647 7.197236911815326 13.055514453721631 -0.769984461660203 -0.7417393507715806 2.0091080898579143
Ni 3.4565865872420094 2.3129322057025488 0.03614180532212314 -0.4157669215639549 1.2187895446260493 -0.04176242864876679
P 1.7511151902113182 4.167704599146461 13.020327593990931 1.2690278719563113 -0.06944781037917717 -1.0796895211663728
P 2.1134732970849237 4.0009893415095545 9.277243368129536 -2.317245804876964 -0.2447430528124882 3.4084888352088916
P 3.1045783780064258 6.407666303516196 2.1474911396003957 -0.21245179687895022 0.35062828008309294 -1.521905895171108
P 7.854697405839208 2.2093959994747157 7.4996009807436455 -0.31154699781091505 -0.9380808723522295 -0.868074361256105
P 8.674535880252407 5.907073772434053 6.837033482372658 -2.699931113395602 -2.18994046005937 1.5367732992012437
P 0.014910553971322208 6.367867596411719 0.7843388839625002 -0.35684135087234026 -1.2216038741463928 -0.4890261352694223
P 5.932175997191017 -0.13661213359854932 8.572651748512659 -0.36890008180908723 -0.6300927955371665 0.5113613084315128
P 5.034517833792658 8.54198831526764 5.329400564841983 0.36825962001161094 0.2496083513245895 0.5144394331362043
Ni 1.2576335600243622 6.777126003823085 6.720561765589679 2.9570578845844233 -0.8488767052817315 1.3584127875790477
Ni 7.630787794797947 2.33505604265001 5.291925000228917 0.28277943875991945 -0.4740947107705706 -0.6172534776806531
Ni 3.7256187735972333 0.3729509292673396 8.425720431900373 0.3884687479696342 -0.5746533836219393 0.33937404732551235
Ni 8.89317746785561 6.153330599508487 12.073911360658634 -0.4530196352678262 0.2929651210436696 -0.3399479175511113
Ni 0.7974298291314545 2.852467157393938 6.089177056837992 -2.0254960442976344 -0.5694777529582709 1.2216763792555412
Ni 5.946853864614722 0.2946733131564694 10.91728610020879 1.0319623902937387 -0.4787599774567239 -0.9509947522004204
Ni 6.783064164518281 1.1197248969824887 2.8197979661084567 3.073305686036275 -0.10994448494164291 2.586807202284713
Ni 8.83525713242269 4.653507573262043 4.545062611625673 -1.4017667290846503 0.5622560383988511 2.1359151548828508
Ni 8.729300986099636 4.862990618351025 2.1894891999529533 -0.6097180885355564 0.011812162143579656 -0.2529554134199515
Ni 6.27123752691717 8.267120350298171 3.3418088285256853 1.1762249317909614 -0.4958799249664621 1.1101020720199593
Ni 2.4369169057349978 0.3417271868156576 13.230412831865147 -0.20196915218007153 -0.6673377959315538 -0.2570442387773444
Ni 8.960768256207508 7.504997447155988 5.569318079613129 -2.6471309388754345 1.313197367384674 -2.757938800258637
Ni 8.8644174105701 8.972458428359806 3.8423780909530674 0.18521018755417779 1.2869353483643513 0.9193532140357392
Ni 2.4812390393251573 4.768464035246937 7.487599008617541 0.3350679637509907 1.269423307622517 -2.5066679736299604
Ni 2.818383231898943 5.504823883836923 11.27792604961479 1.0752919063193094 -1.2224549092927786 0.9789076765606045
Ni 5.148403937658513 1.6064027725171124 1.6227829747231861 -1.9867135242127978 0.9177979537334774 -2.199373323337496
Ni 6.989475747178713 6.951650221998031 10.223401784767074 -0.24439903920950812 0.40907099760101806 0.12137406693482324
Ni 0.6854536164484438 4.343792470921395 10.870711560837693 -0.7442317781761312 0.37291125985100937 -0.2002172024859713
Ni 5.970820579019313 5.823073928744177 3.4133673878875563 0.32269118735319263 -0.8556024540413393 0.6751536924315469
Ni 9.121024135282555 6.239266395274541 9.216201309973782 0.1704775093296935 0.04495342478223871 -0.8087168452333944
Ni 1.2265466372626792 3.648794983035877 3.3717239418335674 2.4478277635633003 -1.6904815594923983 0.26654935005430225
Ni 9.035348948449833 0.4147367794884701 6.610792352124272 -1.3538164264576167 1.262315235822826 -0.8835187208356331
Ni 8.006809255747648 0.2413853015135162 9.293318285585137 -0.03009784782664494 1.0127536785757718 -0.5579113882769101
Ni 1.5846884638934577 8.406862583335268 2.3958821676895763 0.006319514460124601 -0.7698463934204418 0.9939748553063721
P 2.5243884327153263 0.8837100009879819 1.697188686681703 0.6994171929646019 1.6365647548692848 0.60830989533412
P 8.022706400680866 6.497083090034606 3.4409118906483123 0.16248857758694596 1.7485149573870467 0.7850508690750222
P 4.733002605390047 4.94702769188852 7.265281904308174 0.7658228740833456 0.5551150564786955 -0.14059691972017724
P 2.4119077555970807 7.23030632396271 8.61562988460378 0.8557279238756101 -0.6228520548143531 0.09403295591770902
P 1.677418706849939 1.196409075615275 7.032256565077455 0.6479341945939616 1.1065002136013136 0.9345294075555453
P 3.23953657562451 2.590043268991048 4.248094078363506 1.707338226038421 0.9317438743906081 -0.34747276517324677
P 0.4215247114555645 1.198214723224786 13.246923338537885 0.21818381426672104 0.09430960661786338 -1.7592994495970604
P 2.0606255283900627 8.171383797146472 4.91437990776542 -1.133157668287842 -0.3278261945869128 -0.38712946033292034
Ni 5.597302825321977 7.055568034163956 1.4568355826934174 -0.22951569433977248 -2.0047341291599348 -1.3186537625135548
Ni 0.3946335925205183 1.4694248556657084 1.808374695849005 -0.07742748615054407 -0.29722595320255263 0.5779155993129789
Ni 1.139614943072823 0.12693051172528505 11.28353844914332 -0.9613748098831637 0.3559417218762063 -0.9630563113506445
Ni 6.0517024229711165 6.752852143175639 6.0134906381213895 0.09258979571327924 -0.04761143123037607 -0.37302207439726076
Ni 3.3684821528521622 0.3582097711026829 6.177178178400698 0.12941056408605453 -0.893929631756312 -1.822613122054042
Ni 1.0813502315494292 8.823259814027537 8.102297299666489 0.2454719605587127 -0.9877070200197893 2.471526392731821
Ni 1.3507454089189361 6.112610453675444 3.7452640334394744 0.6902229280598435 0.8734042581094505 0.3000562235624961
Ni 0.04540552215586658 3.190197720067719 8.50722308356122 0.051980506832349185 1.6461490561236098 0.8176483433950692
Ni 7.234764598215058 3.1010601574064505 1.7097491065220893 0.05955317697328454 -0.1689793275176122 -1.038962732870972
Ni 5.489485186617985 3.4665641864038435 3.5693846488112047 0.018613501336129237 -0.6971841898690251 -0.3164369789133647
Ni 6.981778476183529 7.911268159295947 12.721411008952112 0.9475998675862585 -0.4059954439994879 0.11614701420792901
Ni 1.5034436289273707 1.327458139233388 4.500068479285995 -0.05214942831004567 -1.6174696859110467 -0.7528637428195163
Ni 6.610401438724274 4.438393513720721 5.886448436853248 -0.0013359452026041507 0.2046505556669766 -0.32010774289673255
Ni 3.53926477134142 6.726763327456778 6.1532840621989635 0.5114404984088804 1.5852967007229277 0.912838552845673
Ni 7.307939863709775 4.843556637894021 8.489963326205151 1.4770144339750562 1.1576816215711354 -1.4148675281326666
Ni 3.680784729602315 2.747627906499448 6.722864431664901 -0.5937651647507257 -0.42720730219041264 -1.3726690403877455
Ni 7.316996024143044 5.5059687016512004 0.11647357827535963 0.12583441669902198 -0.34565396679695315 1.9985436840785067
Ni 3.2493094106244405 8.323951712688242 11.346364747746206 0.5211564401450637 0.6125493873367643 -2.7904825385226135
Ni 7.4435402761992835 7.539965581531929 7.802835297360054 0.08814358701646755 0.6542927898221376 0.03887173736453306
Ni 9.06597049811628 3.3416673551047342 13.646113864406944 0.9599465620770694 0.27992859957468563 0.3950011497715133
Ni 3.9600365091288943 5.349631264038029 -0.024069096485542594 0.3971184532248322 -0.4558092821978214 0.4778883734850479
Ni 6.958081678174175 -0.07481896326708534 5.8349279122259965 -0.1550352066326943 -0.19332433202087995 -0.4715729727899814
Ni 6.890267510736564 3.25406552365774 12.830730872007521 -1.7658670755122492 -0.5841572093473165 -0.7718035171468127
Ni 1.612378163059927 4.844747993017822 1.4694490550666608 0.18702538638604566 1.6191452738412568 -1.777097911231062
P 8.677309503900007 2.6914294515188963 3.3357748009728714 -1.6581581647693442 -0.9342157329698685 0.6561308714721409
P 6.302547828764566 8.991091967093006 1.1036630099735558 -0.19835392402498744 0.5893657501314495 -0.24298904623585896
P 8.808628483913356 8.123450368337291 10.670625329287692 0.173359715973495 -1.174276806925655 0.6406826552378708
P 5.157087799615594 7.246529230062594 11.474171091636723 0.0679982224168442 0.1423270150374065 0.05265696407408351
P 7.376982616118806 4.079870081151849 10.448526019586895 2.120996328789489 1.3632405479849943 1.7530362422961678
P 1.7000358392783492 4.485247276948957 5.367502521641236 1.500541570562719 2.7056654447762174 -0.29970655353256126
P 5.001625263421465 1.9443660217385113 12.268248372990104 1.4717344165230395 -0.7009577979788444 -0.19744658171936963
P 5.62791506752652 4.471565307949056 1.5012982589583383 0.028269536368654535 1.0518282759797306 -0.2051742893809305
