# total energy = -340864.83454635704 ev
CRYSTAL
PRIMVEC
9.27722586851761 0.00000000000000 0.00000000000000

0.00000000000000 9.27722586851761 0.00000000000000

0.00000000000000 0.00000000000000 13.57815781493711

PRIMCOORD
 96 1
Ni 0.12609419732078428 7.580476846039285 11.650629580658729 -0.774539428020737 -0.38714488695188803 -0.031216277701804306
Ni 1.5901999932722901 5.888134596958211 9.71876977190281 2.4797318113607485 -0.8525433555000413 -0.3446288679665484
Ni 4.692578511029233 4.46349597490877 10.069466533016168 1.002888355745918 0.11733949185413341 -0.8017033900300385
Ni 8.941065501321802 3.1508241907663415 2.8014318075972797 0.715607172460903 -0.14571521478334903 -0.32861192371300174
Ni 7.265051169608888 8.069266040571295 8.258167984127414 -0.06898784002362313 -1.4876320615899024 0.9783273785771022
Ni 0.01578798282791909 2.2883854508251957 7.189172739975824 0.012062587591488903 -0.4867453096550456 0.631847316334428
Ni 4.288341952232126 2.0245689813942787 9.673283533916392 1.4797382606641225 -1.1287340852988497 2.478980020796389
Ni 1.9101251242047086 3.3415361210716257 1.226851879366339 -1.4743754536903122 1.5973227786495265 0.9741817318398448
Ni 2.221849187549937 8.00549439057769 10.55371823642047 1.4551310036384035 1.7419897546740193 -0.7399133533064354
Ni 8.82697417871177 0.04141631903788882 1.7222668685485416 0.9755824688421133 0.9868886378835519 1.5135652365158965
Ni 7.153047222798765 4.169945996861399 10.373020143619273 -1.0766651325177523 -0.2913805501653691 -2.640348368735962
Ni 0.40727948885208365 7.828308655455803 9.108282857345909 -0.49822528527018706 2.9323943203994722 0.14265354513888978
Ni 3.0573283093820613 2.032083534273944 13.521387724999768 0.48956478138171167 -1.6018959998425057 -1.4467754325848567
Ni 9.109317268020087 8.461479314760938 4.951845428938932 -0.5110820866281972 1.0152237373828192 1.2152846167965845
Ni 7.392121331081452 -0.013900995104803129 11.285892666053906 -0.4527154737638462 0.10815242603822665 -0.045331376946947735
Ni 5.166013896899705 6.30757652880442 0.8587315605205111 2.05945440352095 -2.2831794593208747 0.3534027575044365
Ni 0.6965990519449763 5.372293012059407 1.529511165404504 -0.46140014602203766 -0.7367169578563247 0.781375477105964
Ni 8.053856568555092 6.049957246192782 13.078467917878783 -0.7847989009652162 -0.14001970706046854 1.6768554840685312
Ni 8.129271136899288 1.641670041885109 4.668306505227914 -0.4555974232973315 0.22163166360600542 0.061285586283358964
Ni 6.085832278273851 3.552695056990222 0.7543238061768943 -0.5246814225791867 0.05446753492026103 1.5358716133225807
Ni 1.616204057126243 0.3543510603470631 6.373926319841553 -1.7631365639549634 -0.14719179932887555 0.04833365410838127
Ni 5.061737879162126 3.144877489043051 12.352891451218207 -0.1904254132065301 -0.48153805442249326 -1.7880101872681917
Ni 3.8687237530961474 6.452848607252172 11.161190980322305 -0.04989045707253988 -0.4077383948325236 -0.30636853893376914
Ni 6.1101571642621 0.6028239260647972 -0.09714832517282897 1.0455635260169411 1.9941632956226236 -0.04879079625045791
P 1.1468877595009224 1.4353538178222973 2.1125848055118697 -0.48783520028511473 2.0754790610839806 0.8270326128234465
P 7.320593920337971 9.34012536813514 3.494460983063126 0.21230164445433114 0.5757111354624924 0.9143249075832125
P 4.6966048270166105 3.9224759992501976 4.303284779791727 1.0321454528388223 -0.26498637644255657 1.2621488854482907
P 3.689023889788595 4.15906381102455 0.03322731184420908 0.16485424960564513 0.5643823407132345 1.3840921946230227
P 7.482026926089892 6.563099158390373 10.702276308238565 -0.6810931978444335 0.2518706649962049 -0.4427321372988891
P 0.2406354653810164 0.37114747761698175 10.900124280611797 1.8969205745183653 0.3401060403955304 -0.8019610145667995
P 1.2818528401100224 5.852305951006028 12.89228420147543 -0.3604216120244309 0.5182451800355397 0.20446723601157687
P 6.23935181043768 1.9222040721668372 10.978578995843236 0.7020700572064166 -0.2458172597132734 -1.0695845715218868
Ni 6.008627205354623 5.521099713528335 12.114893501125698 -0.8746417300609775 -0.9389208517550217 -0.8289120892343467
Ni 6.923092627455229 0.069788858632803 6.092288299692319 -0.6710036748189153 -0.9815075760772967 -0.42529954364473854
Ni 3.2452385175025813 7.074042368078729 13.291305103940505 -1.2712824723184428 -0.5443447053360689 -0.5437788055302699
Ni 5.504660469450845 7.711257897822795 12.661374051876825 0.7433853710154359 0.8330189123138686 -0.33922800866595126
Ni 7.531678638450347 3.4450142973923508 12.405412609511602 -0.550680931966742 -0.5802848708761039 0.8351984364636906
Ni 4.860607624308861 6.50058921110249 4.057737023361597 0.01599868942110148 -1.3737350197584146 -0.586967425102602
Ni 5.9050284250987914 0.44264241807024207 9.016792712174695 0.9174004611847427 1.4907035014263745 -0.8298849946705772
Ni 8.41018553343789 1.5224762450975284 9.36109375383714 -2.1017459652003097 0.35474024536893745 0.3010129310488106
Ni 2.1169144867821656 8.971290702904454 1.5750122469521666 -0.2171088360349874 -0.871403682739654 -0.1292393286155129
Ni 5.458858805787996 7.939143671817979 10.263362407208245 0.5148513238626423 -1.515947363594828 1.0813106017095635
Ni 8.31049246523433 6.6408608648562435 6.629888689929354 -2.116489184947755 0.054098067395984245 -1.7327152713506289
Ni 3.512756600018667 5.806309465601855 6.231247225998575 0.44800212744857687 1.8006021650005894 0.9298733968407729
Ni 5.954503870169477 2.6765816862532406 8.14424643474911 0.4395545109018559 -0.6941322904165786 0.8417300669346212
Ni 2.862719944250284 3.242065706286723 8.80475615069756 -3.0868615703438387 1.8821822398669263 -0.23842996611026682
Ni 6.628642758507454 3.6973177296335584 3.290911227727125 -0.28630442119404237 -0.2397479135907419 -0.5409907012621715
Ni 2.8848646821808535 4.20975457267207 11.460100411701259 -0.41849589045934377 0.030920086617624166 0.8507086162841477
Ni 7.08421020753072 7.227255751791905 3.919986919574131 0.4942344189432391 1.6086315187941265 1.0321979033433126
Ni 1.0954733742427676 2.0682554375798885 4.519775337364575 1.2374308138763206 -0.812133070003795 -0.9125158793989316
Ni 3.2073967135567107 2.1245774752742688 2.7475673070113236 1.1678786167087951 -0.9654340675542018 0.25970353077706243
Ni 9.381223478328865 0.8669038687077916 12.993835498002195 0.5004078947438028 -0.13313403568422877 -0.6207938867337437
Ni 8.791590839596902 5.8413402701371835 8.779745677724364 -2.131447091809168 -2.260134661686269 0.38572718066875505
Ni 1.989037206666972 8.87605070307403 12.662297135841673 0.6693849082685698 0.7253431688017444 0.5134374742342512
Ni 4.4614828169150815 0.5009451434680899 11.886563348015777 -0.8687719015437619 0.19451860943929725 -1.5811790790101286
Ni 6.505960724827585 5.5465749755129785 7.895237345381445 -1.1890678491919005 0.136185678026359 -0.06600073237084118
P 3.632841010480875 5.650656171509231 8.57300455672095 -0.324883309908505 -0.7276103675693663 -0.367048116202013
P 5.322771180859834 1.3849320957223208 1.9064819576419374 -0.1344049319768524 1.5465087813214526 -0.37977919061543625
P 1.0984513637173017 3.8149158435874324 10.244692918053877 0.6923055216204851 -1.7298150669846981 -1.295738548478278
P 8.589903951196996 0.18012012163526708 7.458780981459549 1.7284043026801006 0.7785719462188979 -0.04765693975633083
P 2.2446340540591443 2.4421925769881234 6.77556896631131 -0.049718964491682116 0.03446846609051483 0.03025597067106402
P 7.638190467600271 3.8060097068411625 7.6310470037517 2.5745522961767597 -0.3306559507262241 0.630771823882062
P 3.687687969276654 7.32647568148082 1.7794043743887524 -0.44618410040323153 0.6857756909217674 2.3340839594802256
P 3.847497460517537 9.233511489501666 9.293583381855258 -1.5550612988771542 -1.1980649104841883 0.4834147026199158
Ni 4.31184116512619 3.6034878681212934 6.925077953771585 -1.0652990567726557 -0.030824441580024335 -0.2791539261921902
Ni 2.7205464592121715 4.0185138404974765 5.12885025815816 1.04008656206277 -1.5995370126920259 0.6325823947282396
Ni 6.980815526241992 8.02404884213242 1.8373963127230586 -1.9281854460699182 -0.5753295837533575 -2.3178883235569696
Ni 4.133031915493265 9.299491119230282 0.6036458882686716 -0.5750120525129389 -1.069640621570803 0.5876289699460009
Ni 4.858343981219185 7.3468948554167985 8.091034123135303 0.4338877995343818 0.3860259428560965 -1.0497734503332308
Ni 9.13848486586412 3.7022253820697846 5.456640621104627 -1.0093299976062036 2.3579545954502357 -0.3181925281518907
Ni 7.9099946284254985 1.867691093499043 0.7723104915140488 -0.8243167565541802 1.0973560852082005 0.7966442303395764
Ni 2.638693496178483 8.015884883448338 7.634984258371613 0.4521590870397439 -0.0888508974961373 1.1150673864450344
Ni 4.352967106997248 8.130050423864587 5.63306191282246 -0.8032987595416166 1.865384194472981 0.28210272440786904
Ni 2.6043677608022344 6.165579311056077 3.4060536600177307 0.22816123719440706 -0.8217255987882365 -0.3867877607227855
Ni 2.350589249662425 1.6657258883258153 11.185998282050976 -0.8713082948123704 0.01875671178221286 -0.036496552264137144
Ni 0.5291608979473666 3.2083522678117795 12.227714771526806 1.4856769947460606 -1.2023866777879937 1.169040241117064
Ni 1.3328868591113052 1.0088983032884011 8.969622657709685 1.3096572154418993 -0.7247194191748164 -0.3626327607431368
Ni 4.253877058469216 4.429439279080064 2.345056312208805 -0.3915065063546935 0.5156622497997119 -1.1910761378711807
Ni 0.7889714612876181 7.698965573667786 3.065309506718328 -1.358471922951757 -1.2949384211744859 -1.229456280311276
Ni 6.430332780290509 3.576611745044268 5.9070007632990595 -0.003910390797999717 -0.9239709153134088 -1.412711401021612
Ni 3.288405449044659 1.2642075566814752 5.046213369546284 1.282507651610301 -0.33375181604272847 0.3442578577803748
Ni 9.0755388889647 5.114265531513564 11.237975794913817 0.7062051624207127 1.3720828288669726 0.06045923372732168
Ni 7.462182940152109 5.314560836046867 4.763177271472401 0.7285151387718227 -0.9445258566466249 0.7363588031859576
Ni 0.7221318327294391 6.108348105235515 5.009159202068912 0.3588270138438014 -0.19519738067387674 0.2606350414523963
Ni 4.7361907494086255 8.998241043787699 3.1056505952886204 -0.567902438051351 -0.9396505308321945 0.2371899230555786
Ni 1.5266973828262291 4.584127741691842 7.241000889503649 -0.415143171937027 0.5894652518237913 0.08823023319300288
Ni 0.27103507880828476 7.44084532086417 0.639026444215807 0.6473127589598787 0.5933165072490815 -0.8601641052700929
Ni 5.708926426616858 1.5717104822980026 4.426071646122881 -0.3156620484205531 0.3935785583923738 -0.1549804421353589
P 6.0666191436889285 6.843327040221448 5.9984909084702736 0.1936205231050601 -0.25118006668708354 0.2305287089853191
P 1.275831920580513 4.264128392953204 3.7910891446234274 -2.20965105111442 1.0540044576954428 -2.4388088478941414
P 2.332192510945911 8.22016011784013 4.306163502950443 1.0076163573492067 0.9710311020260051 1.8244298635478065
P 7.870121112034386 6.036607318299154 2.1878759867532276 -0.1609204617688777 0.20287340916189575 0.17654994077601852
P 8.250246161036124 3.9520332405768817 0.8543081792698637 0.25304488780996426 0.7655948172329395 -0.292649903796096
P 7.71996921282774 8.598262731622402 13.418885512830823 1.2645940045546737 -1.2182943501571857 -0.3395712509379829
P 0.9186095588553556 6.8250416282142625 7.299183010966391 1.717179380498559 -0.9562086923011918 -0.6718120296528236
P 5.004645831728225 0.9790070818337323 6.619052890221392 0.4334846505586921 0.7219948211548016 -0.39087221520480425
