# total energy = -340897.2299110978 ev
CRYSTAL
PRIMVEC
9.02301106282455 0.00000000000000 0.00000000000000
0.00000000000000 9.02301106282455 0.00000000000000
0.00000000000000 0.00000000000000 13.20608875038610
PRIMCOORD
 96 1
Ni 6.313049013441963 2.173011778428736 11.344571481291924 0.6858381687285866 -0.1028191867507713 0.18854696523689463
Ni 4.484833560591839 0.44246951911892424 6.184305983262355 -0.05807273577301612 -0.7906489319880899 -0.9830026725655845
Ni 2.5350691243625127 1.4800445210964812 4.911410850149054 0.6297325839842703 -0.30148395714795817 -0.34479264723792236
Ni 3.404021191421438 4.354270589060619 4.784817101228517 -0.09062290179489554 -0.32925649927553613 0.2257336015895209
Ni 5.034641722809074 4.607329960143176 2.652839270666576 -0.23337543440549485 -0.22701966739079613 -0.25384398667249186
Ni 7.154950093033673 6.0301685904650935 2.6069744026230137 -0.11356845484747538 0.2112508345923136 -0.2370135453787144
Ni 5.100581888389596 4.659383711543564 11.35724971427731 0.0855863678122526 -0.3203453128288354 0.03147210246635225
Ni 5.67578080402002 7.788708351113138 12.3379337285699 -0.3906950661969917 0.4127260778551021 0.2700077409165479
Ni 1.770522319472748 6.512538767248718 0.5160323245301013 0.518217669231714 -0.614932028636328 -1.821859788827785
Ni 2.839334083796119 1.7513393977398262 0.37649506609598177 -0.7987731037571211 -0.44809905803775735 -0.42014345336509584
Ni 0.5825481582228346 8.948544252050674 4.5971844863912965 0.5590179910775275 0.21392992408637349 0.2296563336826948
Ni 8.44963489580494 2.321557611208175 1.6092540409532246 0.4093800442010046 0.677419348537272 -0.406125798929765
Ni 6.700776826134987 0.7140495229150258 4.652676907345972 0.433500334287976 0.5445331671977912 0.806444761369766
Ni 0.8159906007355217 7.406448483185001 2.397063973223901 -0.5172103110131221 -0.23379709532394577 1.2912031225017697
Ni 7.588298250167738 3.74177956829277 3.7886947148357266 0.896790755354191 -0.03267923540057598 -0.5878035478506523
Ni 7.694905127060715 3.977947862477854 12.685002950660516 -0.1970380334270413 -0.6839949448722608 -0.43071454401272274
Ni 7.967354949132947 8.845790200924375 6.533025514094719 0.1209853161368368 -0.003638110973219541 0.6510750542157885
Ni 6.719689057533013 0.6898191287374211 0.3960398105765468 -0.0003586688909993823 -0.21747804644894805 -0.04943974268836646
Ni 1.8434462956935718 6.499780229463981 9.274319167796184 0.6739149349284393 0.07205362343314041 -0.14013386404082961
Ni 0.03129721652060754 4.813244097898117 1.413315744340297 0.5862434024523839 0.01166406660148959 0.39465610772726867
Ni 6.380288492629983 1.8282334988724496 6.985083787176755 0.22412306256929146 0.48069653235780435 0.01682992707314521
Ni 3.6256534146226382 4.320362113109387 0.4796677849402517 -0.20208947980801972 0.2522311336594172 -0.6236318704031711
Ni 5.887758405276617 5.316195763144955 4.81836014522764 0.26477528887301494 2.3651423714479267 -0.5435111536911801
Ni 5.538387413038272 2.9432972184182837 9.07991207617765 -0.1858593911024025 0.4648701068485091 0.034043976958586526
P 0.20239967490688116 5.644922105841943 12.364187081850288 0.4648932467769606 -0.838959960388652 0.2952318055906593
P 3.9238729565769135 6.232626914944536 12.557247037902162 0.6811687882773753 -0.8093750476426836 -0.07664689923077767
P 2.3409570852090127 8.537049827953831 1.2481783986340018 -0.2736155128724643 0.7432671002700167 0.7107182197997179
P 6.327585084425846 7.655781350657165 5.764999436100433 -1.097216988527175 0.014062648740653202 1.3532721239183727
P 4.737947069741376 0.9805396461139774 12.468317142178972 0.3058093239961895 -0.19138494890632202 1.3183033211526716
P 4.073185745305223 6.194324232556835 8.232358982393322 -0.7369640408701242 -0.3299105879197673 -0.21707952545894874
P 4.55221740795847 1.1316931291195755 3.9412783451106885 0.21768656291532837 -0.9048830454440222 -0.6150225314676052
P 0.08067384050887964 5.635195299808035 3.5937994783132625 0.9592125121245222 -0.6960781012890399 -0.035564270257854885
Ni 1.517950190993002 1.2481260651692554 2.652839270666576 -0.3871952805738493 -0.40840996697825144 -1.042079938343715
Ni 1.8121274239461729 6.468262851470993 4.896368588238916 0.3674155268437608 -0.24982278132824076 -1.3738005828890276
Ni 6.089964085443491 5.527595891687109 8.9992896668324 -0.5159630688695823 0.8624577864002759 1.1762179898124259
Ni 8.534757983118382 2.2119821636425123 10.121515852639567 0.5786432215076228 0.5331943451462042 0.1548457163297075
Ni 2.460963133679312 5.072863198096306 6.9104553641472055 -0.597250552196165 0.35479912363133087 1.0211066785261576
Ni 0.43458160276007185 -0.15283717688864756 9.363024390541412 0.5559159551134362 0.9130882069626338 -0.4187167482208982
Ni 1.4096289419790213 1.0866683034153053 11.514005584914125 0.18467771208947548 0.5147955309240424 -0.5592730445111271
Ni 4.06727567299334 6.777048339497352 1.4814322602133783 0.8788830218358348 1.4889001296690487 0.43955168268837846
Ni 5.600357453706995 7.917367467288928 7.952323514836205 0.5171925704013093 -0.21419191949850855 0.20438341804851898
Ni 5.40376408648362 2.9783155247425865 4.687791759889722 -0.7665741504270733 -0.6891716039771938 0.42826505403096565
Ni 0.7998087325154739 7.367387867859592 6.8742180490147575 -0.538422169204047 -0.5821149821063072 1.0136409662767316
Ni 5.123933441279907 4.59726930269623 7.027884440629302 -0.5490930186543318 -0.9068831065931865 -0.03009604805443204
Ni 8.158787153970982 6.99802188288364 9.01229723972524 -0.32089630023629895 0.4257757119502087 0.2558625597644174
Ni 4.631556745116316 0.4170895933191303 10.393694082075788 -0.6477686155503748 -1.0752469120139871 0.09774665732387038
Ni 8.050953147559813 7.219383415749944 4.641584017421959 0.26177301171158146 -0.46509739236796677 -0.16708493870837676
Ni 7.234821787850145 5.946344816759148 6.937066028669658 0.11080091940466726 1.0556327373274854 -0.7873790029875665
Ni 2.61367759761614 5.234375097917235 2.525650905310385 -1.893853248446951 -0.050012841583017095 0.6344988950246622
Ni 2.4773489219516476 5.100211944931906 11.407696467389535 -0.7120503083475802 0.509991938887812 -0.20757621395420378
Ni 1.210842983042994 3.4213814648993974 3.8310730913658357 -0.9771313013864721 0.7181281391105439 -0.46711185169483427
Ni 3.50184867845264 2.7179023995620373 2.7575504129141684 0.7633204193764661 0.16542811983124414 0.26375404669735225
Ni 1.1272086925714748 3.3399668351740206 8.261834452960084 0.36128164603188107 -0.5294091670721591 -0.6316786519670475
Ni 3.601516859761131 2.685374444318772 6.965788980105411 -0.1310460428069485 0.0659469963147703 0.26605621246796757
Ni 4.135850557833511 6.739268991757115 6.051650575442394 0.2914088323001433 1.023816878368469 -0.29759542072682943
Ni 0.7322913445836277 7.493195712507817 11.3593890702241 0.2526628218801971 -0.6824080600011151 0.589638801287178
P 0.3555869446286601 5.512265795720865 8.02001775378685 0.13975745453801738 -0.4337697858992788 -0.8834793829572655
P 8.443896260705158 1.3179731945834348 8.003788063607637 -0.13415270675673027 0.9538242512294155 0.6744522954891481
P 1.8746839603405026 3.144176515944169 10.334477864414067 -0.35480349450670506 0.17939435220334912 0.2085745733117311
P 4.060048241051632 6.229342538881138 3.85288983005729 -0.7643547741782514 0.152193366308525 -0.5215832432698372
P 7.038453995905851 4.064261987264837 10.316015881273083 -0.5506104837401228 -0.9379803422186234 0.3702946481637687
P 6.401285039606703 7.6613756175783365 10.220059766757126 -0.5715567469744867 1.2040861769776037 -0.9757444483412743
P 2.4300142053896034 8.384317317994677 5.824902304911671 0.25869488700689 0.18641989159156283 -0.33559169746494466
P 6.7966102276991265 3.9670209959592424 1.6389153855499474 0.7876296855457918 -0.24827446300451433 -0.49896653431158583
Ni 5.4333776091211785 2.8233904230707796 0.3006088353102856 -0.21676045155663315 0.4305960161569874 0.5093954429543937
Ni 1.4277742174281771 0.8110829849638679 7.121462991703762 -0.6358291838003114 1.09158884370712 -0.16708185338458323
Ni 6.7266909141956415 0.7368957871801987 9.33996698781502 0.6927760334990003 -0.688913979440433 -0.8603317411962086
Ni 2.7062446691392084 1.4575591772778356 9.159016815045252 -0.8841159881 0.20361054443823642 0.6970126972881673
Ni 6.238744516513172 1.8525866060018736 2.5643190196501946 -0.3478481462347945 0.7701803797210929 0.010571347757943085
Ni 4.189717934477698 6.910173846198916 10.367176354568317 -0.025954000861600466 0.07362199636152482 -0.15581296533898328
Ni 8.088552035076786 7.151864223215866 0.34976168862171086 -0.43947454959353993 -0.047915849844672315 0.20814597041474475
Ni 7.8118974898025115 3.9153913260835242 8.104352229924631 -0.6235796770089971 -1.1016050902925414 -0.1539237187360704
Ni 3.098817838826861 8.267117425996126 12.382847571236862 0.4257417733884797 0.6694815817474341 0.25294435767635787
Ni 9.091044667350783 4.748702499047886 10.146872318610336 1.014383243759395 0.08379482312946859 0.9025986202852196
Ni 8.648312578607008 2.335759830779021 5.952974925361852 0.05768938429166839 -0.21988305634601488 0.0007245368708503651
Ni 3.695428359947512 2.615770936205998 11.457193097426277 0.03603606768795084 0.6000890500862246 -0.60723800242618
Ni 1.1762397352321972 3.402478256512534 12.492193834318979 -0.838686137901975 0.05981722926794859 0.42213168743971813
Ni 3.1378604081299426 8.308930059726304 8.022870829916647 0.08376217011932027 -0.4944282801216001 0.39859246666719744
Ni 5.588564378116719 7.908452732259706 3.7320274978276045 -1.0017102762774168 -0.6425819291431127 -0.7393158289317525
Ni 3.0081546226592244 8.318359106391828 3.422014880283052 0.19406249573848514 -0.23620236233132869 0.8659251761235861
Ni 3.591221604023942 4.332272487844785 9.289717838647269 -0.4519300017480733 -0.008103602943740882 -0.3718349960676951
Ni 7.2440523282700795 6.06936455095795 11.32308588711016 0.5669238761881655 -0.40919646743528876 0.5221933660500103
Ni 0.3627448993844111 9.116670019054213 0.3117657886135582 0.9305115446454039 -0.2889243753153927 1.0100753604126607
Ni 4.296631593750223 0.5598760380731113 1.6765918709629235 1.2492324344969388 -1.301798381519113 0.14873343278438256
Ni 5.93088839863662 5.628843099949156 0.3601489790727641 0.2370258866738886 -0.04289268559846806 0.15832904689261765
Ni 7.903905134633462 8.903068275788245 11.406362866339617 -0.5115633971399899 0.5344739831895764 0.22936991279052754
Ni 0.018168735278180054 4.792626517390249 5.772685237009229 0.524278016493181 0.22414903071122042 -0.05011877103326207
Ni 8.024317218606106 8.93764445456555 2.541630658080378 -0.43397727392439456 0.00789791469083801 0.09697584059611686
P 8.55597108236302 1.7130457383632887 3.776465827806268 0.06449509435959216 -0.6571551989715972 -0.5174131710525476
P 1.893325501403633 3.3762934781169847 1.470207634326382 -1.133879376945215 -0.08851202609947982 0.35176316501848454
P 4.60785329479064 1.1365023940695507 8.293199342064415 1.2697714349905551 -0.34296253600771903 -0.9990916077076472
P 8.50481963207895 1.7825139013086146 12.607285048608695 -0.6035559255889025 0.33943112581569285 -1.2622841254745745
P 6.29059976166797 7.873190804633996 1.5908452935781037 -0.26413174175174514 -0.5274013926135112 -0.8575130408004908
P 1.6867977988895968 3.1896073771507822 5.956170875915851 0.8926363668661852 0.22731071626865368 0.8282801120773026
P 6.931747865890079 3.851409153925412 5.93896309132655 0.5342996623952411 -0.4751455206325881 1.4505171590154762
P 2.4162631363769163 8.49574248284879 10.304129868667825 -0.07938049611185684 0.03543545798947446 -0.9543184172570144
