# total energy = -381172.5125728781 ev
CRYSTAL
PRIMVEC
9.17310778474148 0.00000000000000 0.00000000000000
0.00000000000000 9.17310778474148 0.00000000000000
0.00000000000000 0.00000000000000 13.42577047491333
PRIMCOORD
 96 1
Ni 4.36137231457124 1.031910383767578 2.692336409812275 -0.42603616470044686 1.2292446785211024 0.2572920931220924
Ni 3.3153536914444617 1.4475714046280785 6.500234605449618 0.23453680170344768 0.5194831662076989 1.0350446287634885
Ni 3.9873296825096296 1.7198934474477034 9.262693918355179 -1.2951006577839632 0.15676375928802677 -0.7337370492923944
Ni 3.480084356212031 2.7750760049827012 11.577229473956645 -1.201295501606344 1.6402481172581431 0.5542737915243228
Ni 8.607411148347145 6.027382928471516 1.0104260486549752 -0.5953677333511553 0.5247284737670382 -0.11020313791966828
Ni 5.00747096933452 2.0051770911870626 0.1660745250186244 0.16219444338529485 0.4566006677508653 0.45530586019884167
Ni 5.9191219135708115 6.559267221556379 2.3263239160699385 -1.7070942283484147 -0.2556905529629274 -1.733469375907834
Ni 0.18133674130330432 6.713457985788369 5.577172315463751 -0.19407895079871737 -0.11680213129342465 0.5446519521638425
Ni 6.690158292698403 2.72907287079129 9.304193056756363 0.8871426907414656 -0.8954496679452644 -0.5026720081876311
Ni 5.984856402028569 8.738687490004828 3.5904267492080555 -0.3101403472713755 0.3236190984841007 0.6237156883662291
Ni 8.319696631116116 2.0434472957427086 0.8428269531672355 0.25168837378206976 -0.32814295449638325 0.08270981759540595
Ni 1.8098449397470011 7.606193982327216 0.8841701487406533 -1.5177671904123862 0.42403481799970194 0.8055880697964255
Ni 8.902867768321453 1.7968374732896888 9.12015208335742 0.07209810351783066 -1.9117910638722941 -1.0138546249494347
Ni 7.55701695293536 4.873360137454474 5.932525658272804 0.6551499956161103 -0.7515668783849637 -0.07664509945856478
Ni 6.257783869944233 2.4185631813836603 6.245802874217931 -0.7932876551625176 0.694310724975972 1.1623628290968884
Ni 4.482393122026332 2.4980389848999884 4.593318007349606 0.9815474281762967 -1.1686633173936196 -1.4067616111960803
Ni 7.581426592034731 1.4925930163153058 4.681995355014968 0.22329928111641542 0.1758572855843681 -0.7394829506372361
Ni 5.106540530504458 1.4077601180097885 11.159097217931405 4.818109256010005 0.7862744570694782 0.24927359369299001
Ni 6.041949823206504 5.1459757197146025 0.17530542311170857 2.0603272930442063 -0.08890154822841465 0.3590219034634269
Ni 2.982929448181741 3.7758528618418747 9.359158316990648 -0.39002375116157995 1.4018142944931342 -0.6975413160981278
Ni 8.010957351459023 6.67009670656149 10.217346556003733 0.9428890923741503 1.2354652055095174 0.2584336629257033
Ni 4.115239493709039 6.602114806762377 4.887678440975785 0.8198682338645235 1.0652468633784815 1.86029109622079
Ni 6.818746913853976 6.5565519817317215 4.428611192661577 -0.26271686368208946 0.12408580943903148 1.1526317178520535
Ni 2.0051679180795468 5.932349534608502 4.46141055589484 -0.17259198456953503 -0.10835400052607146 0.686900805665146
P 7.5356619586387295 4.6619842209693925 10.351751844635032 -0.638075813742643 -1.830533405342383 -0.3753944312841793
Ni 1.7908932996194924 1.8636910808643654 10.168087885954986 -0.5609630306190403 -0.27695717565118755 0.3585156532509696
P 1.3318159608870186 6.155659663971554 2.5392289895778934 -1.139334229412199 0.029641219905200564 -1.7170215147644559
Ni 1.6356384549156775 5.399942374395242 0.27511525405816645 0.15671362277638173 -0.07657105168751975 -0.209614070319839
P 2.926358894132203 1.8770562985147914 0.3878178876179899 -0.6409783321014186 -0.8797685097645815 0.04699770890577712
P 5.085699230228707 5.235505249068176 3.7531072244458583 0.0863965224183738 -1.8892910829975653 -0.6271691941324683
P 4.3243679988527655 3.3058870444882236 7.597294233415449 -0.3305294524506888 -0.3051416085052035 0.4162523458408058
Ni 2.4082709547510057 1.4916023207036064 4.063121566047639 1.4156697123189876 -2.0861645658222847 0.704926038597973
Ni 8.838564284636151 7.213832654556682 7.965737600649456 -0.07506387101437395 -0.3961992838446725 -0.8343034354532469
Ni 2.48358216745519 2.8412508026012135 2.3574042389547523 1.1120540535400074 1.7617607666533592 -1.411407337498208
Ni 8.412271632164915 2.811915204765893 7.16719932787894 -0.5732644736942127 0.9020139514263433 -1.2308261640756093
Ni 4.854041573026335 4.38832290445247 5.7250171239163565 0.4253427381778481 0.8199739062044523 0.3573918240591716
Ni 2.7867075053126533 8.130088498765874 9.843667178999747 1.5120274597151315 1.8561076542670611 0.03621527357829246
Ni 7.7596967634955245 7.784299037852727 2.2650613175261025 1.211946296451971 1.0659965970603125 0.7328343349724669
Ni 0.41789375522983024 2.336711543020757 3.4523155251403983 -0.964418996026126 0.3074651144320576 -0.19613274800395256
Ni 1.3518408545938678 4.3450350100857165 11.660630450178957 1.711643281171678 0.1673515621062021 -1.600185444909302
Ni 5.8133468108068715 9.187325832384396 1.1321210795124736 1.8456813167274149 -1.559078133346031 -0.718124282455802
Ni 1.6418027831662514 0.6411983807283738 8.13382837470004 -0.10518228766630919 -1.4441883885839708 -0.09246432587900849
Ni 6.053682227719129 6.086292624937567 11.44803359308353 -0.5533350817601373 0.2672533180998623 0.16189028188131474
Ni 0.6240749409287513 4.004410008703928 9.335837525753394 0.09171536352812593 -0.0819809098491814 -0.15858332899526884
Ni 1.4887953498037916 2.7685906179690765 7.3230861996905885 1.1566603793954724 -0.11334759708592092 0.2648524219678536
Ni 0.9167677036085691 8.210720113829185 3.5337030042630055 -0.3119910273268691 -0.14257024139646415 -0.3068123113394071
Ni 2.2880849000798453 8.256292111967356 5.616670799115756 0.39501760483174553 -0.8740429201347141 0.9234893476913
Ni 8.799450154189056 2.6608066046591903 11.138246744548141 -0.8996307959061474 0.721505283112893 1.5955510314610843
Ni 5.275958653212568 4.38451606483344 9.903439147572275 -0.5037940376072162 -0.8526989072412992 1.1441802446505906
Ni 3.6082234950993333 8.89364879526814 1.0307527375990924 -0.6998635364734012 0.282438767591049 -1.1435176713659274
Ni 5.954530108581548 7.053248234386225 8.906816791106976 0.2937778467529521 0.6647175846998875 1.1693803980653021
Ni 1.2560002272694684 6.279615865831682 10.026458775155046 0.28567064426478544 -1.1053517018191674 -0.40127798391916053
Ni 0.5481234453199686 8.448918196690276 10.10859753178319 -0.5643224340095765 0.888034863538432 -0.5851342285486052
Ni 0.9291165409462516 0.8461531219524411 5.573131561603071 -2.2393719752176207 0.9307681407409004 1.1940169656670598
Ni 8.640782913489389 5.13060159151823 3.5670389942859377 1.6787897249767667 1.1993026395460313 0.0668643659227171
Ni 8.43131500336758 5.04553936552482 12.239079271635193 0.2227819751603647 0.48194685982513774 0.4375883883144206
P 8.521706804827632 0.490332867970838 2.9225749872819624 -0.37585337319846884 0.6010023059291134 -0.3962270517588144
Ni 2.032329489433638 7.324891467249685 7.825384469104952 -1.37956036819094 -0.23027494110330018 -0.18109076606916555
P 6.629780899029834 6.698028818946902 6.852392037600189 0.9161971849052607 1.1889328662759329 -0.9703500167985805
Ni 7.755504653360835 0.4139447324443063 10.968021388378647 -0.595139162280117 1.197462758123815 2.7840473244202313
P 0.273143953253035 3.604847791533543 5.1747214867366615 -0.7587608250302416 0.5361354300523992 0.9882402668154401
P 0.5303129397674174 7.07289703068493 12.030913025469868 -0.8119011564986468 0.12764987264120597 0.41762788603209366
P 4.140199519259354 0.11673421431298897 5.105887405249337 0.7268302948702321 -0.27681036566067807 -1.555051271574825
Ni 8.688363822173505 8.64643354771908 0.08304505965070058 -0.5349038716381432 -0.5812793735788893 -0.09187065815906757
Ni 7.999270812483976 0.5652780736851446 6.875202804059566 0.5100703575342312 0.3623841350674404 1.4569906825549617
Ni 2.696856917196029 7.227665700690411 12.093114950223313 -0.7989754495759144 -0.23659034179836674 -0.7234706343693798
Ni 5.196115925395611 3.9550036516241796 1.8850589175115187 -0.09409851904832182 -1.4162106724241221 2.150207660246123
Ni 2.4724276687160565 3.688699167334877 5.001475426262235 -0.3569639924931336 -0.05602202389157449 0.38119715400888543
Ni 6.559725876932166 1.839272268657479 2.3120918397592756 0.2780082426235212 0.4936752040056595 1.0346335093679988
Ni 8.09135963883444 8.428810745015785 5.061622574932159 0.4636691445618724 0.1534714616900002 -1.586734204500403
Ni 3.6056275056723806 4.0539631355039285 0.2610803995590919 -0.41259572292482494 -1.0362239937835702 0.5041077121928931
Ni 3.8455593058539455 6.050444120766074 9.926866346856709 -1.194231652781027 0.8589777982714755 0.21162904386733875
Ni 5.546088323335932 0.9002698697415198 7.955144496090285 1.6690521859740288 -0.24135356751496498 0.17092770949323466
Ni 7.663470865655465 8.851819424996389 8.984820310867029 -1.2821893490389338 0.00683527775427855 -1.5074431827785586
Ni 1.0673644443158938 2.614399853737087 13.092059020200844 0.42969381605769225 0.20620581596923843 0.46955542813932033
Ni 3.4086258486644554 5.491636757122529 2.2481717919681308 -0.5125905528529237 0.4181953284997894 0.919562758943384
Ni 3.3884083196997756 5.605199828167328 7.276794112612433 0.7402074875080865 -0.7595167293596596 -0.021583125487414444
Ni 6.870217220124764 3.7840077544233637 3.876933168179262 -1.7314934831283857 -0.6827309905581725 0.5842122309549681
Ni 3.2761936954597894 8.152149822341215 3.427652708273593 0.06694689833419439 0.36476780480826854 -1.4229868148056912
Ni 0.34509964322796355 3.9666626712766786 1.644684056236944 0.6503592590956865 -0.49275654884613207 -0.1728686352696894
Ni 4.256762196461798 8.106311804085088 7.730464821775132 -0.816727888463329 -0.07688395494224824 -0.401552834847102
Ni 4.209566558293342 6.439007782025094 0.1922224679922271 -0.08619700481305799 0.9642395330254684 0.20554195713299436
Ni 6.33969054695223 3.5508548806959266 11.915867580250525 -0.11677282071738598 -0.09038198942868304 -0.5536109611293433
Ni 5.879402358027679 4.996380682347996 7.849980322286892 -1.9370680932715283 -1.2966867713241603 -1.3161546502407848
Ni 6.014990060217758 8.820750109840594 6.081954662393375 -0.23826952927300254 -0.9278810490010924 -0.5108290900771267
Ni 1.1088268902870162 0.47752445794661724 12.021394091800788 -0.29109927147952447 -0.43232996812895863 0.4050173963569347
Ni 8.018029817353653 4.933572415187759 8.220786682016952 1.3703036254793626 0.6668773113553675 0.9291195493938839
Ni 5.20527985980383 8.316045734324854 12.015809503945208 2.5514277943441543 -1.7391466287982693 0.823102424531105
P 7.356969824232212 4.146565655875274 1.752855174683994 0.8256722421408103 -0.41175522930140057 -0.38946864998905834
Ni 3.4556930633276917 0.31408811864951824 11.99658358790298 -3.5947547177210932 1.0757117674655474 0.5875418095488333
P 4.916088472262767 8.885484729579135 9.904459197128023 0.14879436792930506 -0.9584982596663169 -1.4515491998244163
Ni 1.2981965218418496 0.8928699239085762 1.5569056731081239 -0.2574946960512017 -0.8222395623101774 0.19018398661968539
P 3.584731166751536 5.091441595533558 11.906267923235308 0.10291431756773889 0.6277973146347704 -1.6016108645019191
P 6.654282269204362 7.2922535507087005 0.2828812068809877 -0.09062290179489554 0.09069206446993414 -0.9502429616360603
P 6.907359132455976 1.6855493329087916 12.72180304692173 1.3231035707547922 -1.5978159162358614 -1.0009913958335213
Ni 1.1338419544824256 4.946937632838184 6.823205044106623 -0.5501057761895622 0.8575657484152973 0.5161319903472789
