# total energy = -340875.4175804908 ev
CRYSTAL
PRIMVEC
9.22150130851768 0.00000000000000 0.00000000000000

0.00000000000000 9.22150130851768 0.00000000000000

0.00000000000000 0.00000000000000 13.49659928865111

PRIMCOORD
 96 1
Ni 8.568157933467493 5.8528776539997684 13.190982295428464 -0.3566192075592052 0.3159574681737849 -0.38664172206322445
Ni 2.326492563132448 1.1105454016332026 2.23074479297802 0.45759619889491515 0.8254902080369914 -0.6333974344303672
Ni 5.727815653360812 2.8901383871300084 1.3851829198185428 0.07733364088515714 -0.423856897660941 1.573969962856199
Ni 4.75542678421344 1.1040811292214707 2.7058383842860243 0.8663884889132499 0.22692607923572533 0.8894250590177392
Ni 5.897002537723217 3.6686451914319256 4.3327592720996995 -0.5768215949178517 -1.104721524434336 -0.8660357335595215
Ni 4.682632252946377 7.282901968192816 8.021906627373285 -0.21586159389144763 -0.035036165668526756 -0.18634018739356295
Ni 4.852353984384217 6.309996694972611 5.71177392969826 -0.1265864643736981 0.07677236906504842 0.36189099748110576
Ni 7.828565864654176 2.1532389966964716 4.993013232323035 0.2019583535467941 1.4718863687198716 0.5016584793214521
Ni 0.3768025310948666 4.570074608071056 3.6197205162815065 1.679038093542147 1.561989393455555 -0.4463671629483151
Ni 8.260731523107552 4.691613995213177 10.268806568479855 0.3626235047717561 0.5945784046806405 -0.08320886871901154
Ni 1.921640991531497 4.189724565425842 7.6068994163899655 0.9002134078824948 -0.3868805775469079 0.33692224335091003
Ni 5.350831458690323 5.23688136711861 2.2911825125022585 1.565839877549897 -0.3807477251762927 1.0941488911248125
Ni 1.0634419729896551 5.428531828649315 1.3645064696023013 0.7809669288136357 -0.05597908646878101 -0.2013610862824274
Ni 2.535673098635624 9.033889856655112 7.614862182763048 0.11634550337198026 0.8376885498753961 0.6713865120796308
Ni 4.826395458222982 4.628502040311759 13.508746008746394 -0.40038683956345883 1.0756981406187927 -1.1300939417608538
Ni 7.063199699705637 9.01454314692642 8.982067785796039 -0.7741887295495377 -1.1551724819960363 0.19394473921369823
Ni 1.8959959964144837 4.596014691229689 12.516975388165388 0.8687179083773748 -0.7931976665518726 0.3026576657410852
Ni 7.875807615817233 7.2683412176391435 10.642270916103898 0.15182852676993852 -0.36071034690944326 -0.34782114965160094
Ni 7.703540750020423 6.730635476800217 7.540171710828577 -1.6409762536734191 0.5689200806825879 0.5055141056221165
Ni 4.348066964258722 4.135465251773017 6.946335613722928 -1.0711668284073423 0.39459774368550754 -1.0811211114065766
Ni 2.1379681905426513 0.732485057760932 5.504277240332575 -0.5162435762244787 -1.0659886266405125 -1.3880100416201901
Ni 5.610167739767551 2.188714112199942 6.671315403233613 1.6596422055140385 0.4544635668032044 0.7678440182784324
Ni 3.9516622878491354 6.9338589224631955 1.6044213467903017 -1.2105188199768249 0.3125715824206875 0.03328678707758784
Ni 3.843641621613718 5.879537014259849 11.305008226627491 0.10872526782256113 -0.328762333247937 0.4424295184568058
P 7.088964574339558 4.372799030746974 0.6497709575447953 -0.340867086931271 1.0948366612204563 -1.6446727286883998
P 2.745296266201231 6.258679040234682 13.298145362042924 1.651202045166485 1.7695116142433718 1.3916388966220292
P 0.16838922449990115 7.88175548415613 12.453596009726255 0.6447072030162315 0.24323844324250368 -0.11827948716989951
P 6.147080431494625 8.445133884615974 6.70494898492735 1.2959614631223615 -0.256433601776539 0.25133947508308324
P 3.3666963528445506 8.695433094418597 9.834769867412584 -0.48169540593596394 -0.07121390114066445 -0.8833806525958721
P 9.304125952269668 6.320887288008639 9.066124536601546 0.8508525980611799 1.5111057192318105 0.17680550843025034
P 6.486081262307876 5.785016625928534 4.329291065460538 0.12228886543960875 -0.24771396251535402 -0.4300987648055947
P 9.606130119864845 3.598100706482212 11.520022283853438 -1.0069985212595496 -1.5449427223859133 -0.7411474828238526
Ni 1.2512562899793045 9.081915435428721 10.784444334556277 -0.5702647676359405 0.4963843754067064 -1.4019256232600177
Ni 1.420341737827402 1.961081352594232 8.917324547314543 0.9286094425266846 -0.14903810850899496 1.0678344215999995
Ni 3.73786178019435 2.8029859783378854 9.143770499702864 0.800488286676015 0.14571341501113613 -0.5934082956319393
Ni 4.216282489171617 8.761007190167279 5.860048293411126 -0.7159241894806897 -0.08846034692593797 -0.5012812984876914
Ni 7.994645103078272 6.140754481602403 2.725138986508214 -1.3884507287020347 0.6935144543269217 -0.7972016455049431
Ni 2.134371805035411 8.310112662572353 0.666228570916005 -0.7784169086982723 -1.0513284535251766 0.24032178381634095
Ni 7.302304006929313 8.383940001985085 12.82454934254614 0.46348248247236307 -0.9415228081542429 0.04752041417846655
Ni 4.151501442534788 0.01714000446745523 0.5598106016066345 0.9064735298595937 1.9064439406277687 0.3417698012511985
Ni 4.604037397361225 2.2152443714418144 12.975468432832024 -1.067735177017974 0.19780293661752385 -1.5094640698633295
Ni 8.38464083608393 2.8302816221877087 8.618428947807802 -1.523339799404157 -1.605064113157842 1.1512806031407978
Ni 4.839646755591968 0.40435729913123764 8.174255972510894 -0.8890543059418817 0.30444149711438534 -0.5524290250061002
Ni 9.203270392544828 3.381819614977561 0.14033926184368695 -0.7566574055339936 1.6962449443387366 -0.9093739913358403
Ni 0.903116029227013 2.3156388561016223 4.0539195157716685 0.23337363463328192 -0.3941390588815341 0.5321065113986643
Ni 8.984748476224128 1.284490580666725 1.2091269391373094 -0.6514476070638586 -0.9906601891108422 1.8156518602448604
Ni 5.241399902755911 8.099226149328562 10.796267221373798 1.353654446958456 -2.2130310233302466 -0.14615127387950314
Ni 7.666295106267234 1.4435799211049547 10.819265645617534 -0.5048083378043435 -0.3547021930421504 -1.2291456910493928
Ni 5.161366492967864 7.498251688066106 3.57951384846069 0.675217970010579 -0.24388019059156063 0.3192929603049211
Ni 7.2912658698724755 8.647389072642387 3.33421361451313 0.9850965789801357 0.7079928504487548 -1.9251237764254587
Ni 2.5407725888548653 7.288729957014807 4.754689986259521 -0.5206517325945034 -0.24843927071715277 -1.0766977855279005
Ni 3.863938145976374 5.279457038623554 8.99750826757379 0.757883821741927 -0.3325140869808854 -0.029719124330987525
Ni 1.946363836518449 4.241401858714495 10.101246356946877 -0.5296418519082555 0.24196934672209294 -0.3137596891915177
Ni 4.820659684413998 1.0438647257284472 10.476128049320826 -0.21001027731699315 2.2938742200305593 0.19712467960357663
Ni 6.724014438866374 4.766169833228658 6.231582580812952 1.0236451286772952 0.020694809345190163 -0.15572014851486085
Ni 0.5523826823089882 2.052955170052271 6.78636008700971 0.5693044606052001 1.483595943847316 -1.4790903426674784
P 4.012699404957914 3.1336597934766797 3.0599080703746115 -0.018269230622833053 1.1638568971439116 -0.08116972680179568
P 0.7646053910912382 6.817465133046818 3.057465294680078 1.1813319140002236 0.516136361222653 0.7930189748821633
P 4.032562518759441 3.7324579804321893 11.20161029899407 0.01296195947730671 -0.5544774228946967 0.2028700667277861
P 0.020372140673321194 3.9902911567974164 5.580303907805505 -0.1782977767050607 -1.002018808656771 1.2347980042391637
P 2.2529418687587333 1.0910695908863013 -0.09314361818713353 0.5871535729714791 0.7993531446303072 -0.6817089770515615
P 3.4781750820676987 8.777891759048707 3.385460263691044 -1.594300446883435 -0.19990455634155893 0.5368116301838174
P 6.046104992252879 6.327065693880051 9.3909473091651 0.42834835777339136 -0.777944597047544 1.0330042012946918
P 5.9007649102538675 0.6508895256525601 12.265669190420738 -0.13110080730428392 -0.7701310145403962 0.44197109076314856
Ni 2.4006149905868 2.0546427047902838 11.24753983052205 0.09102887898406259 0.2973763627374878 1.1134013115965211
Ni 0.5429472421781977 6.089473712869677 5.818532172405623 0.5065021805669986 0.43326662101061514 0.029922498591045243
Ni 0.2500908038732301 8.341447323991845 7.727720448580768 0.06619922153489244 -0.24676933921389757 -0.19649784465285514
Ni 9.206793006041664 8.10714741894579 1.2639672073720738 -2.153102208185098 -1.5154416276030032 -0.32941102257552946
Ni 7.885914381242708 3.6507923649139324 2.499327473409376 -0.5771530101153416 -0.9428171014856344 -0.11661881163802496
Ni 7.807872815735593 0.8982590644919785 7.082597127691484 -1.2315859250597692 -0.7253645089579831 -0.45510659970384204
Ni 3.9521325844154673 2.2382889031920543 5.165769759838907 -0.7932974253545305 0.3466119598348482 -1.4571197519336583
Ni 8.942366456246496 4.773657692284758 7.740083715374504 -0.9948369461963512 -0.7595756076220531 -1.0718471423038185
Ni 3.013605068043958 5.166382989675399 3.0335631633088815 -0.346953402334667 -0.17085237617060897 -0.04438958185896871
Ni 1.296930385921256 6.655203596161177 10.853668300519743 -0.6992061053950603 -0.9727496273790087 0.6613049594739127
Ni 6.629696923563672 0.49041788216936794 1.2071516935587174 -0.3360007599779052 1.258058003208369 -0.6039163942521147
Ni 2.2527758817353223 7.028406975298412 8.612288350091722 -0.8463696225891618 -0.9864335526240043 0.3165783895872354
Ni 6.3293802907065055 3.5415175745016314 10.787291934157908 -1.3563127105169093 -0.937459693828463 0.1985516418580903
Ni 5.027046105023088 7.422395618367237 13.121920627887889 1.2679140700668423 -1.2401327861885159 -0.4202131302607666
Ni 6.1564402553147515 4.21558165507277 8.373047564648797 0.7390373784593853 0.12603059187022814 1.7080151975007873
Ni 2.3402787075768687 4.269140134626748 5.267857312137509 0.0832302088752502 -0.10066331675003308 -0.5713148061670096
Ni 2.9941108142944555 3.3740366678798406 1.0571160230974326 -0.7652482325267982 -0.32719344609892037 0.6356168106791892
Ni 6.409994655076493 5.68694595959648 11.963223312913259 0.032128762213744666 0.2682676182969896 -0.7104351413416604
Ni 0.6168170004969135 9.188054915398812 3.240614454161746 -0.2580148302207298 -1.1709713967015059 1.3827343950435478
Ni 2.9541909351640885 8.025122164876809 11.904675079005516 0.6647515232616166 0.5714690723566868 0.685089206377704
Ni 0.08618230685529839 1.103952028203262 12.511293099063948 1.305037714392017 -0.3628878141767363 -1.163617527439596
Ni 7.2524710139007835 2.2100987737160707 12.952591732405454 -1.0092114697504684 0.9077292566435657 0.8118497344354212
Ni 7.713665958448499 7.532269806364079 5.1840034343606165 0.16509644752343824 -0.3942030793502501 1.3629759814696978
Ni 5.982153880733105 0.6311001838614377 4.874918075916694 0.491626806117063 0.252206708179385 -0.2231609557663382
P 2.8733552547628873 2.027245624426153 7.132939147591808 0.32379676171254557 0.6549299091855043 0.15266156419419516
P 2.8855368579810015 6.092055733233849 6.61978473181564 -0.41183184817560686 -0.46964541674996535 0.5548255502627347
P 6.1332297365411 1.96762861851767 8.82598004403116 1.0530215249568833 1.2792534063390615 0.840391807739172
P 9.01306770671832 0.6095947206782709 9.231593311639541 0.19250877809812006 0.38671397006205654 0.23570228276645855
P -0.07455030511470118 9.628722798051356 5.297617863284988 0.04734249383970556 -0.5634467162728426 0.08578742807946516
P 6.430733811501578 7.668120963524755 1.549814382538443 -0.5431015769575872 -1.7383205333525482 -0.40266303719214525
P 0.8509509185195574 2.9248296750229263 1.9516081043081095 1.9269556874278748 1.2290994111924898 2.01918578580889
P 7.148738345770153 1.6452357115468286 3.025640971541522 -1.155905503507319 -0.26172364653088476 -0.5271761639765824
