# total energy = -381171.7592834039 ev
CRYSTAL
PRIMVEC
9.17134766078658 0.00000000000000 0.00000000000000
0.00000000000000 9.17134766078658 0.00000000000000
0.00000000000000 0.00000000000000 13.42319435559149
PRIMCOORD
 96 1
Ni 1.0860617963270331 4.059054964308246 11.046577121754245 -0.8562994801083641 0.28044924796484605 -0.5718220848207314
Ni 2.6527388855945726 7.091661890859671 12.743336017895718 0.4558851297410794 -1.2962908214373223 -0.6850203008129816
Ni 0.9592679175219323 7.082197060268216 1.2139094629567058 -0.2385487510763182 0.2008581785040799 0.4090450294590891
Ni 5.578297844448843 8.189013615925155 10.5455830947302 -0.5789612669686739 0.8159316178142788 -1.359304960376014
Ni 1.517298554476461 0.9474368792826137 8.956545343190346 0.09360409591040653 0.18412286802727 0.17717626150610777
Ni 0.4582252823562828 -0.16967084537303764 13.425476080250194 -0.6462884314604225 -0.1889485715506875 -1.3519444062458845
Ni 2.882187656657575 4.618901528062299 9.862490129373345 1.199536095713076 1.3700850817106534 -0.8528058651328089
Ni 1.757037577403429 3.293678503699055 8.33830022440617 -0.9189973733582173 -1.3459632489617852 1.457687194401354
Ni 2.9813849509184047 7.152036871270085 10.144377913878948 -0.8192609392978277 0.5754961912382088 1.2625322369296386
Ni 5.703615136310898 4.120695590669844 12.053102241396903 0.6951648454461512 -0.0725750431542492 -2.946398605098364
Ni 6.066305243452056 0.6135668144385364 1.3500113423114843 -0.819961050688646 0.5913393289180525 -0.9099756294755813
Ni 2.6460346305922924 9.037115630734855 0.495851652496305 -0.23772214140996478 -0.19922192845223755 2.433110511957784
Ni 2.6576455564922745 3.0381189063823 6.2445769784846545 -0.646257578222487 0.48921356868988003 -1.2455986943990935
Ni 2.0150917812326603 1.2374532290529496 4.656600351847352 -0.5761178839826079 2.0560230092418976 0.6031625468052259
Ni 8.169854671055436 4.088412447567207 8.671732815975817 0.48656687509565233 -0.9383282124763452 -0.49246395730637765
Ni 2.717616997613906 7.909709400002511 5.424406302401967 -1.2693757422140335 0.7334318593471497 0.39510347967733245
Ni 5.688399870854286 3.209723988937254 0.5186598765252673 1.3596620866051166 -0.5776350919580826 1.5927950659825019
Ni 8.496272098943491 0.6110327711319289 11.553558204408235 0.9614408872344086 -1.3154864205291665 -4.1662710983759474
Ni 1.0126451598109512 5.115832648156099 7.27312984048638 0.3191456360937794 -0.34701588014148627 -0.9871537186194806
Ni 7.477096939732233 7.507389900433372 5.3628885720965 -0.6291222040937811 -0.028168234904099875 -0.5671496190457265
Ni 4.98458149447944 2.352432283960271 2.7061968357413484 0.477706596491545 -1.8985478257091435 -1.1349515269634711
Ni 3.7080124684569604 4.438602008103566 7.740807113547656 -0.1958710097021336 1.9157639324771134 0.07187853130785685
Ni 7.367013256021735 2.5123438984879916 6.975926822836718 1.487813067252457 -1.319499912563934 0.7972859776886334
Ni 3.201992543018072 0.8573614072177733 7.063446240361017 -0.9390956867699891 -0.22617043201662337 -1.5769498714201293
P 7.586245146000551 6.277172864536098 9.438894937937873 -0.4844529140764431 1.0646848202274244 -2.136373582576508
Ni 0.6321929040201117 5.969996923645014 12.546498724174862 0.873188799664535 -1.6568726131887013 0.10972079896661104
P 3.6833690577987825 3.5312897740124405 1.1798635868698852 -1.1721865000555296 0.31260474965146806 1.0312414529673142
Ni 6.341904234995874 8.693080044352435 3.34708692856948 0.20134077456745325 -0.9266952562231072 0.9609469783171257
P 0.7998332130627733 8.542669945806058 6.626145387262878 0.07517391422967698 -0.5080042190338219 -0.04065171208309128
P 5.019955381680255 2.24872268674305 11.020469046904735 -0.1849924151164169 0.9217440828654191 0.18177545084101598
P 7.344011516561107 1.4788706085673562 3.24955423387488 0.5544506834218192 -0.7418794758938708 -0.21067387904292106
Ni 3.9483201149272134 1.68461144641436 13.514069462563503 0.17501139264430504 0.9650872257377443 -1.0271929939295534
Ni 8.765744630375785 4.804236117783346 3.396430612240164 0.13342611300335086 0.2976923513160099 0.07808311745667199
Ni 8.20432059485649 4.451010841233643 6.007282119659065 -1.3155992919579471 1.670830103810058 0.715796919874206
Ni 3.4051929176152376 0.7971872793170032 10.563664406271917 0.6542411106485958 -0.5467808255813874 0.20255664925242536
Ni 8.913669293757156 0.38139690458049047 2.072567698707068 -0.23835129035353142 0.7698813604234355 0.8922375887658698
Ni 7.781860816238091 0.08801191888356379 7.067767779289984 0.3849681910155434 0.7650523144659082 -0.507130558179617
Ni 7.7229991081606135 1.4723589518619946 -0.1325314737837967 -0.73408003445411 1.962006765494737 2.662373209746486
Ni 1.193926013949224 4.708413879392338 1.2896574560002565 0.13564368947995994 -0.40435662284448426 -0.7242062269838236
Ni 0.7048785841426481 1.5570655171165273 6.77139751999081 -0.18647131365478853 -0.1958051894612047 0.07654868309001656
Ni 7.858900135005748 5.017598345379865 10.96278952551644 0.21900605305770024 0.13043849112993663 1.360911128520869
Ni 5.357974564120819 6.893606642194489 1.6585162114513108 3.271974827308836 0.6349971748173193 -1.6365678401930783
Ni 5.939850704503432 6.575681882065822 12.164715705865788 -0.08145563347333068 0.3470842714855764 0.8874771912627489
Ni 9.269847744192953 0.11324504718421288 4.577416772040663 -1.2705921311196373 -0.1773924912819719 1.2694482473231814
Ni 4.86868317647148 6.229124175128509 9.274098663746383 0.8956005917008318 -0.8565869294417957 -0.25103968445447733
Ni 6.371509344636587 5.490748161477886 7.4875788727583705 0.567400558714268 -0.21071141714907582 -0.36316035111183265
Ni 3.1457263262752657 5.492995141608609 5.267341474129661 -0.38030600965318373 -1.6907255571824042 0.22518209996142513
Ni 7.528456485577337 8.016087859334183 0.6247622782980219 -0.13122807691076757 -0.27214535608484103 1.6903946562055467
Ni 0.7389180402862382 8.177100035558585 10.06597298147266 0.45184592667469925 -0.7794078118566319 0.6283591006755114
Ni 6.461104238093878 1.3600924874530806 9.633919973398193 -0.5923960523173412 -0.7020173495916103 -1.6521006457213545
Ni 0.5971262569596196 6.372215538391957 5.314927010489898 -0.017786377449143565 0.9015141289717894 0.08005232536790084
Ni 8.780171159949775 2.521790386384502 4.832766345500302 0.14591318972676806 -0.9408124123507796 -0.6861945236267407
Ni 4.506479150746355 2.839825202682837 4.791677791689471 -2.343184379119597 0.8766397343276128 0.32001955405830046
Ni 3.97033134886083 0.564730306283073 4.109323119804142 1.632358430097421 -0.7693064617565719 -0.8452576204719056
Ni 7.5126634252299676 2.822381299790446 11.092819972844529 0.9053453297924214 -0.5540524195421361 0.9420735384513905
Ni 6.672219485559673 3.484075677224834 4.342792609599019 0.9479371963210191 0.5573825123566336 0.13542051772556032
P 4.2523594549827575 5.621008809627531 11.366089442130374 -1.6512084729243885 0.8248523173426763 -1.4044504465644008
Ni 2.9120679067224593 3.9169357638768663 3.266681725279475 -0.4483636245530536 -0.636641909509594 -0.26842368425887964
P 8.709294986683531 1.7601191501541353 9.530951421056738 0.27983603986087935 0.08624945531754823 -0.45907406899202224
Ni 4.363103475711263 7.09773332288636 3.9579894665673017 0.361905395658809 -0.1213046471494685 -0.32627761915287035
P 5.3021944287940475 1.299708335695194 7.508048403181886 1.9464464491626352 -2.514184850832296 -1.342040002647979
P 9.226467270648786 3.6478025723010483 -0.6487802030585859 -0.8024132716128696 -0.2607617968382477 1.467174565066499
P 6.70991372367099 8.835676154852377 12.22520074244587 -1.4464131641494316 0.681744201164871 0.49448587283241296
Ni 0.6258811826896473 2.7826510225402687 2.516017023150664 0.7558647344293693 -0.7507428398217716 1.085196309917215
Ni 5.070993930363828 8.55207974831268 5.810927238815254 0.42351699782301905 0.7234472373306121 0.4122756205812448
Ni 8.192948123990789 7.274391817898573 11.996657183378385 0.19440188135577488 0.6049191244850163 -2.3523249079682844
Ni 4.402723696791772 8.822386872364957 12.567210378171648 1.712459606425386 -0.9056026972188661 -0.7735240993823452
Ni 8.483670667516495 6.928870473225635 7.3843544398224354 0.48285574479265225 -0.15887540631439087 1.1085735511905745
Ni 6.196850203373344 1.3022946556823938 5.0441273850783555 0.8610421369996719 -0.9719975797043325 1.2590748745086575
Ni 4.317870389977682 6.623372888921989 6.8628762082189185 0.5297081863698168 -0.4853183474005319 -0.24402108704479908
Ni 7.6381824867364125 3.085232118347711 1.9691424132614896 -1.1295378121470674 0.6422841953970357 -0.8646337110056723
Ni 6.028583491298322 7.88685440210144 7.810083803814724 1.8466177124987553 -0.47614696531390904 -0.005983471276944534
Ni 2.640586850193722 1.6533646655760974 2.123307261463042 0.9698576505431943 0.02098277289925419 1.409705781426069
Ni 9.016140759065612 7.416419304855231 3.3089919025736214 -1.1145570224675192 -0.8149731105557513 -0.6234603778223133
Ni 6.569298624225072 6.153231274794896 3.4074775002705975 2.9762028329439905 1.4282601473894887 1.5215726802014053
Ni 3.28997327932023 3.676362148329915 11.858599972742505 0.27577498241762827 -1.519608871606815 1.2131919959336137
Ni 1.3574144539911572 2.035103661417306 0.3088781429819507 -1.0195575888714827 1.183154569031259 0.8234834620196075
Ni 7.462331070301765 5.266288603439837 -0.08309607663838954 0.569606051006019 -1.5715387277068869 0.10594281998141754
Ni 2.269697558412292 7.053243116298038 7.796767924419632 -1.3237064944461139 0.4932031494652473 0.1506072527683277
Ni 5.346235239356225 3.288661776631685 6.795854752295299 -0.3524270238547285 1.0229930969155931 -0.0386213119166238
Ni 3.284562184311549 6.702228134489169 1.7751775855689704 -2.596829105297089 0.07763471706534371 -0.8423748996074718
Ni 1.8728900386740284 6.0269509914482455 3.327274066624984 -0.724590606906436 0.34609233988595234 0.3914892799635129
Ni 7.655553018849026 8.437639674552821 9.358020161657283 0.91465580856007 0.07732669890662167 0.5224188517972552
Ni 4.085422588291224 8.507424457469856 8.484908799425261 -1.0528196933587224 0.5798120450047435 1.1081693737736207
Ni 5.872597213488763 3.8824514973808673 9.346597248380483 -0.48727110025152853 0.08539507773705293 0.5343176601173701
Ni 4.097400368090101 2.255069259193909 8.818716499106527 -1.2173484413041487 1.1891434396248424 1.3660461357545894
Ni 0.6577745435247098 5.558799559722649 9.454076269408837 0.16863094303925796 2.2650454687243253 0.165301878666025
Ni 5.324645887406336 4.54271514460957 2.8272870535534005 -2.5406756980339726 0.26817171614907365 -1.581544432769347
P 8.045243572948753 6.168895936277652 1.6695630994817443 0.6850848355023298 0.0323151671929379 1.9396294262408016
Ni 4.288384507854109 5.305294344239698 0.0693656523375493 -0.5488814168641579 0.38899068191137526 1.5421343064028408
P 5.736879613593076 5.243791288090186 5.237220017626255 -0.8558361673187003 0.6718156291972494 0.8424769724029749
Ni 1.981799789908066 8.71116594156789 3.027024327345011 -0.06451669162614695 -1.3106936271262135 -0.42244047692938863
P 4.194066370448565 8.713458778435974 2.1359389583366957 0.0940445258819348 0.56695678630863 0.26316346430120485
P 0.9455475817033115 4.172467847151204 5.188104700507632 2.165845109673063 0.16389111436142742 -0.4207350642025076
P 1.9366584176492083 8.968798263413392 11.791429940989834 -0.07371764139912466 -1.0164385836265268 -0.7832354131328382
Ni 1.3985479474046023 1.8924800368749466 11.551638641382272 -0.020077487476165425 -0.6128026409981512 -1.695301863699177
