# total energy = -381176.30373743747 ev
CRYSTAL
PRIMVEC
9.13721168280478 0.00000000000000 0.00000000000000

0.00000000000000 9.13721168280478 0.00000000000000

0.00000000000000 0.00000000000000 13.37323290129705

PRIMCOORD
 96 1
Ni 8.689022460287138 3.420688858640406 9.247670678351103 0.182851200403698 -0.5826780536986288 0.5015420083482459
Ni 5.726473403212113 5.8931635587756785 12.164426770856817 -0.6325368862022848 0.6307273437973718 0.5933987825502425
Ni 4.922088096251468 3.615649547631242 12.539813585967527 0.427771916444631 0.049177747276231434 0.19350868011754413
Ni 6.736957660394311 0.545021894049716 6.24905795987204 1.7530701808578968 1.4171108156408885 1.2865581675305906
Ni 5.848391220768692 0.6513927456636645 3.6250955972295325 1.2860560310831914 -2.3138421785120538 0.673502272871053
Ni 3.2343993836839844 7.208867240199799 12.301020778067851 -0.12051557558926987 -2.1879856503258446 -1.077014545437371
Ni 2.184707350504238 6.7642231005193825 6.886185690413968 0.7628619916828088 -0.4445776751480601 -1.9061984002758652
Ni 4.046249792716406 2.7447362012769494 10.159164209921036 0.9293833445782316 1.2160785734527897 0.7443832161523309
Ni 8.342977973552314 2.5288421599648867 6.4020340741877115 1.1771394731854308 0.6760672053847518 2.669089702534713
Ni 0.7649226027528119 2.0303067448629974 12.821667332096906 -1.1996453675974306 0.26984190476264497 -0.1451364594617436
Ni 0.22610487554120712 6.2018916723634545 1.6566094002211633 -1.3239402077234748 0.7846541478572358 -0.2649061580239244
Ni 0.39664088356745575 2.715524535030349 3.8647573539750186 0.8202654693029421 -1.220864167766891 2.5367138851727478
Ni 2.9013023261238335 4.676105216356342 11.776883809116619 -1.0678264511801996 -0.23880020496549198 1.6390654098039512
Ni 6.782406152077323 1.8125761239714646 9.141474347483262 -0.388220379404254 -0.7366603935867765 -0.5826960514207578
Ni 7.25094410071453 2.031302700953357 4.67259469956812 -0.28082977123271635 1.1605987952179302 -2.5744720777581276
Ni 1.06388212316441 4.824456987760721 3.167102904774746 -1.0852299913686276 -0.6928518810422584 -0.02355233339864331
Ni 4.100588791517948 8.293499971448673 2.784708761905351 -0.37447500479370344 -0.5027684245561793 0.8954159864938515
Ni 5.172210133109281 8.3405566124152 5.922269233364956 -3.2246125359747886 -1.7497606568686894 -1.044029348760602
Ni 0.653730044451866 5.881924788214741 8.391957997610774 -0.9229391316147847 -0.7315109881753531 0.15529745915514542
Ni 8.691078332950724 0.44161332651369917 3.2254229867741753 -2.085432058531634 0.681663982746239 0.8999789232741855
Ni 1.6517886072553496 4.998374677888273 5.293687537055259 1.9499845442228803 0.8337884434900414 -0.6787570935120891
Ni 2.5293812554633384 7.104291850712049 1.1748599569871592 -1.118655875127241 -0.6543912630732148 0.6567096267937464
Ni 4.069248154913057 8.49979080311883 0.497279962195326 0.4631767783064862 3.3697081148962678 0.2285798127890644
Ni 0.194678349145037 8.438324779083521 10.41333585906552 -1.501763615895278 -0.027251122406469194 1.3398157413031506
P 6.157484822829994 3.810034592276274 9.292591952911053 -0.3774739395210273 1.5038711491565842 1.6126609516684935
Ni 2.411319341302463 0.8296003567492329 3.9101866575131705 -2.1958311145121927 -1.5907466680939055 -1.837873390647222
P 7.632906967185164 8.341497745234532 4.7617665773391 -1.2211467320043161 1.334820087860772 0.649468886070933
Ni 7.752714088807128 4.192500005398007 3.6182216727636844 -0.3751961992304441 0.3310367311044105 0.8465043483948131
P 4.532477383472293 0.928888955467423 7.401857032597144 0.4065556873783321 -1.276311035881286 -1.0492291477939866
P 2.8038539618698493 5.130763740211384 8.119210396799307 0.41928573335049074 -0.5465018608883879 0.06974605834588633
P 5.058004122344109 1.484139044448776 0.23010788804750534 0.05540675890507877 0.03981790332788627 0.07552409848024412
Ni 1.4292061268777536 6.4117003305913025 10.466641439208166 1.6060002518188663 -0.02759899266419118 0.4384965019509867
Ni 7.135056842971137 2.3490401054135592 13.218852793489916 1.6493889032171465 0.1873863692698902 1.8771978992784573
Ni 8.71663511446206 4.924573417871448 5.797055623498352 -1.7021232574963845 -1.5315462464743494 0.6939769957856371
Ni 1.723881208658438 8.950602560790005 12.469991581706223 -0.7330266534889311 0.648846679105902 0.25760011128081445
Ni 8.494737924972325 6.591758227074099 4.227746800063712 1.029279187034621 -0.976295435748738 -1.0722124960630373
Ni 5.615785219004633 6.967964650086691 1.3823642103894225 0.024448619960667568 -1.0980402557594184 -0.46124613694267663
Ni 4.601463332850407 7.61971283329086 10.539190901203163 0.8566962013261504 -0.6069806349997353 0.533193830925572
Ni 5.9586499560197765 8.127915418517523 8.095807256118226 0.7200407827522244 -0.334658644127714 0.6900925731295663
Ni 6.604157423538482 0.3037117842886255 1.5135160942296466 -0.8093254253516706 -0.38290230962545024 -0.9177408752432968
Ni 1.4145500390893437 1.4527984078438847 10.151621441548635 0.6345145787539459 -0.05568392382586539 -0.07063231760558157
Ni 3.6697966649841827 7.6804204687436 8.349016756856154 -0.08005438225042988 -0.39132601491277125 0.2648992160453889
Ni 1.9994412432736903 1.956505484846173 5.818961175159159 -0.7365488077095766 2.011742442156968 0.7293360920112213
Ni 4.584120904781577 0.5079677588824226 9.49074244255459 -0.15957654614647354 1.184113847620735 -0.43068626187794856
Ni 5.3924352128326305 4.726478665220122 3.0225777976881902 0.5096669514482254 0.24630396954170486 1.049813816652863
Ni 0.23579854358031185 0.490618021044123 5.269883272774483 0.1314003408225737 -0.2276534443200531 2.36085325715427
Ni 4.9743894968130995 5.324262475308114 7.64867322621191 -0.1309660814986325 0.8105726674952105 -0.08891311819264042
Ni 5.919999549944357 7.065723679543172 3.7918597642089886 0.7731456329970039 0.4445357661665312 0.09325648276300068
Ni 2.8552142296121508 3.279637719494718 3.7207146916735176 0.6718768214524881 0.09743632517230318 2.0640121980949613
Ni 5.974539567406339 2.475206726474883 2.1838356604948777 2.7359568966709076 2.434090616482866 -0.12103622397943026
Ni 4.242690710025024 1.1149682745515668 5.063935086548259 -0.17063100418842225 1.38566236732362 1.9394430212616083
Ni 6.606112786871849 6.593083122790631 6.173552609847399 1.114885095230899 -0.37592484986635255 0.1786459040730988
Ni 2.6110679292964956 9.058385111632948 6.5448203698614655 0.4921921917022298 -0.2583537016173873 -0.6114759517669275
Ni 4.116487540116348 1.5079963045582137 2.3329339421064335 -3.0797650685083733 -2.288917390245916 -0.608899449289003
Ni 1.1214922438040136 7.930387173000164 2.9230680784435163 1.2835659176714862 0.12199010325226733 0.7306473546234772
Ni 8.223755633487992 0.08724666723667802 8.080227396212978 -0.10731424640764743 0.30347013434005154 0.16178538087233427
P 3.8885689280252658 5.455326641914692 0.4176665217282475 1.7014138901341858 0.5530761716717959 -1.061410520351527
Ni 1.8624653006078222 3.80230451106119 9.708566263006873 0.27375306689159307 0.8496598633046593 0.0994844659505835
P 7.9346177020812325 7.135431468656501 8.593599815897674 0.02596788481867141 -0.26265644275779926 0.3041170238954311
Ni 8.945759838515778 0.40672014194613093 1.156320554167531 1.7645990074331028 0.4125664123487862 -3.289414620051838
P 8.266280217382793 9.046881361928705 12.226170566132005 -0.07863590463634844 -0.46733682322144676 0.8518833533185394
P 2.115547794101199 0.40082572658933335 1.5616326517694015 -0.029533490682742688 -0.9539011272139376 -0.32095749249153754
P 0.6957529954167512 1.5264991585304892 7.803709781797087 0.7975006648026007 0.6531489060256817 -0.1733113792340628
Ni 7.156273448859347 4.009234947560016 11.383429985038314 0.4477275336309515 0.2581629257628199 -0.40338294607730535
Ni 7.782547085458723 7.644337619194704 0.5286169439154822 0.09550182715375165 -1.0992594728785003 -0.8744424695659779
Ni 2.9692100845050446 2.4689842852130957 13.162631529049712 -0.31743096739551785 -0.28670577039751916 0.06475246178603687
Ni 7.432482225515107 4.883355455269505 7.9211394008987615 0.3063615969552337 0.6357746764132921 -1.0173559532344738
Ni 4.257648325804094 6.191164585665454 5.303034904765699 -0.3290454117059946 -0.8315323004660131 0.24542516648117735
Ni 5.29611072563474 2.9714487014053943 7.546354728048186 -0.042269964412804624 -0.7646082849499541 -0.5533487086068922
Ni 1.9549430216218475 4.779858256778658 0.9565564329133738 0.07912235735446374 -0.19381952648974363 -0.5229803807276799
Ni 5.981291966954739 1.7309351361974983 11.527258836582801 -0.8209336990145603 -0.4191456082282008 -2.2416972809166875
Ni 3.82173022342912 3.5972380657773484 1.6564750832071424 1.3540246858136809 1.6528462656381275 -1.0743244001997176
Ni 9.06438825981062 7.105105062565646 6.569894706587746 -0.9701517847448452 1.554779248860361 -0.32865717512864046
Ni 9.06681875815957 4.170844813341566 13.668246455883807 -1.014791277831091 0.10818096528331692 -1.8245221661512967
Ni 1.3535043267985918 8.507557433181265 8.536294878133464 0.7003605307144777 -0.00075461877783741 -1.5055333673503555
Ni 3.8859191365921997 0.8286318122943878 11.748773176896517 -1.0637211707625747 -0.8308998090883368 -0.10834860120943277
Ni 6.561386134924052 4.512658770995322 0.8652482750146333 0.42328919808292914 0.46201386834663655 0.009371413912570957
Ni 6.371651931104643 4.198128527890314 5.765641889198756 -0.7441785563406925 -0.031621483560022964 -0.7271935917469218
Ni 8.264251756354719 1.634016730230127 10.941136849963854 0.5430689239474389 0.11466554456639606 0.45903164578986105
Ni 6.658962420143771 8.823513081333026 10.374071432354576 1.7842867156700173 -0.6907428051190555 -0.39598511095133737
Ni 8.223125165871158 6.385796335030117 11.25015187200335 -0.2523272929176493 -0.2680729857876803 0.19251957673139747
Ni 0.729709615770908 6.747757844787017 12.817026542204303 0.5287921023134506 -0.34779441017872365 0.22880144188156723
Ni 8.383373587088823 2.721655604173755 1.964781971329179 -0.27807766240887594 -0.8748240212751127 -1.053686669344708
Ni 6.420380681837555 6.142189130212912 9.838741378901597 -0.6919062292995374 -0.6252038428759814 -0.7482866649717951
Ni 3.600344717802323 3.850612950049546 6.006814940782274 0.5528308884302091 -0.13274811309971976 0.3370649395763614
Ni 2.8991368069181895 2.142475157388259 8.215845549199695 -0.4827135627878332 -0.3165403372604484 -0.8193776673813502
Ni 4.007736444818558 5.389200639841922 9.972941436611032 0.5641640540548413 -0.14792764905363553 -0.8074451776098224
Ni 3.2173584836058144 5.5821694166520395 3.1085013966507025 0.057192647160907946 1.4844366945810563 0.0886189839909893
P 0.5476095524422832 4.54491312878403 11.332611553958015 -0.9724866035256091 -0.022286322202026133 0.6662805583116331
Ni 5.8628554271085 8.449179786747255 12.508813767364199 1.0476798010289958 0.002230431992415513 0.22803473891887177
P 7.377759463816362 5.896407268978225 2.4906440458754555 -1.1644456797678462 0.8720153481817241 -1.7189912368963167
Ni 1.6953456960878621 2.4870576902289776 1.9603686980113475 -0.9471625229385237 -0.5073403601975779 -1.595072549162769
P 5.104832333014683 2.927279419379725 4.356303715741899 0.5465486549659232 0.9670165815499733 -0.21474393534723665
P 2.981380850673475 7.771719489430502 4.53765818258453 -0.5534289270255243 -0.1562305124923761 1.0029945423064792
P 2.669399889671314 8.597230030160976 10.280472575448009 -0.5724458344476593 0.11534354447002716 0.7340260412877229
Ni 1.2027677431044537 3.7999745220424592 7.1949329921466045 0.07023585349811129 -0.5856955003687139 1.1040574084877761
