# total energy = -381167.0213147977 ev
CRYSTAL
PRIMVEC
9.29876352955604 0.00000000000000 0.00000000000000
0.00000000000000 9.29876352955604 0.00000000000000
0.00000000000000 0.00000000000000 13.60968035892619
PRIMCOORD
 96 1
Ni 8.20932018271812 6.6717417764689815 9.174476019613872 -0.2103280656677281 0.737879096485226 -0.0699031527490409
Ni 0.6127754825255634 2.4363503720194024 2.031993650364859 -1.5307818575044991 0.7256645566969051 1.747071797182617
Ni 0.8340079392098508 0.06083529907049608 1.8299575606159197 -1.0452981881706964 -2.124153129250916 0.8426605491686908
Ni 7.957314398802752 7.438657278790667 0.8018323584746766 0.5240548447387813 -0.31099138241776114 0.383017752157392
Ni 1.8386630628077787 3.614466485776884 6.312891342601791 -0.11781411749770676 -1.090992604884018 1.0267757038864769
Ni 8.315140108955413 2.7213388693234952 12.303204867177024 0.02081976495882866 -0.6323767064753366 1.563800735632681
Ni 5.447736265876611 5.8115968734043175 4.160873905074554 0.7818027944513697 0.49140749101740533 0.8542983905179352
Ni 4.143333647881108 3.978429379700777 7.0763393360927305 -0.5830948295210732 1.8993656936247483 -1.7556921918617763
Ni 9.079386866212943 4.445236595609246 0.3749252059661732 -1.0832039620775344 -1.4578977677502634 -1.5599564221859263
Ni 3.2905533653419208 5.475958012460986 4.641022986551148 -0.009535707404577126 -0.5455423251885959 -0.08523798333389837
Ni 2.3163870268184072 7.561670618350699 2.8121273447029163 -1.7449768623268014 0.20264663786307036 -0.05500540970160204
Ni 1.0598730397650893 8.166936419643465 10.155461141257755 1.5194090968911833 1.3709607994473871 -0.7815220299861573
Ni 4.961764298827979 5.158265764666862 8.940647458177295 1.3199166883863784 -0.385967064593703 0.5065345764668309
Ni 4.589813767238194 2.7726122501031467 8.87752652309018 -0.4104629928525383 -0.17901074361168526 1.8627953506998822
Ni 7.7754026925654784 2.3978534919998595 3.0402659928824973 -1.4067896362205383 0.7253246568589831 0.25840126702587113
Ni 0.4011068038847781 3.3306868277004584 4.556452594183578 -1.803062967836256 0.057234299032120795 -0.7311420348717086
Ni 2.0775203954314483 0.8353469611235741 11.823368224146964 0.47031596045442875 -0.2104381088830311 -2.223165026440455
Ni 9.048589362197308 9.237800597617031 12.91830783015401 0.42503574846039055 0.15659020982464 0.3853656835642782
Ni 8.488543446782572 5.126696463298178 2.519056362347378 -1.420479217892489 -1.026443774468355 1.7752726850968652
Ni 3.411651159664265 5.326378106182154 2.2487413135145022 -0.1824511367518019 0.6866238978546756 1.973617096040156
Ni 0.5123981224417573 6.0414344056369345 10.59689110227218 0.7864886299628132 -1.431687685013799 1.5240923612994655
Ni 6.144167142462032 2.569099516743796 0.8982242686124982 0.9929045050603288 -0.30599032965874395 -0.2064477567767154
Ni 9.198383140031805 1.4150393036168842 10.167792231256284 -0.04358174124569268 -0.41218074687459333 0.5609463184484921
Ni 5.127691430970181 8.81447439885141 6.4294578495730415 2.124001948385032 0.3767584015112414 -0.7688210374797211
P 3.368960537401047 8.435447508398129 9.933827907875678 -0.33694872571347134 1.7396675342987458 -0.9604952354916876
Ni 8.704721095742553 3.716697089384336 10.346908729248659 2.2369160574779605 -0.2875647759637047 -0.21686201013150394
P 8.276103900665065 1.364547018953571 0.7436165210229015 -0.4034019722406988 0.7827386760020777 0.23122059284602114
Ni 8.730525163871595 4.579315463484073 6.336286101162458 0.9402699095837485 1.109756258644766 0.14130525864111146
P 4.934295752070073 6.193497081714128 6.596938805060961 0.12089018531986923 -2.888547241307535 -3.7379510227373305
P 4.839922603442456 6.112002720242805 12.410027200096952 -0.321508222788685 -0.6722987394812551 -0.7570757240183349
P 0.49233604064413333 6.152926577480971 12.735040364229093 0.22241482162893306 -0.015519435791837786 0.8769384965149543
Ni 1.6319794511666255 4.087838628567912 12.369946740689167 -1.444436757149351 -0.3465173432385129 -0.33749739912808974
Ni 9.275562875336684 0.2933025215614531 7.941071319088226 -2.788210711769301 -1.8037301691066097 0.9584679206490139
Ni 7.164009006264772 4.323999319837555 4.417334726482038 0.5245616091718707 -0.8935228832361966 0.8010672991079365
Ni 2.2908619215880583 5.757022431656806 6.6277102725393835 -0.5539156368539557 1.388895272438621 1.5517821139052501
Ni 8.312508558944415 8.589016584128261 10.842573727150523 -2.139606230581193 -0.5879562713784326 0.08521407207449841
Ni 5.684185218808237 3.836799916034677 12.001206142187002 0.6906746708852814 -0.011999595564037398 0.12411820533886365
Ni 4.538270722323141 1.9095382366022122 11.086499815643432 -0.7585823904708484 -0.6211286443653431 0.3279928020717641
Ni 1.5256573917116858 1.4399227941802406 0.2579197973676459 0.7813034862174479 1.2634616907224434 -1.1615249065766253
Ni 6.3005723409955365 7.718773224130934 12.53146625903203 1.3646101746390111 -0.32750506380206823 -0.9286426097574653
Ni 0.776226354003707 6.098008081491741 1.413841622905165 2.611401089573993 2.3516955019144015 -0.40924840371914684
Ni 1.9809899337206096 3.019606000605343 9.956256524930541 -0.4291304873550545 -0.21657456079807214 0.1059721305574562
Ni 6.859121155520626 6.7241682038965624 7.32662112929418 -0.31714660338587963 1.2309544621233575 -0.3243937718665962
Ni 4.571485904794108 0.3432657065935798 8.50497529139188 -0.4969469327783958 0.21238289131422775 1.3522359693443744
Ni 2.7262300188139004 1.2720429217471918 2.462277183823868 0.7807049334015007 -1.2325362047881805 0.18569715449292537
Ni 4.245601446541719 8.990174531211133 12.672599168738458 0.356622807103631 0.6474755097899881 -1.1515078886602554
Ni 2.1450480144415733 3.7584020427388407 1.0307958069580578 0.3889318036489818 -0.025025575510060124 -0.27655454089613013
Ni 2.2363711687101553 8.3251269807286 13.52071333185885 -1.9331880414908316 0.7706411214075954 0.7925384357013189
Ni 1.1714303029521551 1.1067667030352712 6.33571422722014 2.685383811709046 1.3027476328062597 -0.27210421843426036
Ni 5.589951551629964 6.858014602689146 10.459243369046748 -0.5717351815338799 0.612954593194983 -0.8597717549276805
Ni 9.131320459186167 0.9363947620405707 4.589837014146419 -1.1280139193033734 -0.2668442555869017 -2.3348079821304437
Ni 4.347748361279563 2.902237010362186 2.315565016143594 -0.16925906354156012 0.7997791764241322 0.41522236191439454
Ni 3.2018896573742057 7.97085339815262 5.926525868160244 -1.6340484162053341 -0.5919687349719354 -2.0334924322395493
Ni 2.8959789426681883 6.737028393526279 10.95285241038525 0.35217865528934833 -0.4937096567880207 1.1298160055091186
Ni 2.8495967113789424 6.207036081063996 13.536310147524741 -1.2374027888518624 -0.6310852413574228 -1.103655287953351
Ni 0.1735688558137147 2.631987052872339 8.131184534547055 1.0062598433213121 -0.3312043670305264 0.28094315688212906
P 9.149964479582104 6.666311298707771 7.1594944566876 0.40183231376073375 -0.5536649542957303 0.17726162213106247
Ni 6.135454201259542 4.529706561333286 2.1202110176946656 -0.30931168072249315 0.5166330983534134 0.8697059833222569
P 6.778910023383288 4.182732507939756 10.099294751235039 -3.4073125555126027 -0.9346780173182677 -2.1835741515217104
Ni 0.45894232191800255 8.1948327095127 5.6773320302636945 0.08876399420928584 -0.21547027199029986 0.19170479413958597
P 1.7856973071093936 9.29279348371258 4.249853770994119 0.5911338977754658 -0.2634629978194946 -0.49179649892570787
P 6.562053564703154 6.731821086084022 2.4888428206663393 1.0455295874552122 0.6079324573900433 0.26892556359596265
P 1.4554982226905628 4.502479782420914 3.003874352871753 -0.40069794304597445 0.49827824999530956 -0.014839893226309929
Ni 7.025113379005856 8.944712877487571 8.634579594371681 -0.4198714306506317 -0.6657234002565825 -0.9722873430306095
Ni 4.750226732749579 3.2640053961497 4.804570565167504 1.9578006978331897 0.1138286504873975 -0.35131964972316265
Ni 4.42831284642191 7.8259600685718205 3.271399772717705 1.4378758161023817 0.30345162239729023 0.009025857647694133
Ni 1.9436461003489953 0.9181124635366038 8.626985294392947 2.2671378324769793 0.30147367273531306 1.3925112719246533
Ni 7.883975052736536 0.10324044930071838 2.5744342172431227 -0.3397723112051955 0.7053520703917981 -1.7670515827386535
Ni 5.474684081890291 0.7456892153601856 2.6833115768500844 -0.6041161689677467 0.9416037979038234 0.9469120974906142
Ni 6.733494863476175 5.46998820642897 13.622881633752263 0.3361879362880468 -0.5683271842935954 0.1054090589651346
Ni 7.090892830517509 2.581029830044539 8.56813714103747 0.4033994011375375 -0.9862283785917337 1.695849765782847
Ni 5.515440561389242 1.9553811396206529 6.9306481726216695 0.6451933986240308 -0.78968528252324 -2.213248024437059
Ni 4.255616214604774 7.278430288545078 8.04106185061918 -1.4636902060623243 1.6588166242889495 3.3428020345340426
Ni 7.97705567326688 6.6717324777056914 5.125065460217157 -0.8103404968797463 -1.2174523138718647 1.0038951997438774
Ni 7.413373941405852 5.6039740866709 11.327677189707893 1.3629081043462397 1.7933398270112213 1.5842471764124908
Ni 4.264989368000837 4.538726361724338 0.3707798172916051 2.0237026998426373 -2.9735268287737244 -1.5754200650391643
Ni 2.62137716395874 2.9919421798183525 4.149374124514126 -0.4403494959993255 1.15879902300503 -1.0587221748860862
Ni 0.4644248727536359 4.737189866617356 8.623991092613648 0.3325644806028466 2.0183563479290596 -1.5535867712141567
Ni 4.942813419243479 6.716794284607794 0.9696080847588804 -0.15059773968663095 1.3475681315550598 0.8690588366565614
Ni 1.7614182361598705 7.880023078338395 7.766690681239317 -0.3831928442826755 -0.2981618347532607 0.9495839878958225
Ni 8.903565849930452 7.447760768051328 3.2354832995110665 0.21929298817049972 0.6291738832673229 -1.0976761875517804
Ni 7.485030211316624 9.295090278245148 6.297702742644322 0.026350979189703007 -0.12304862642376872 -0.30614356740715665
Ni 5.976315166318853 8.918127713242193 0.7318507958323878 0.8834192191432915 1.2146372130205725 1.222797894454494
Ni 3.4367020279668363 4.444771657444758 11.141700994036672 1.9733625568271884 -0.36580575915447966 -0.06886854083693945
Ni 8.212221396864521 2.2740404587969105 6.345172929238467 -1.354804501402499 0.036276208723214944 -1.0878682003224234
Ni 2.6528999715109745 5.226965027851494 9.066292347748325 -0.061034903725133594 0.15059285459062452 -0.4309595701439933
Ni 1.0217574090404262 6.114411099934849 4.5047226441264 -0.05998435097343218 -1.231807297041956 0.04264046037834592
Ni 6.335879745206697 1.3328568336621214 12.609028173508118 0.5545805241314642 -1.233174866813444 -1.3341765407395023
P 3.8800856591484383 8.867096100308075 1.2466061547680953 -0.5059427085191028 0.04989174262412053 1.0584110714035708
Ni 3.518094103041971 1.1493643376655913 5.044359633872806 0.9225694069801919 -1.4999867265005136 0.7357203982710103
P 6.353166146162332 1.4865188970251508 4.670270386726381 0.1571450538868455 0.02007234526984285 0.4811220499309973
Ni 6.626242927692261 4.370651215262205 7.196839219935543 -1.1799656297803163 -0.3554308436780588 -0.7026693813533125
P 6.604214157458856 0.6474700982359294 10.344703992472663 -0.36444590269247557 1.3916900615749388 1.7104891129625766
P 3.236555446918374 1.9738391847507961 7.176153191121177 -0.14971019487535508 -0.3957298004074217 -0.010321179420349966
P 3.339065013424518 2.5542865868232334 13.00912606157596 -0.22208931996871428 0.45455252697258486 -1.0675055775056712
Ni 6.663847126435988 8.475348501674423 4.232569229791142 -0.7760514937898894 -0.5256494429194108 0.10725613947620237
