# total energy = -340885.1056775162 ev
CRYSTAL
PRIMVEC
9.14907354340990 0.00000000000000 0.00000000000000

0.00000000000000 9.14907354340990 0.00000000000000

0.00000000000000 0.00000000000000 13.39059393331176

PRIMCOORD
 96 1
Ni 6.487013219374862 2.2382567504108044 11.241751870441288 0.7962577935344352 0.3672489193589094 0.5373489907445261
Ni 5.0322465139609704 0.2919277173940514 5.8685212227161765 -0.045829399629288815 0.45087893477573965 -0.18636461287359518
Ni 3.2720562930613966 2.06650119649975 5.079105322913522 -0.4756954795987872 -1.1462656664247097 -0.4018783365073208
Ni 3.6677354170983256 4.650007378668267 5.172277656047246 1.4367298754233966 -0.5423328171123627 -2.495355119720302
Ni 4.027403788448209 3.1327159060126903 2.8398504086007472 -0.40106303969487705 -0.42797246249121135 -0.28150571425381843
Ni 5.585326295830201 4.918468637838994 2.4449077849681142 0.12012348235717377 0.48814938909142386 0.8933547330894486
Ni 5.467952833883527 3.441597771222891 0.4977535055356161 0.4974256721870272 -1.2256263650422248 -0.39547243298097695
Ni 6.211662707975135 7.7197044674786275 12.052418322903039 -0.8069422698314748 1.5717696127707705 0.6570693241260104
Ni 2.0428782891222217 6.719052017558006 0.07093002092399882 1.2332838815874825 -0.03618904832604735 -0.7370267757872597
Ni 0.42820133505741736 0.058574197371190066 13.39554803535775 0.8655922182641995 0.23796125400396434 1.133081563634268
Ni 8.27367170946235 0.27752341631923305 6.887144282501609 0.3538886960019196 -1.6847986501750083 -0.5956346138592967
Ni 8.744794092304508 2.2501230985396403 1.348472771288359 0.558320965010503 1.3280642571941772 0.2725415630819951
Ni 7.1954442666470495 0.9876699148436601 4.685890959235813 0.9610187120953256 0.44830654606287307 -0.06307327431140104
Ni 0.785926443228762 7.579494918462119 1.8328237992804657 -0.6446992325964316 -0.06637122833638247 0.8941913700581309
Ni 8.072254859765879 4.430228338767807 3.5548413414615037 -0.2137543177404577 -0.785218762111454 -0.628990049391291
Ni 7.690326792966914 3.9594719188594607 12.585403994984016 0.6862606009779859 -0.5114698089849191 0.05330411073977916
Ni 8.87490306434782 7.650921734068767 9.06262009161706 -2.269945991349736 -1.215129836386275 -0.027348310105965806
Ni 7.084996653222756 0.8953383815503684 0.29079323229923587 -1.0556818453978658 0.0015375196904489647 -1.591997509781871
Ni 1.9726591511971514 7.085591342990201 9.118646272061588 1.4782105111656865 -2.0444407037209373 0.8504065116626968
Ni 0.4362497748792654 5.211357922841636 1.1461007583346399 -0.5389351042847235 -0.6143188205323614 0.29246195615500603
Ni 6.658055145564985 2.196683361129825 6.923379187485613 0.0812093217904795 -0.1409411904334734 1.1200283299947356
Ni 3.3108575131187545 4.256542330380897 13.346993903114317 0.3713398015988314 2.303983026329787 0.5694726107519483
Ni 6.66382821084586 6.109540751295053 4.619808117370146 -0.8706079263112361 0.31066742341943915 0.08173768349012374
Ni 5.2526110945555295 2.957383064423629 9.228180807966021 1.776452307227263 -2.0270500190483154 -0.20417875823688064
P 0.43202107317907423 5.823074115780803 12.174459642070477 0.6471060422657114 0.15455158212805642 0.669705524832782
P 4.251610979847788 6.410490369914891 12.698567968284523 -1.0643446632791864 -0.29609826735601263 -0.2538966942872982
P 2.3362250277921266 8.948873322344458 1.2265513049817434 0.8486967280604415 -0.08015234128087487 0.20097953457329257
P 7.014567086610744 8.100214427909073 5.645675413430376 -1.0015590954115332 -0.6194301736169976 -0.46723783574973726
P 5.059309472916327 1.15417390065452 12.431787393887324 -0.391623491548532 0.791688686106514 2.73792584747182
P 4.475214332406578 6.402448334444384 7.969599512109766 -1.5587870844681737 -0.5522783583608488 0.8281106763789738
P 4.930929675735274 1.252919849270192 3.8560892198723975 0.5625316606577409 0.8285066262658118 -1.1525414721310925
P 0.43923603241916676 6.147536852898026 3.435490764764913 0.2971117962221915 -0.702026862673307 0.6106933079646322
Ni 1.4130377818860425 9.091059071203548 3.740997536818038 -0.9702114343381872 -0.836726700182759 1.2468317954752461
Ni 2.237863340256957 6.900066433694491 4.7723670855881215 -0.16343062978524112 -0.7521381775074015 -0.5508621947396126
Ni 6.096814390271761 5.796788828059796 9.122341582785749 1.3130616131377582 0.33610000455993083 0.10699260140217058
Ni 8.994682732584305 2.305292010811715 10.358735460872351 -0.3071136446299098 1.6717374461156758 -0.19670456134702252
Ni 2.6119872474923924 5.44040497404087 6.9104030567599946 -1.3368823697064396 1.2727958236391759 2.575962032040093
Ni 0.9540836665931153 0.4598909804034845 9.247463394948547 -0.9211992661055425 -0.8847525932427344 -0.09897924417939083
Ni 1.6629721675325655 1.3597535787230968 11.765778769902562 0.19917050638901182 -0.001981549206403039 -1.3632024956582072
Ni 4.399469154180955 7.160000756507411 1.5647312477655533 0.32230012256236107 -0.11633033386332868 -0.4411560510610209
Ni 6.117472997885416 8.157194856703514 7.758589859010762 -0.8084689908886463 -0.07843741547229717 0.2133365134767487
Ni 5.651958997003918 3.0115638767744133 4.929840936007184 -1.87746272290407 -0.06590431600229295 -1.2917399688418463
Ni 1.0655559762320799 7.805001278276729 7.106991025544824 -0.6504639029943506 -0.233251764343437 -0.626474739168605
Ni 5.128220293353021 4.3615004997980185 7.1217201187234 1.7283572514922492 1.709701841174591 -0.17056981193318368
Ni 0.9914118858418821 7.9370132575758605 11.380585398826666 0.02281725500483167 -0.8474127191416955 0.258073194262491
Ni 4.809841690010414 0.3778677080483264 10.533361993999154 -0.31980178162053957 -0.09877381303680409 -1.2130079049472657
Ni 9.128094520105265 7.6356610797288305 5.02392268703143 -1.7598098135745759 0.7070158312474661 -0.5274121912467885
Ni 7.386193296822917 6.228121890923305 6.976512430938362 0.22748452284235662 0.5758219500087438 -0.25718333545837
Ni 2.7953346773319243 5.363982764387696 2.6038811685084693 -0.7491904077329872 1.173706793354798 -0.7952815456640948
Ni 2.6458388188699504 5.533249770348832 11.122829470377257 -1.0575564367127592 0.09270960912059517 1.4333401330155575
Ni 1.420896835889643 3.8681824650201966 3.8976937160027516 -0.41322024388270123 -0.6982218871049201 0.5632608255142816
Ni 1.8553954781306208 1.6205570635038196 2.320509664506929 0.4660777540033651 0.7210188303947777 -0.18516982123454562
Ni 1.208519396325519 3.3771699967253874 8.236273042348826 -0.032227492575138045 0.005317555558171487 0.21496916398416527
Ni 3.5271416070013157 2.9354344374682886 7.459672249580913 -0.15227384183747325 -1.3829519103709924 0.17050167769940958
Ni 4.2613913392538985 7.2108787533805465 6.091220646828452 0.10438087481093636 -0.2560235108223139 -1.6027910008529493
Ni 8.256215277519544 7.3765410244436405 13.274189237061869 0.23774193890430667 -0.8692861221760191 0.1644755261099877
P 0.5642645240338418 5.765709425905859 7.7926829659246355 -0.6376747216494825 0.10293437217239693 0.6821810315919735
P 8.637932915631566 1.7850665513254074 8.190477355718995 0.24529635421279689 2.104241992149286 0.004860927636727113
P 2.0051292124995714 3.4677732700637547 10.309632384228202 0.04443046239923316 0.0689785840522425 0.22814683901670385
P 4.1595621529208655 6.354397401234943 3.8359365560147363 2.3897948798892843 1.0997919483432028 -0.15962822532001542
P 7.129168379333797 4.139543980441379 10.079126970737725 0.3374482910577091 -0.7127164811766693 0.6560614516867863
P 6.752894439862219 7.799054380602294 9.859413804165351 0.007816667830941378 0.44756812523495176 0.9804045728211052
P 2.3984387265400717 8.832524556612455 5.75841029519099 0.7631887788946082 0.2534562643157699 -1.191735882942367
P 7.559046739535405 4.179278405979956 1.3457143256747555 -1.7419123644688645 0.3058535469705636 0.9247075363691172
Ni 3.1434111727533303 2.025833565479954 0.15169712550884915 0.5651804111344976 -1.3812197581712342 1.0241194972105523
Ni 1.5312529585804828 1.1836064696063053 6.996785862564181 -0.22507308518738656 1.2755785285906354 -0.24007367236127683
Ni 6.8848789719413155 0.9322173812978817 9.22173986033094 -0.9217772500961995 0.17150800747673686 -1.452586382839679
Ni 2.8767065356648973 1.5770257725269488 9.283163079141852 1.40940419102525 0.9966410892846256 0.6735074150773755
Ni 6.462576044469604 2.39502612218228 2.621222322127124 0.6062843802636592 0.15511362527911352 -0.35503566512216916
Ni 4.49960576194511 7.113038563026058 10.543231099416715 -0.9130051603305244 -0.3403199561785494 -0.8705942994644813
Ni 7.600729917696528 6.034856865577484 11.313739524244003 -0.4919664488446689 0.24768182372583794 -0.9798880381960027
Ni 8.110186917855435 4.2119680450426635 7.950932657763379 -0.649062908881766 -1.0106669712500722 0.4409529339112793
Ni 3.31695994504006 8.81266191837984 12.70818181455575 0.6801930546276673 -0.7192331992492645 -0.7195522731515801
Ni 0.21562170097236247 4.983180033610202 10.13983930654971 0.6972551523162765 -0.6554271605368971 -0.9064488472692454
Ni 8.883649578465914 2.6403768220828145 5.875672138442852 0.467863128038562 0.6327328042631748 -0.6438327708310783
Ni 3.7738372206836073 2.7787016619901936 11.32090324867336 0.8432860985678315 0.23836491720028624 0.19783070453166574
Ni 1.159379723387988 3.7064725936422662 12.598607022728597 -0.7515385962501896 -0.18539839230558394 -0.5205123788031616
Ni 3.107748084853405 8.783705101242008 7.885305439750307 2.2685359983760867 -0.178134511654319 -0.04493928371485163
Ni 5.8815549926038715 8.489708778364587 3.5629693782214553 0.9057340805904078 -1.9919547180070791 0.17412513338460978
Ni 3.6299863404756754 8.860859236762806 3.112737074548589 -1.8401896974852245 -0.5784820133394103 0.7832526395240188
Ni 3.9237264892994284 4.619175001494653 9.397304173475638 -1.754197609594121 1.7216582422055189 -0.7469113818908233
Ni 5.35739543157909 4.772769644815314 11.420676638225707 -0.2858259388957271 -0.324335407824835 0.31348920913895045
Ni 8.028586332688828 0.10203321066863312 2.367818607868068 0.6976333615913017 -0.2613066135981242 0.4686938514699734
Ni 5.084441977395828 0.5632123805991339 1.5523982968961079 -0.2817329997732761 0.5582965395304708 -1.3399239847462407
Ni 6.114389760168055 5.792159396947081 0.20720363858736482 0.824430142203593 0.36639994109505286 0.47229056768229627
Ni 8.171028255601586 0.06626490842523748 10.843247512555335 0.34576915221857873 -0.4640918339215878 1.9757950775280813
Ni 0.048892647957208414 5.269454538584201 5.5791104153994135 0.46754225436403346 -0.6434458198053047 0.5323353395800187
Ni 7.554344115835928 6.686408123862026 2.3755047443854433 0.8543816942603608 -1.4800419079474703 0.594635226060505
P 9.108369117972828 1.5911702399187608 3.526533193623854 -0.5155347230829121 1.0183753956379236 1.3569423736811081
P 1.9538944017659698 3.640333942429194 1.7447941602741273 0.8292769287729331 -0.7061719951899322 -2.2811223196815296
P 4.9523019110698625 1.0732594959888107 7.876454626196078 -0.2840719323190979 0.8552275872004238 1.253287578402919
P 8.736431839266917 1.7816173506742343 12.52735586933018 -0.2382813563475445 0.9495135396692035 -1.1455272455967884
P 6.607607155139077 8.055603546277458 1.1895039622846766 -1.7019401949513009 0.38535462782068475 -0.7958448743667326
P 2.029941499411987 3.511899250808069 6.122072237056091 -2.3212073606278736 -0.5706342351602173 -1.2684771416591638
P 6.95363425813114 4.1862134035756835 5.894525633885483 2.8356804752154905 1.9568182793152622 0.5925570033752375
P 2.695298709374567 8.694922493499353 10.308641539584906 1.134397197121898 0.5825556691881516 0.7853396039600345
