# total energy = -340858.6306979169 ev
CRYSTAL
PRIMVEC
9.36677510099159 0.00000000000000 0.00000000000000

0.00000000000000 9.36677510099159 0.00000000000000

0.00000000000000 0.00000000000000 13.70922216844083

PRIMCOORD
 96 1
Ni 0.5772668659319243 1.8123024111012407 8.306664244105948 -0.03591419739810589 1.438441973018497 -0.6958474733354726
Ni 0.5911849572926469 2.262909868595206 10.930473153485346 0.3824508239103284 3.4659794732261924 -1.9837441571718286
Ni 4.938725924257761 1.8663112372577295 13.045326152235747 -0.3135308610101632 -2.4065618149349777 -0.0711982174113806
Ni 4.5874062845332695 2.15998774202436 8.727058231317155 0.5069881190644817 0.82208863855461 0.7464020463545726
Ni 7.107668303431896 0.263723430836138 2.2374959339563256 -3.281490737219071 0.4308610968929161 -0.38609227731765766
Ni 0.3754428327323698 7.356543522123867 5.290032450496888 -2.94551825937594 0.15560084932817717 -3.232482168530852
Ni 7.699226995057469 8.776040845868447 10.841787588634107 1.1481533703657258 1.5067867801414825 -1.0125654738243657
Ni 0.6731489242163992 7.715843654370963 12.530585321205384 -0.8939471152578088 0.47751736329887445 1.0265885275763353
Ni 4.804762304471064 3.948685879467198 3.197840491136082 2.358075437298816 -3.2390549366523635 1.1180817477913259
Ni 8.963957091160067 1.2249868686690248 2.588602947882387 1.5494172132174995 1.8986678962267751 1.6499368053008163
Ni 0.9363515623480104 5.381530857959088 12.00659198957194 -0.4571711955423546 -0.4869810798149355 -0.5598343163312358
Ni 2.608675010589765 4.958499186834305 4.945986111762773 0.38911178087027176 -1.039602680447816 0.20837505570641535
Ni 2.656379996995418 9.021965530353118 0.29117932248197564 -0.02363358025853994 -0.8829584774567891 0.3821466624063483
Ni 3.189171540631775 4.684015204578019 11.977267426261477 1.4180222717115643 0.7559796627406786 -1.1839492970184124
Ni 7.256937233995512 7.789457141149293 8.500293285629414 1.3743883370716976 -1.0278380837127201 0.18415552103741833
Ni 8.507579700105158 5.3253395731667235 0.2835201103508343 1.6702014690871236 0.21918937271309996 -1.6578020669815063
Ni 5.978231909203097 8.329835772747279 0.5576060046585165 0.4542411663797532 0.20790428671758387 -1.1308979257193879
Ni 1.1396836463646296 3.3390493115873734 2.3817442729798994 -0.793332392357524 0.35316647312391436 0.5695656846863869
Ni 6.597225885568932 4.896519234930475 10.757160647503577 -1.1926614800804298 2.9429877796446022 0.25139501091136707
Ni 3.718750280353517 8.458479064185575 5.851082618418975 0.4708854598046535 0.6358914044968145 -1.715878145188632
Ni 2.154864115956445 5.750263332894283 8.755984706679012 -0.7098389025185582 -0.5916175222801037 2.1361627521172823
Ni 2.4173398923277816 7.278714986477968 11.233433069213422 0.9950611463920155 -0.9744614678637928 -1.7534769293780121
Ni 6.387569354895902 6.995173332544032 11.11837160190397 0.046081110628778704 2.6218253702311105 1.3731441802519513
Ni 6.671288977559802 2.945691584490296 10.508886775783377 1.5216063616528182 -5.298350445997946 -2.0818021750885305
P 1.7308301998787055 7.9800897512666795 8.700818147100232 1.2881298828930847 -0.3253142267983365 0.8963719226492176
P 0.9902180135205279 0.26164869011576647 1.4561523253745108 -0.9259771471101602 -0.39198858819743454 0.3080724089987533
P 5.571816897391809 8.444578769697848 7.421624813316705 -0.7745561401912854 1.8360918732667668 0.19165234363509573
P 7.484100267631856 2.5848272007745687 7.102898741468858 0.7910983608206827 0.3880599425669897 -0.4554153891935125
P 1.8852133897349745 3.4843560962154707 9.211569668546819 -0.21771458793978635 -0.1842575938329214 0.3999996314273692
P 8.368857758485733 3.7532668471913 3.9314894167650305 0.41138910421123337 0.29882749336171766 0.39374285188437996
P 6.461295242977367 7.740403339106016 3.2127701942250213 0.11140204332377587 -0.7790257459268649 1.025168764410673
P 1.0811975016332533 5.712009422727252 1.3982309971913893 1.6762091087337843 -1.1866438131314403 -3.016225910304147
Ni 4.448262838027088 8.482177005596592 3.077569223426309 -0.3002133179656507 -1.1186790150556927 1.3611875221107075
Ni 7.304117680986534 1.1071528358822353 13.22163977301123 -1.5450265403489714 0.39379041729286374 0.7832176725210253
Ni 4.894402343721427 1.3423150955917056 3.9722882797705483 0.3235373374035718 0.7215063115541573 1.0024188723086669
Ni 7.269863383856065 1.5776927911321854 4.732725245969206 1.3738072677572468 0.07435527498312355 -0.1999814323260814
Ni 3.7312549253273133 6.709636555479446 7.289179547799859 -0.585585714263727 1.4221056977523185 1.635693408007925
Ni 5.1116365955808245 5.950712323485483 1.9910729370277551 -0.04272067879697804 0.7060727506079065 -0.6066551333395165
Ni 3.0681059703798472 4.900771750899091 2.566942280090698 -3.7094107492057926 1.873453858854993 -1.292461420388903
Ni 8.304227009182963 0.28825969863303746 6.75475350188041 -0.1521825676752476 1.4373142871719569 -0.4814534651284869
Ni 1.6297064941580235 0.15219604783276228 6.460169356590963 -0.7565995557128647 -0.376725491390777 0.29843642857088604
Ni 4.357545619621678 4.334681321208916 9.607079880598935 -0.8588469291205661 0.16948686328165005 0.2539874542288916
Ni 8.676322156436955 4.8675477990473635 9.88487033452245 0.7361600569115901 -1.381423389541608 -0.15912943130672594
Ni 8.593688465082023 3.4929547959053173 12.119185311600047 -1.174694354079048 0.8526276876837316 0.5564728560581707
Ni 5.762056102948224 0.06429916545852109 9.447011058159076 0.36688742225443266 0.43707751011627305 0.9851582854560065
Ni 6.4788579465922504 4.405597176711999 8.027983946532611 0.021007198379286402 -0.31235046754881685 -0.22489387929704494
Ni 5.326753956231175 6.4372413641064234 9.10466478913488 0.04245482673010108 0.3895398695466259 -0.6868069603997591
Ni 1.5492927285400115 6.929371736333603 6.805202953437616 1.374953465546548 -1.380171776522694 2.5455895903958226
Ni 5.683318990101979 1.430934156338591 6.875285165942445 1.056536222978361 -1.250776124834975 -1.255213334670722
Ni 5.009529378457709 6.066120361479603 4.3223396581246645 -0.5945123273293954 0.5483227161472104 1.1695197518566438
Ni 7.348253926017644 5.993059514441689 4.889585947882082 1.8220765328242814 0.3429738488616287 -0.657696416187048
Ni 0.2604909566934734 4.859604773625805 5.37123208855932 -0.3693513104138929 -0.385818969051613 0.16834297948519397
Ni 2.0216123710896032 8.066282817220896 2.6194486754952786 -0.811925581978679 -1.2757181394922932 -1.683352661757101
Ni 4.067728226262691 2.8921885641979164 5.679484232310014 0.09001714989009658 1.609950494715866 -1.0313903198403527
Ni 2.5544694821527894 6.232062152008281 13.522598945543498 -0.030873292540088765 1.4085019909259548 1.7402172361546286
Ni 7.480915564043024 6.128119046933957 2.2052105329857765 -0.18938874441189965 0.2752517629243066 1.2794665507911318
P 4.464795196363231 4.981307284595499 6.65342841049161 1.2874284859506862 -2.6368012748146525 -0.979352477407507
P 2.7977902031148267 6.828669535499678 4.071707232393679 0.9322164431516525 0.6423117062008615 1.1191634108912791
P 8.447135899344177 6.403727042221596 7.169635141850361 0.09262296294405983 -0.8287066580917599 -0.84926931273446
P 2.7378522082179533 2.7808176063414036 3.6949099639585294 1.067256951829975 1.2343740293278678 1.0140759969316213
P 4.714738227434987 2.631801578709843 11.08529096171374 -1.538779016777363 0.5673704768072809 -1.1237006366400002
P 2.994998289465627 1.8183158808189768 0.20492256245598303 0.10342468154525415 1.0523700074158133 1.007089538311459
P 8.207393286531945 1.548646421046984 9.653540959249892 0.1363260602589652 -0.6048916136811904 0.15015062484688335
P 6.079486749777437 2.298569182014865 2.1326198980659785 0.3272649227668041 -0.04327398019728676 0.527173335763105
Ni 0.18545278339790505 6.009844775709887 3.0926909454081053 0.38197954070086476 -0.8133607717633089 3.0670962147914533
Ni 3.717804236052128 9.143490072592847 8.302908167226176 -0.13462656106935525 -2.3582201904067968 -0.7217233126609699
Ni 0.11269635655598237 4.332245959640985 7.758994514644587 -0.5605570534298733 0.2015608609980593 -0.6671557618277348
Ni 4.428742478382599 0.9937024539177207 1.7524365403738793 -0.8237539420721749 0.2838166217751822 -1.9508859729912276
Ni -0.012179617872230715 7.028369184069976 10.158794183618111 0.7888159925444092 0.7343260890266451 -0.06415519452167016
Ni 6.138216430665606 3.697206697252593 12.758528607220994 1.1547179109571208 0.516913862818626 0.2782260150612821
Ni 8.62078654591288 8.161271285145444 3.2148402515577623 0.5230071202005573 0.3409815010219483 0.07248788275708161
Ni 0.9155713714308807 1.4555313081746888 13.209068623933078 1.0843136502019455 1.3490825113170573 1.532854937983444
Ni 2.4354365021325575 4.059551031459601 7.105900792940095 0.16323882548940918 0.059804630862458304 1.0786309979948714
Ni 2.3401295638491244 0.74338568851304 3.5419833076553884 -0.4511108482808876 0.27029596158092806 0.41917337614234257
Ni 5.957990307863491 6.636800511047802 6.655416040202052 1.5584366431072902 -2.2755715650666293 -0.799306607663088
Ni 6.413084450707605 3.725784728574731 5.0414710187761695 -0.17047519533684832 0.7641192611286776 0.7801045808133403
Ni 2.692423348200789 1.199078368296349 9.48553473145363 -2.3582762404557123 1.6490086370595924 2.195585831270606
Ni 1.6773552799121092 3.807715911785069 0.040133821961967964 -0.37829077899536784 0.46243732903730034 0.8167479430679869
Ni 1.401391347164542 2.447004469580227 5.6360804691043365 0.17220837597787117 0.15787576140528295 -0.7271133733282896
Ni 4.1500528140340025 3.8283696512361716 0.621097754089516 0.1875565762991673 -0.2965590090425151 0.05907700866781438
Ni 0.7317259266678098 0.19857188882884125 10.818893316540509 2.272381340264106 -3.4267313263588473 -1.386696207904773
Ni 5.035194342673592 5.9035506100449835 13.155342674389479 0.08599491610458093 0.6234788897650746 0.5271789921900598
Ni 8.79389391951643 2.997396183932512 0.7168973847516915 -1.0444402110457753 -0.6613345271602674 0.569205987354123
Ni 8.50648378739959 7.785569929415865 0.7304024013233922 0.11405824999970034 1.0897458769611104 0.19597796759364314
Ni 3.26253212447805 9.317852594081408 11.830140677200117 1.0602568663630578 1.2488645096345588 -1.0604178174209544
Ni 9.2731356089841 9.021440990938487 8.725207356525528 -0.44571924495167103 -0.38715260026137194 0.2735656334711353
Ni 6.492524071698444 8.852951437538744 5.448264448308013 -0.8692025613232772 -1.1763529727283932 -1.0460304383510308
Ni 2.633984037345719 2.566871092598712 11.96636918324499 1.21505578861523 -1.6135091586014016 -1.743723192425358
P 3.5024714395707686 1.2638870863290834 6.798938454142878 -1.4412082229097243 -0.10369541870813756 -0.00917755273421
P 6.54135307113545 4.8343987813977245 0.8504610432347335 -1.152824293478834 -1.1535475447981036 -0.735843811222752
P 8.238790717207724 5.964219213412236 11.829647048143846 -0.03131809338699123 0.020201414648539404 0.17332269208797246
P 4.385870748011762 6.304364290250032 11.04063954404326 -1.2676330484913136 -0.7391934444212753 -0.05020310321695225
P 5.7820448013557755 9.17136559577039 11.82445129790642 -1.032816510763918 0.04265331589415235 1.1129292570561091
P 9.33164985404126 9.350177335508054 4.88301983842393 -0.004785851424417564 2.1964571781319657 -0.11500055930831161
P 4.104155615253775 7.60844420922523 1.1282383836728826 -1.681453130741543 -0.32846202839869887 -1.5226674559274809
P 8.92146939857494 0.2523662158318469 12.427835543299347 -1.405023288348735 -2.882565569802803 1.1581799013637923
