# total energy = -340866.32510038535 ev
CRYSTAL
PRIMVEC
9.28832521438307 0.00000000000000 0.00000000000000

0.00000000000000 9.28832521438307 0.00000000000000

0.00000000000000 0.00000000000000 13.59440282955087

PRIMCOORD
 96 1
Ni 7.95872008365866 6.723066308106566 12.122469172236748 0.5742903438555658 -0.24451396752081758 0.3642093612016372
Ni 4.589788778528371 0.497565367519131 2.5323792185824265 1.6820010328252128 0.24543416534224186 -1.3498196465933978
Ni 3.0385177103251304 4.8247183895650245 9.410494611577054 -0.17393949973636497 0.5722936251405111 0.8565151956635958
Ni 0.9277560100322693 5.6655440345692964 0.12879934884446545 0.020007553470178446 0.9400145990398328 1.5435332436328966
Ni 0.2589092803844305 1.9280798477286023 7.098956472262793 0.6279793487385895 0.15423353666700534 0.14002356371521046
Ni 2.692908415379381 1.1460121483779846 6.052119488115337 -0.17524510592166592 -2.157194375976601 -1.2807587872399941
Ni 0.7808787937161462 2.4836703120376384 3.083373819548208 -0.5025910184380505 -0.6161625586093195 -1.1118211115935948
Ni 1.8742261378171439 1.1915435188481414 12.805832625447993 0.9237665126120864 0.19646056365701647 -0.9491206751061588
Ni 4.326409027191822 2.556639395353337 7.376037432204101 0.4433018937594301 0.11409604521617123 0.11793958733197753
Ni 1.149894668340556 3.5972847818762705 5.154943431367216 0.42309585112520043 0.5675041741716678 0.6417882295972237
Ni 9.193482179984901 5.778610818072606 5.949495568712313 2.6705200072233364 -2.8814129442555987 1.9323380347857109
Ni 0.7720047277538475 3.234993654746841 0.3188923561411064 1.7186909320470787 -0.19127619124259962 -1.1283615324507792
Ni 2.1872612760434236 0.5212022976644707 1.4799683104408576 -2.0035398517415173 0.09300862841825272 2.020068188413844
Ni 8.731007176500695 8.438164857409895 10.147582666978513 0.8834657561105107 0.3002395432178958 -0.7334388013256852
Ni 1.6458076427942767 5.659785272902325 11.555038879706922 0.9771436426816461 1.188938779813204 -0.8086453685655106
Ni 3.6442279777873625 6.9535839646402975 11.107891470582132 0.49311213241333784 -1.6623045828375502 -1.3812107593101697
Ni 3.8732687906032734 7.181417295171198 6.4609711321547625 0.01042068111269173 0.897092602865326 -0.15253917968371794
Ni 6.088413619105165 6.682002622090947 10.71951315310132 -0.005401116410913279 -1.6945572722236686 -0.7118531047351095
Ni 8.384013921089819 3.426732553281204 9.566830129514916 -0.12993429780000848 -0.09318037810942661 -0.5188169933786096
Ni 6.7388193077633165 4.540096238337564 12.420431216215992 -1.8699108786987406 3.3097425329759127 0.31084328687567114
Ni 5.750541499108751 4.879918906640533 2.855259981594174 -1.0411975357387617 0.5397897389755348 -0.32605367606752234
Ni 6.422180299332544 0.9328915250736707 0.4654834920389348 -1.3127093720046619 0.8220356738294875 -0.8346122249429174
Ni 7.909055408443661 6.2976238574711 2.200132108369106 -0.7156940757477546 2.2254581933500055 0.9590407624333485
Ni 9.028512234876688 1.2950340389987913 0.3950631251771355 -0.7047339771918251 -1.1249244817447723 0.04274921804206831
P 6.852536274035477 8.5608264809164 11.431085250155455 1.0990980075999714 1.095367851133578 0.5465525116206651
P 3.580807292848515 7.245562469481052 8.812217790827852 0.1529585266093237 -0.12347748643107123 0.1349345792280773
P 1.6505446886816248 4.190827343235707 2.01785801328417 0.26840311543358936 0.4755124170537036 0.03119776575904304
P 7.538330481969697 4.031820502950392 3.4490087437745895 2.762532076056275 -2.1361311275483987 -1.366957334714949
P 4.738095468103442 4.956380400257492 11.201448126857255 -0.7919992753683973 -0.3511828670349823 0.8365672917867593
P 3.705707402744924 6.68292216629261 2.230392543263991 0.6693946784605825 -0.2902366663689131 1.7049216461771284
P 8.465258902220471 7.173243568934206 4.73482133344601 -0.24604043146767304 3.6595336618696903 -1.955553810780542
P 1.1510371323486812 8.082505594522752 0.493863969899311 -0.12848702383052066 -0.270131925199238 1.205842497547078
Ni 1.9922528870142637 8.106850295053613 12.127539669001266 1.3039000012431479 -0.11655736227247024 -1.215965444913693
Ni 5.861973537364661 3.381349796015356 0.9124795014618354 -0.4756625694783227 -0.565553221092884 0.6620672915612339
Ni 9.180125568247632 1.727814266597013 11.464622606205353 -0.4141759229277512 0.15866740406864285 -0.49644865298573865
Ni 5.23229010238234 8.744967529380467 9.932886743708524 -0.6705552744275872 -0.1080863486869816 -0.3696598427932472
Ni 3.2004225080944697 2.47060163838372 0.9744131255250663 0.8658148757979669 0.6613988047392996 0.030842953522785595
Ni 3.8229632209446915 8.665961034639718 4.417256278985888 -1.4182546994373444 -0.6091444754202735 -0.8929713816081009
Ni 5.673466976024018 7.224617295998758 3.179024064339034 -0.24496493901530716 1.046650331323217 0.6207931154027954
Ni 5.712134274120155 7.175779281732727 8.147791375175677 -2.203246433139657 0.5528231751207253 1.0246000363913967
Ni 3.4293332843566104 8.096856057063837 0.7665023238643084 -0.04025550508593712 0.1853675390676485 -1.0632840832251558
Ni 9.214910346381197 8.666509045830608 12.527174507875953 -2.0328059476954863 1.3328832758493754 -0.5577062142446395
Ni 2.595436730003244 5.420824528698791 3.9029533493314608 0.6956695529967115 0.4417134662263877 -1.3500693007103588
Ni 6.570719197039346 2.8799009797011266 10.974666234746842 1.2290392473785157 -0.537402726800597 -0.4943524325783422
Ni 2.300532402702657 2.727934689969948 10.705238854827444 -3.4373217002801835 2.9693107338098472 0.5218676072794755
Ni 2.4514305350278645 1.832800207116022 8.666649299542174 -0.8530583474632468 -0.9050116006020864 0.4789715792468977
Ni 7.4107924876968045 8.131492221993092 0.4835743631659696 0.4391809296125211 -0.4011183184128447 -0.21146166505153907
Ni 3.7105373318849653 4.774561433110752 1.2621134277467765 -0.7476294910037705 -0.8515210848831142 0.9066684194792193
Ni 5.191978770713535 1.9138129801149426 5.128678834003189 0.1646609026479164 -0.8352804546545357 0.20618293315110298
Ni 8.998640980810588 9.032961342680688 2.804892180156288 0.21769504755576058 -0.10293540061366142 0.42666582786464585
Ni 3.6800994899774366 1.2445612794853618 10.912159521014493 2.102304408806941 -3.2921191634671945 -0.33745163349181884
Ni 7.233998504520762 5.488517843261521 4.940015299965495 -1.5870314240258474 -1.0098323911639189 -1.2818558769589148
Ni 7.170652126184068 1.0765633403393549 9.828250044219642 0.5082171063755764 -0.6239180341850222 1.0046403054400181
Ni 3.0897614008359127 1.840741725221282 3.756391936074494 -0.37191624292759173 1.18547961762001 -0.20657296950067006
Ni 8.44751820095609 2.2127763055582177 4.9219077098529755 -0.9752896201920428 0.5868512112397118 -0.3991691651062738
Ni 7.01680030642322 0.25970714752506424 4.813410782382167 -0.6426793739529254 -0.15678175701015581 -1.130878128225046
P 1.518966272916582 0.5007633379093543 10.277953600458545 -0.5131754788221162 0.2808256574676583 1.4175329907799719
P 8.869746891048376 0.0038249323459017847 7.953364435308377 0.82997446906059 -0.31994499206662314 0.245730356426422
P 5.166816697558976 5.671256354609922 5.3911455429657655 -0.08100054821378308 0.3433754551754215 0.07240252213212692
P 4.219936954629723 0.8184946533917971 13.499541415344192 -0.6794500058140557 1.7024415600677518 0.868546158686201
P 2.2494559020467224 2.905313837637958 6.917158868264172 -0.04302226919779687 2.2390184485329443 -0.3547610713045438
P 5.124331897777152 1.3992118952193704 9.029660271879974 0.8033141861605843 1.396881118857575 0.9282350899064014
P 6.650756695884989 5.425626592863025 8.484103985359374 1.3050192024492555 -2.1054925767269355 1.2482096496593793
P 4.86436096181444 2.983168580045313 3.326319255292276 -0.40631786033591316 -0.09022746612868977 -1.2037064250406817
Ni 0.28837649230131596 5.338288470355704 3.4078038752148774 -0.5349419239649303 -1.608600665556191 0.602037432061847
Ni 1.3942426412002895 7.552272258198931 4.880703770125789 0.7276347930493985 -0.04626263051196549 -1.1765234368679867
Ni 1.3291221927371584 4.743984266324183 7.731585235188011 -1.0103291282946791 -0.48719679537016747 -0.7514097839818091
Ni 3.886662555641618 3.970015986608405 5.312678699923162 -0.8745519985606488 -0.8092004697380323 -0.004052572802818827
Ni 5.0717414001023196 3.8430260035264006 9.40023008332194 1.638224916180527 -1.9527399954808307 0.35828553951803455
Ni 4.754712282010237 8.594255163560646 12.224032364894017 0.924199486384447 -0.4162024664394767 0.9682206291604033
Ni 7.278257374429022 2.0761636174972087 7.713614183456951 -0.4365722883450804 0.5393153704422776 -0.28620234839853936
Ni 4.75547392468232 2.8280535480478393 12.21489729699165 0.32991778700861885 -0.22456734919556165 1.6384298331024814
Ni 8.990764480982214 4.659962075938007 11.900934255070966 -0.14860462051600215 -2.2077522914298107 -0.35602862516305783
Ni 9.216238576894709 9.183357905441353 5.739366714977244 -0.2708680320343142 0.5045792525126729 -0.5684824789245371
Ni 6.79677845744381 9.0488165139154 7.946635043650761 -0.5002076058075385 0.9063370042817295 -1.3514083312367564
Ni 7.7305059317917175 1.8403423272347017 2.250335506449726 -0.4679094078954652 0.8765476888344389 1.5311739507365951
Ni 4.6550857051716195 5.175937832973437 7.635309886106562 -1.4923922019827072 0.39108535965687485 -0.8673498243852545
Ni 8.297065908243809 4.317352910054245 1.1541821592848696 -1.3833200923436886 -0.48821186689824303 -0.0077475051559027855
Ni 8.514617062701584 6.032284269502726 9.755588404470357 -0.26366714341050074 -0.9423895270299124 0.6000954778441278
Ni 2.8611850042834672 3.9260636314340305 12.535561865594142 -0.8579557847648642 1.4144957466155446 1.1439619579921976
Ni 6.072614177822069 3.7361173796766445 6.475081955903899 1.2000482594628041 1.0183350293182913 -0.7244954760894684
Ni 3.8030211865914834 0.10210563085299595 7.973063115539529 0.5023681037939671 -1.919764311885758 -0.7235053442620571
Ni 1.372554401696451 7.209848858820556 2.480842945825661 1.0816163058754404 0.497609248952743 -1.202573082767187
Ni 6.545204167524553 7.488099218913271 6.010955488186809 -1.1953138301016124 0.7354843710008042 -1.6312623688197647
Ni 0.9997488903621627 7.476442370700286 7.160634667381118 0.5510205746943478 0.9442890580454706 0.7183713654696015
Ni 1.5252823340997126 6.724589593450734 9.216814453061406 -0.14020945447377142 0.36592325856895047 1.546123372957576
Ni 4.722955497914467 6.316070471455949 0.029979927471751315 0.6403774652926262 -0.14900854082264015 -1.6087104516611777
Ni 7.998409097534421 6.937979578187857 7.659983393351957 1.5397647777294 0.2964620784533346 0.6010421580281132
P 7.472513409111369 2.7601744669797226 13.085578405909065 1.5881935626547485 -2.0642284278708254 0.6988860030514803
P 2.289265664150984 5.771579555843738 5.997035075105695 -1.0279113601528167 0.05554765535831724 0.0063678511995567755
P 8.239283236743432 3.8116314641161333 6.5551937613516955 0.8631476133784489 -0.38486637533035656 -0.3707520474161615
P 0.9243332621705286 4.448141818171397 9.89411541636937 0.005836147065802852 0.3279750614599513 0.8452514498243185
P 1.5255145422314453 0.44931809074022805 3.926865213904772 -0.2883936996229033 -1.005599584029494 0.6095008303184277
P 4.995772187724635 9.198014882716324 6.002431592087164 0.9681185563649004 0.08250772888692887 1.0524923919262905
P 6.807153516769628 6.095296268129724 0.41440234722036545 0.22219962029433343 -0.8522700472339968 -0.2086820454238729
P 6.865354162907123 9.01946540606438 2.3392972282141216 -1.1152550769758083 0.5895359571607266 1.0418007165403995
