# total energy = -340854.069025336 ev
CRYSTAL
PRIMVEC
9.41762362197798 0.00000000000000 0.00000000000000

0.00000000000000 9.41762362197798 0.00000000000000

0.00000000000000 0.00000000000000 13.78364411874494

PRIMCOORD
 96 1
Ni 2.452612819013952 2.5076870804819724 11.2638278861626 0.06675278004551728 0.07196517748439218 0.8661498905398826
Ni 7.718797125568922 4.265844352188842 2.293570820827651 1.944073320944768 0.303309183282155 1.936979133102148
Ni 4.892276405894092 5.7692172412425275 4.454984132903468 -1.1329761484046554 -0.7429146020266044 1.391894978496893
Ni 2.824731371234521 2.2081030634574863 4.754929786665364 -0.7895402723049434 -0.7224342226850655 -0.009660405907899492
Ni 2.6638312759573104 6.866238517125532 7.967649347261315 0.8461883598162911 0.04207841722728882 -2.5870828245436024
Ni 0.9464711486894735 3.4050264880499235 9.796160032591764 -1.2211824703382583 -0.4250457757627195 0.18255680909173075
Ni 4.969274894567577 8.360137277068953 7.147839582324918 -0.8925481780277531 -0.8013786597007682 0.7718006889333353
Ni 5.785641576399886 1.7878039500757699 8.976018767312743 -0.11303803626530211 0.003964126854070591 -0.05763564823559751
Ni 8.174045039276873 1.8966057528698943 12.368091314417171 1.3333087934225685 -0.5385651225398145 0.5665760059304437
Ni 8.371353666502676 1.4758922640598955 8.009937301479827 0.26638479945197996 -0.7100016533486676 -2.6158154165916048
Ni 2.117213580313187 3.34712693957089 6.922821481857434 -2.4315205417628447 -1.132540089308501 -1.951329488286549
Ni 2.5341035140349475 9.017525058791541 6.595611808439259 -0.5915036224100587 0.8671878448860937 0.1009944748372067
Ni 0.3621763672288128 8.665842749283968 1.79016494825464 1.5487692952208552 -0.7628619916828088 -1.0063014951925249
Ni -0.010680526663967481 0.8958843847572794 10.192838804799072 1.3332943952448648 -1.497152599485828 0.40982767326138453
Ni 4.567067035679716 0.5276477768898429 5.209486446817954 0.5262009445475067 -0.9708410975023861 0.8115268038783636
Ni 6.11031414208217 2.476486494257015 11.987800148636076 -0.7914562583807337 -0.7328019390726347 0.120515832699586
Ni 8.88636581811693 2.662748249269755 5.115565430710838 0.20298936591446978 -0.6115965365051919 -0.09784615901621213
Ni 1.9885405922082686 3.701728712323176 2.202020220522775 1.1472447425085275 0.15256797603912434 2.9229012933073726
Ni 8.16666162255476 0.5844369875735483 3.070650945009482 0.07530375493932194 1.0949801287768561 -0.6072444301840833
Ni 6.029567439307408 4.9778543494576875 0.669005361911874 -1.7305444889515549 0.7174120868801257 -1.026194120351394
Ni 4.328160766028427 1.712538304102374 0.4314844246583184 0.6098882955648335 -1.3322818948199506 -0.2719990603149638
Ni 1.0617711116089283 8.080518621588961 8.962318008834004 0.5164158401362848 -0.1049002376495161 3.0902824230999295
Ni 4.064504982160661 1.7015950257463826 7.303553392412245 1.6284971473698018 0.17008644453886193 -1.7702042694350222
Ni 0.22087528794700192 4.70982878834622 3.8709295008387437 0.3231370166413596 0.5576902734050395 -0.1935837563298537
P 2.979688946165233 9.345719815614222 4.066671035535771 -1.0800787861849914 -0.28341475835107316 -0.22345663262988613
P 0.875733496032395 7.290370603218857 4.390490364540729 0.2483701080421142 -0.5356893436539161 0.5094435225835097
P 6.6284152741617985 4.6032212917973165 12.322164390528474 -0.19432269137840727 0.4481013720306024 -0.16097394071463245
P 5.800285980740305 2.1831746143969784 2.4721656886548384 1.3693181216376418 1.4850185352264555 -0.9739989264050772
P 0.7745015789031126 1.4795274666807328 6.513033377919024 0.5389456458076847 0.1355992093952697 0.05114438408429901
P 8.605447530611873 3.573131065205218 7.929992038453856 0.6323155142200981 1.014553193678356 0.9805015034102855
P 8.647393625102051 7.024991394274372 7.445800001080409 1.1601817622851696 -1.3405173953558658 2.340679353309556
P 4.340394258786114 2.7579227510474253 10.4464026634635 1.0465305179159008 -0.5166310414708845 -0.6016803058327445
Ni 3.1843433196196704 8.419760250624705 1.8564640750174164 -0.3530782842854822 0.37150898018684403 0.22546235020600525
Ni 4.236715643105295 6.565138262738469 0.380844922035252 -0.3163639595835842 1.2575800351306858 0.78624643204502
Ni 5.946899541365158 9.682917820378666 1.96681601861825 1.0742223274042144 -2.4882730160625406 -0.8864142972158734
Ni 7.15533130171579 9.044789078447819 9.042015588365341 0.20480276497412472 -0.173137829770676 -0.35220976563759987
Ni 1.0237333308173184 1.2289339264272183 12.802896393075768 -0.23591079923283886 -2.297221282125921 -1.9478754682996775
Ni 4.364898914794971 3.492742232118518 12.98372417940399 -0.3204322161156868 1.2095361443485813 -1.0452336534813482
Ni 9.369461644130103 8.92882046426909 7.378674006985742 0.11437089614411271 1.3313382999597587 0.6793289068551591
Ni 6.604965391970388 0.12608785048984095 11.509728624690823 -0.1603216518426142 -0.8391077988204259 -0.5874199392589884
Ni 9.040127354879647 5.595367913831506 10.833282398554275 -0.5059861601625285 -2.798907786471831 -0.38111205049424685
Ni 2.318449356484298 8.371494930853228 13.295041613385216 -0.06225412084421537 0.9176804543190067 -0.32123902828769835
Ni 7.238912709124934 7.990269536833825 1.0246468402842128 0.473469675592062 -1.1350877954310192 -0.22551634337239226
Ni 7.516365311229815 6.887833127513045 12.651827354834547 -0.02003275028115905 -2.3192782619259606 0.22346357460842162
Ni 5.590630849276374 6.840773263532933 2.6492028815766204 0.7625154069766674 0.15236228778622146 -1.8793272869166342
Ni 3.077829999304467 7.994319114882944 11.123332013678928 -0.9578385145951311 0.22968255893493994 -0.08107562442609263
Ni 5.347439560991714 4.1496591326726024 2.8173357116020252 0.06273723112822098 0.9257930561238119 1.6182957813567675
Ni 1.0364282871201385 6.318340024703083 12.427912058063692 0.474919263554395 0.9830402106717392 0.3283854095244925
Ni 8.530276060872177 8.79530681775197 12.605335373543648 1.1365219567743847 1.7544945720092495 1.347422092895499
Ni 5.753602821694994 7.7572492817888135 4.723640674780728 -0.602724945047175 0.7604585244476387 0.7989461389998757
Ni 1.0226408865063934 2.8805307897020347 0.498898598028108 -2.0257721807771563 -0.9981346431110166 -0.6319810136988149
Ni 4.295660547778403 0.7737961989126962 11.70381642472407 -0.3393856172897381 0.2354695979303622 0.23659728377690226
Ni 7.06042991101585 2.94508859790369 0.7493565245050938 -0.19461965379353577 -3.227017031651223 -1.877428784342341
Ni 3.0347820428799936 6.153531615727305 2.7285962718731067 -0.06567960158599656 -1.1745292892560935 -0.5512005519156378
Ni 4.077746160618943 3.964066028919136 5.574753678036815 1.5422530913688923 -0.2645883696731895 2.304559981879179
Ni 5.680333711876048 6.583220099608955 11.393477481810994 -0.9209089885586333 -0.8164396677989487 0.8503116379560453
P 3.1748221023925556 8.9370232142244 8.784468075015386 0.6046077638921846 0.12751463261492235 -0.06951491617168673
P 7.946543511526708 5.724351683507636 0.6525631332701133 0.49558013433785625 1.8983786471211306 0.1347949683264195
P 5.984570034845335 2.7230775445782602 6.658037466709936 -0.9322863771576396 -1.5493495932043573 1.9254155966342645
P 0.4060982791020264 3.337681063330735 12.13645733353223 0.3276539306751067 0.27597321447136347 -0.51027964533156
P 2.1548087328064045 5.372302086688631 10.615721172271193 -0.7520034517017501 -0.33786995197616004 0.07348804188682181
P 4.566492560654143 5.939704477110443 7.095048152761797 -0.40187036608752086 0.33915627488775135 -0.3405683247439296
P 4.8452730476542 8.316571351359128 12.789429191656604 -0.09211954094508006 -0.4375552210836399 -0.8959302071261086
P 2.6139461249661844 4.4007988950815795 4.173949066868621 -1.0210493429256609 0.5330740175182561 -0.05462000133772529
Ni -0.03880814238327942 -0.25386051380058283 5.233993928113821 0.02458000333220928 0.3165092269121968 -2.1236504785828845
Ni 6.180795635383583 3.982138448166251 10.268621478295485 -0.2872176770369312 0.9455388712921715 0.7930146040067891
Ni 0.4175114968641833 5.3154008062868225 1.350907217266687 -0.09838866178324346 -0.2970369771201981 0.5237427128150012
Ni 2.3527954289148503 1.7196486097467578 8.54984305694812 -1.9956362806237244 -1.4048739072550644 1.8558279182431137
Ni 6.935269696427959 6.13553453746715 9.43993560333282 0.33564826173449286 0.677227287131124 -1.0160616599030823
Ni 6.064723427347785 2.098359498326358 4.60903008189196 0.7696661590888357 -0.05203604266063296 -0.7812852313850028
Ni 1.9833043936145238 5.539681506844433 6.0237831350335265 -0.1775668120763071 0.0390663698738424 -0.660929835522681
Ni 1.1481778060290868 0.898573116229427 3.3923616681418873 0.7676619841746134 0.10140559423269632 -0.0013660271095911958
Ni 3.0194784049036714 7.361304142442033 4.806687161182454 0.330837727719727 0.2632459967126821 0.131057098550542
Ni 2.2208545255005268 4.731856609408754 13.72849526309021 0.06117348618552691 -0.18802271730230843 1.2257564628621858
Ni 3.237430462556611 4.243788278256198 8.485376599693152 1.2948851993390473 0.7979390378915999 1.8140377216802046
Ni 3.6021750156784353 5.479088518081566 12.275134662943145 0.7430855803868299 1.6139081938120334 -3.5375242753437144
Ni 8.358573951589525 7.702080844087093 3.371865152639323 -0.701920933223062 -1.3495095715521468 0.7788951338862715
Ni 7.208823402457641 8.847527539338866 6.4628195518722835 -0.060810189308837206 0.4274548994248445 2.159519167455036
Ni 8.4506971433953 7.6450477169581035 10.538284764111001 -0.22099660112516778 1.662604887686788 -0.5474976491427539
Ni 5.685861856794264 4.3295074861703435 8.162936010749569 -0.26482953914971813 0.5044481262514474 -1.98660245255623
Ni 6.583012911894814 4.223822916711703 5.371541142720331 1.4128844362643667 1.9997096793621496 -0.4585043125314813
Ni 7.284192642288108 6.56102276132576 6.077538929229741 -1.9815877729504585 -1.3635064000518713 -1.4710659297011053
Ni 7.897835563456838 2.3769987209758643 9.845574302414388 -1.2604473293761518 2.731607875673592 1.9577302496065703
Ni 4.004561809410327 1.133034267650055 2.606114429371656 -2.823172572556467 0.8842509710159675 1.4730508213416178
Ni 5.063206270060401 8.145236529387908 9.866594437776328 1.097073778081091 3.151093383739715 -1.1703047096517847
Ni 1.0250988862059751 5.390515770286298 8.74048400682793 -1.1839729511674966 1.2055087683567431 -1.5151960872511
Ni 9.031632658599868 4.8740815575431675 6.1826810435822654 -0.16540652256468932 -0.19387789053150484 1.0758940586796826
Ni 3.8631185240156283 6.368470033901829 9.687200013725024 0.7451208656493038 -2.753501333312574 0.8498724935360976
P 0.8358997744641177 8.703193043569565 11.366833141772462 1.688499238955047 -0.5799495990238721 -0.21209132821573795
P -0.12019053473551908 2.3147859009933507 2.3901937530796338 -0.04123046740469674 2.7477598028431065 -0.24992793944753733
P 1.7562266589160107 6.881504484608375 0.8790626258937059 0.6024776049230592 -0.3453168951725085 0.5144188643109141
P 2.326369577738505 0.8540917975280328 0.684655568428214 0.5713042646440484 0.15950738347143498 1.1058584662522568
P 8.324133702925273 0.45987667559432854 0.7789740082415467 -0.9591541480827609 0.5780369553821916 -1.0611732075297402
P 6.84879707864421 0.03085778473428785 4.572434139238304 0.19681820410675135 1.2072925997300434 -0.8986272943422976
P 7.482301767500364 5.71262674241193 3.865568047854177 -0.6608974396228489 0.37080886879602587 0.7813569651632027
P 3.9620506575179464 4.03271108566339 1.2607993968621012 -1.146895843809541 0.39321783261884535 -1.140763505659558
