# total energy = -340857.5832954247 ev
CRYSTAL
PRIMVEC
9.39456244140045 0.00000000000000 0.00000000000000

0.00000000000000 9.39456244140045 0.00000000000000

0.00000000000000 0.00000000000000 13.74989174990844

PRIMCOORD
 96 1
Ni 3.0161900064849365 3.6499941558649724 9.264457062406759 -0.20127752542968563 -0.929338093162593 0.4870330160987934
Ni 4.598440987688293 9.0273946759033 10.259481194937278 -0.34736760705395014 -0.029719895661935912 -0.03621681624018924
Ni 1.267467380324725 1.4437939211935293 12.74679585845796 1.6531550551277978 -0.4378208160402008 -0.8372684316188419
Ni 2.1369810992288865 1.2550101906400304 9.66501865433748 -0.5061106015555348 1.6708776692185416 1.585059130790825
Ni 8.423089452322616 1.7154846645429793 13.055164852159585 -1.2709014348299401 -0.24006878726527042 1.4765552349504507
Ni 6.7598291599193185 6.500933810499396 9.338885482675986 -0.6520569585130835 -0.331689534197061 0.3449083468801802
Ni 8.203284876868015 4.599906539415904 2.7937446195519278 0.6346912135411263 0.9765584596021375 0.9256863553426187
Ni 9.314473712392667 7.756394940132537 5.502830140428421 -0.22128302201733502 1.503276710105695 -0.032606987401743844
Ni 6.188855843579431 9.34295802545752 13.8462781298302 0.7849289987851773 -0.9024669798033619 0.475802951710929
Ni 5.789840596612586 3.34154249001461 5.325085960100023 -0.19956568494490146 0.9720196911915194 -0.2682946148801831
Ni 2.134707615138618 8.099954085509072 10.750187370503385 -0.17267477409132842 1.5342675020602543 -0.2096824616639292
Ni 1.2970696463099987 7.113600194577349 7.136675118637339 -0.7384244274657348 0.005699364377622442 1.5171850926566708
Ni 4.295954868934296 3.262693928156659 2.323883098942382 -1.0758282384387536 0.19596125542309475 0.14060900390503525
Ni 4.936410368462721 3.934818497388784 7.7888869734986645 0.6504837004886925 -0.47164136413407165 -0.09433968852485042
Ni 0.6358202224617371 6.291040498330883 13.002392777034519 -1.7001864454849878 -1.2184005367177468 1.417027769008779
Ni 4.893636926053659 6.8081829723681295 5.897452490037376 0.011355534222135283 -0.22917476606058595 -0.7583941857194423
Ni 8.72996283169709 1.571278132370986 8.579299416817486 4.009162554153992 -4.2729613380463505 -3.503341458814418
Ni 7.384257536067586 2.817297726835863 9.07080319072766 -6.182691405624559 3.735952761360379 2.6281873078933966
Ni 2.10241850431939 2.199999823516165 7.331386818037778 1.7149270941292722 1.4395066668375855 0.9125588168217251
Ni 3.71851809369315 6.469828414537086 10.61659387542551 1.3680773072520052 -0.4100359326174487 1.8295026500850236
Ni 4.055491650857791 7.645022403396448 0.8479466221023862 0.3223595150453868 -0.39038473404542445 2.42684473355373
Ni 8.764685134166646 4.4916529973821655 9.45828943077063 0.559122892086508 2.0549310617292993 -0.4466862368506307
Ni 1.7935346886006291 1.2896573366107347 2.837537371976667 0.40433939645330363 0.2008890317420153 -0.6916028391265058
Ni 0.3988386291945442 2.1050583763415616 4.671635901920113 1.4962012913161522 -1.4255332353766288 0.6392706053816927
P 4.410906733928206 0.3815639079334458 1.22078955780031 0.41666629344977274 -1.0260051442690394 -0.12175304754079676
P 5.413832632856764 1.857755916869538 10.590881897712054 0.7998138863168096 0.1034925586687121 -1.1762650410002775
P 2.5487823455629037 2.958216162183088 4.014253279937779 1.3043304039123471 -0.310803177666355 -0.5464910622551103
P 5.15381933051642 8.492778315882997 4.002015923012226 0.6499975048808935 -0.3859842909848836 -0.9528073799291267
P 3.5752134395073787 3.603293786390902 12.411683364096138 0.5441233333538822 -2.256132482505411 -0.9460222386864933
P 8.962459460895298 3.779319701264299 13.118180758078157 -0.8552908363381915 1.030886640731057 -0.43428143542837466
P 8.728638198404827 6.2376136222095715 8.054837639248305 -0.4585428790789006 -0.03818525282046972 -0.7524708782564719
P 1.7046997069577385 8.580044405612355 4.320779999961299 2.5362906815924 1.091304993918114 0.853220584072724
Ni 4.5104515166574854 4.862108774785308 4.0243317664338125 0.03940858370460955 1.008190998905754 0.12307742277917513
Ni 5.103257795913835 9.31737663216082 5.845491165643676 0.3645531176943012 -2.128721979568521 3.8138124499523354
Ni 2.9448195162627453 6.267525908752609 13.12332240205586 0.1633540109110348 0.8107073933008618 -1.0599948709509228
Ni 2.162994642393984 5.738414762273205 8.83979184183801 -0.11176842552425911 0.2973164560338299 0.9710480713068695
Ni 3.5603324527347113 7.154522908202183 3.6920658244660047 -0.6931542427740256 0.14823078211635118 -0.6177070202783039
Ni 1.5164232827714892 3.733633944524729 12.000245687325316 -0.22800028613651058 1.505496343464833 -0.25235351816989443
Ni 1.0643381530528782 4.398120734561035 4.340661712276321 -1.130762428582788 -0.6764909231857317 2.565822372502929
Ni 5.1031826394149835 1.3692480688948472 4.30331738745307 -0.9678280217076751 0.9273172060778223 -2.788535699208888
Ni 0.8214389249573375 2.8515315120628824 0.89407204436024 0.04013312057545992 -0.32700961222288843 -0.23472757755801513
Ni 3.3915403508758057 3.804506522942027 6.0978018663079405 -0.9287698793639488 0.43860011740838656 -1.2761308015496797
Ni 2.6381152390106877 4.271763870866356 0.43538723458620054 1.047990390290879 0.1009772484460261 0.28206518630171423
Ni 5.43314785306169 4.245675171202406 10.095418315768626 -0.3368777632662198 0.2757248459059832 0.89510925388671
Ni 9.373255489057172 9.138917525637094 3.4031398170173532 -1.6786048626594705 1.0901546823637547 -0.9777833331481741
Ni 6.6134055110311945 5.571454600073813 7.101612733010478 0.05980154553866475 0.5892209970234691 -0.46581293037775257
Ni 4.161556259862469 1.1466157301709448 12.191121586915603 -2.6230183620979473 -0.46959502312800416 -0.5180698307999401
Ni 7.508669725354473 7.731001438082967 12.286738503123637 -1.673255682532415 -0.044343044891749436 1.5025143780183736
Ni 1.4857124584281507 4.672911683488123 2.231840813710989 -0.35883241316044007 0.4305772471039101 0.29103319412827944
Ni 6.6803323732587705 0.5465089365073728 9.00252163260828 -1.4572125687577806 -0.4381303768608196 -0.3415782540656827
Ni 1.8281066780724817 8.491679152087288 1.7310561516488479 -0.059639823149819866 -0.11019979548555861 0.3033117543853164
Ni 0.24778533997714672 3.5405381098496047 6.813250399303216 1.6305987670938367 1.000178927234555 -0.9860239758904115
Ni 7.4573284420763 3.8951358659950053 11.33392601817326 -0.010737183911846025 0.29034928068737736 1.5642599346572867
Ni 2.6154273709197846 9.04344058840817 13.189157616137612 0.4185501407360469 -1.1308254206102395 0.577829981577708
Ni 7.549338785795682 1.503486970406614 4.685413027615893 -0.6989114569727769 3.656374547415419 -1.9430749615872407
Ni 0.03241593741104001 9.155780765066979 9.659422313541725 0.5157159858557828 -0.9228008062647075 0.944587820232812
P 5.933802870163311 5.844892732021568 11.892020328978647 1.1689150283931093 0.9466012511184149 -1.315383062182083
P 0.8874855166921106 6.557141477078226 1.4673197842466308 -0.01696670976132562 -0.19631966720377803 -0.2133681380456325
P 4.49973232100874 1.8399626157663616 6.424224390490017 0.07742851459180859 1.9523579295510634 0.7232937424718834
P 7.449070621764952 7.57732518705564 1.2328277500039058 1.4111476560789182 2.8959065098860837 -1.9722312714362227
P 8.259840142254035 3.512852334585053 4.738817356787549 -0.09731368355150982 1.6423885606399133 -0.7247538719571776
P 2.0673110247932183 5.554055870589609 5.971976734842639 0.30238358614409216 0.12837003863668214 -0.509179984509478
P 8.620619520430001 0.8072634698176424 6.470616618318795 -0.4314799614238375 0.4552996895512546 0.6206599322590408
P 0.7334710614199502 3.0690626034272155 8.794100448361027 3.003884100909343 0.11474499165407981 1.9113686316228953
Ni -0.0012081407190435431 2.2633943302977038 10.970172321555232 -0.6691823053394604 0.19862594673945147 -1.677228551137234
Ni 6.398006985321783 6.169117868068463 2.0714352376677136 -0.3591836258522717 -2.284552685519317 1.6539973485234352
Ni 6.708065121335105 0.06329304550808833 2.745798531109388 -0.26486656303524064 0.10272405593380374 -0.4624622687379648
Ni 7.358403700462548 9.001672364171252 5.323339510957953 -1.2669074831791987 -4.919558301886128 -0.578415678877849
Ni 7.8999344583772215 7.240501942888703 3.484332322183246 0.16420864560184625 -0.1974049298481568 0.19996034928015882
Ni 0.3329348348075897 8.45183681313345 12.345973097693726 0.14232598659614198 1.74920144193111 -0.018208809698542834
Ni 7.485173924900912 3.403217791884912 6.786588631335521 -0.9711683989348178 -0.618558826755638 0.8901156573268607
Ni 6.589665451956366 3.8336954281836153 1.1354070778234264 -0.051109159970989394 -1.0524103737354455 0.2765874510165946
Ni 8.626772958773495 5.5237208287405295 5.692317523702421 -0.3020336590038411 -0.047864684891762724 -0.11404462315294553
Ni 1.137080249379116 0.26449356912814936 7.155003909794836 -1.4598456355052538 -1.073787296749325 -1.055750493852272
Ni 4.3524161886967505 1.313613470619763 8.480548474607328 -0.04076766883566528 0.3041710170618181 0.3541956857193771
Ni 2.76227377511395 1.1542816930538338 5.345985103518252 -0.6107704410594706 -0.1520352434641059 -1.8229489081269057
Ni 1.1202264045115877 6.5921831946679035 3.853351671002082 -0.5275289193303108 0.020088286109442823 -1.321097596068357
Ni 5.955692200453914 2.0258997939258467 12.862473923122025 1.739004189683134 2.3649958185677336 0.5903695088056156
Ni 7.578067357481803 5.585537049046179 13.559001807531345 0.11033374996026159 0.0067290911937174435 -0.3046250738801012
Ni 7.658296920006157 8.228913242976496 7.482457017467418 0.7542937903978235 -0.6659889952131434 0.8642683572464536
Ni 7.30883798946975 0.6976495951546855 11.308447025606247 -0.262323999119045 0.9486393645943662 0.5119506052760796
Ni 2.9879781357284223 8.412576937045714 6.315641099317566 0.2834764648269441 -0.7673092288208849 0.21013240471715425
Ni 8.727989973602229 6.566573617684134 10.749500627995129 1.6718726861419593 -0.42308196716812946 -0.5709605081513844
Ni 5.21878272921149 8.230416372953533 7.924117940795276 -0.5180158376335531 -1.1742153575601004 0.8441674727315205
Ni 3.2495509354199412 1.9503299343303084 0.6580421202597587 -1.1599241377484086 0.06801699146992157 -1.032892358307176
Ni 8.438956868142714 2.319432894754117 2.258942247196967 -0.7123027906780184 -1.280922309401052 0.537800733569964
Ni 4.950981334677624 4.819185019378542 13.40798703601961 0.4783683984452599 0.04383448068644709 0.9529667883251265
Ni 4.771470037169973 7.843501322301837 12.506447254042204 0.49246601418890673 -0.47906568162260077 -1.7647944112733607
P 4.528432709007792 5.507064269682487 1.7937423084287074 -3.419533780169143 -0.6956988635727502 -0.42898110626138375
P 6.498575775347919 5.816267500521369 4.553317965233876 -0.057833366068700404 -0.16327610648524782 0.5985494735132466
P 7.482327372506898 8.354123970063684 10.203134488835575 0.10801384357783334 -0.8985643023148461 -0.6240077656853511
P 0.2937341444626986 0.5515885763735223 0.7264880832203774 0.5508141151104965 -0.12404698578129604 1.0455653257891542
P 2.29488490331663 8.913532580142743 8.681310272165343 1.436260649096462 -2.620931397661931 0.26537255613738164
P 6.164514532513787 2.3913764532800537 2.7886292803488235 1.9317381964181828 -0.2845527286102583 -0.5801923111622976
P 1.6016601470318474 6.047984381043989 11.181700287573776 -0.08686831984846974 -0.7168739549884686 -1.4019752455510306
P 4.471473477440443 5.890061787831532 8.834635166560538 0.8584334957322313 -0.6362554727044527 -2.7814260847473
