# total energy = -381172.31249832106 ev
CRYSTAL
PRIMVEC
9.22863746417999 0.00000000000000 0.00000000000000
0.00000000000000 9.22863746417999 0.00000000000000
0.00000000000000 0.00000000000000 13.50704377379451
PRIMCOORD
 96 1
Ni 0.2798842649504016 4.74770935052308 11.865478560668334 -0.04783074633003375 0.7425268796698825 0.33140054220173254
Ni 0.5686704733972374 0.07670197281973215 4.290809671515604 -1.5544532329795102 1.8199921394914267 -0.35473381761103423
Ni 7.5569342169392755 4.511456236788149 5.134418783158144 -0.6081661706674042 0.3828542299963342 -0.45063827951984325
Ni 8.509772556271475 8.20881746673984 2.3208204655466758 -2.2110181066652763 -0.9673315416872307 1.7270925258472127
Ni 7.36621519942185 4.61546297865505 10.889918393549934 -0.46543214999956617 0.7650471722595857 -1.542328167581202
Ni 5.98393145405288 7.027007408467116 10.9132317769842 0.7766104516171529 -0.7578467978564045 0.28701018901181535
Ni 5.17606577736373 7.405630709139112 13.101670209695193 0.5408811722675008 1.2737509884635934 0.23234930713382565
Ni 8.347976087912068 6.891863244500931 10.061369495044271 -1.4402335177012808 -1.6068417738835554 0.23244006707541903
Ni 6.289851550427851 3.0674882800049486 1.0663921064396784 0.20393244655402942 0.24010169738573484 0.2722471717700279
Ni 8.084600009283895 2.428663551920594 3.9433274843977957 0.9291943684958771 0.9329350664852321 -0.04851080311619388
Ni 4.695659836403354 0.6766372235103759 2.642396022161489 1.7113398909986464 -1.1956174773849602 0.7106670548468084
Ni 2.8680666575558025 9.031098274821723 12.773422348344818 -0.15037842458697329 -2.1919574904893993 -1.7267672812973098
Ni 2.6952327390390907 1.1756637858607122 0.8495062108486573 -1.698499030480236 1.1737258195181914 2.5234148540709964
Ni 0.19517368072054544 8.431624455993843 9.015991918498571 0.5463339678519559 1.7802038038498953 -0.9959893146332395
Ni 2.6843060325288497 8.551799770331979 8.790573224901324 -2.033199583589479 1.0069126464139626 2.011395343230194
Ni 6.901848630011134 6.4453264022673995 1.0171250264524154 1.88269800316108 1.187109439913949 -1.112950854322664
Ni 1.5639863842879969 3.0227755325031613 13.168030571606668 -0.5885075158962123 0.8881521058425864 3.0222266079722724
Ni 9.084725885912102 3.7981840919655245 9.443003732891126 0.835271198683155 0.45967622135239544 0.17762569033870054
Ni 4.7986883427211975 6.064792773683562 6.904557235045556 0.7747070639468528 0.4341850190598264 -1.1461268268540001
Ni 0.6796116132977497 0.9064404426675995 12.677211036367444 -1.1346458227975944 0.19766975347376922 0.04353546138878954
Ni 3.935146297470998 3.060972862102727 13.161857536146616 0.901319239352164 1.3588059092524083 1.9498235931649839
Ni 4.767680121543487 0.0994210320147578 11.481581093804953 1.1196609193529878 -0.16964678589828203 -1.1032089444445516
Ni 0.463860840089127 5.325422042703032 5.67456538452679 -0.4325842502316098 -0.6440639130052779 0.8286665488824438
Ni 6.848119503910948 5.0194096599555085 2.8715430852098622 -0.5278346234961877 -0.41169660814932324 0.09292532467582706
P 5.559183424379042 1.5916076955930223 10.081103090087217 -0.16617913906465573 -0.630583619130656 0.04829174512685231
Ni 7.401560880109537 0.5715350424012734 12.696337387078993 0.01903721913710915 -0.7562545136686202 1.234184539024881
P 4.478417715414279 4.321724683457036 3.2517933946299613 -0.4049091529138446 0.8694177626578768 -1.1268648933005947
Ni 3.524527311434979 6.374810384999875 8.774188702318318 -0.3495075362150884 -0.40004976793901426 0.23495614862905342
P 4.891048544371946 5.465725014894915 12.338657555794109 0.27263283724422077 -0.9503090389873053 -0.42081219729734626
P 8.424296918013157 0.7832141408528707 5.769479150106074 -1.654621098150363 0.19397842066511106 -0.20868873029209217
P 8.442486562043296 2.9339591275584356 13.077681290013842 1.536371949997767 -2.9488424386531666 0.19312378597429966
Ni 9.119084102413474 7.712390611504312 6.532397671907153 -0.11746856123282994 1.0895059930361624 -0.3464132135604808
Ni 7.559296748076625 7.14535545262871 4.423610684482677 1.0902660111306384 -0.9497315692172804 -0.5633572418828299
Ni 7.958573738925916 1.4743763165393171 1.6382556883272394 -0.023175666785514925 -0.44564545429094216 -0.46226737911833937
Ni 5.122059792145886 8.38215896030559 9.133502925261109 -0.006319000239492344 -0.4466450992000501 0.5154082248073768
Ni 6.272972372887962 8.206473392877001 6.002206001545767 -0.11176405464888493 0.1371423855126735 0.19266870071475206
Ni 2.8647997199674364 5.547841429192314 5.420282282186236 0.2477065063161863 1.1191364143080855 1.106182939471211
Ni 8.659673311208838 3.8617970885661057 1.839902335218632 -0.49675512848256387 -1.6349300474793393 -0.010070239751808463
Ni 7.247248836564155 9.025468806096008 10.414619580446626 -0.12781776567763795 0.713039925954359 -0.3668092607183296
Ni 1.0543072059539014 7.956192750514057 11.448691153490893 -1.6211610187197047 -2.4467862096726636 0.9667193620245286
Ni 8.273962417124796 3.5389424428277123 7.235169473260731 1.3617464799379708 0.3702835924201752 -0.6916434625564541
Ni 4.790650199671856 5.405480470892507 1.1124550035719116 0.9371462763531021 -0.5693396847185097 -0.17376800715550716
Ni 1.6611547059487428 4.579369778349687 3.764642609861242 -0.5129584777153037 0.5719467833240537 -1.175308333513963
Ni 0.7740510269221124 2.8791963940856586 5.236748681635763 0.27829080686094654 -0.15277906360866592 0.9286426097574653
Ni 4.195320038971593 8.143654059080372 4.722291837794614 0.5041282810181833 -0.4237939056334895 -0.6051469242251062
Ni 7.293530452399337 6.994633348975627 7.972100152550967 -0.5344804109474796 1.2192472009887583 -0.596488991439792
Ni 1.27306282345284 6.201838036924334 9.974721819854533 1.938387326303584 -1.3002181815161866 -0.2710634358745719
Ni 4.809901136986351 1.0732351409644616 5.746112240575728 -1.045361437308464 -0.7559490666130593 -0.7890301654377443
Ni 1.148180904114516 2.4546975376177125 2.956867373817194 -0.11042502412248725 -1.3032276577664716 -1.1414651597122727
Ni 6.460027621415045 2.9731531499815707 8.680652772281245 0.8238439306828197 -0.5369664105941269 -0.10805986632442036
Ni 4.189182995196837 2.6569246657924612 1.89271505763937 -0.754340841585675 1.916459158771925 -0.029289235882420522
Ni 0.8243987803319676 1.1318093016236654 7.100355694508283 -0.18845466263340446 0.418344452483144 0.9402339141394904
Ni 3.623762847840906 2.384606037663931 11.18795169652655 0.7016260276904627 -2.0613349083731145 -1.791728259549727
Ni 2.0711092301023823 4.388364673077347 7.708131595411006 -0.8230610297702085 -0.013338111869802835 0.12884235028741034
Ni 4.362210715095909 3.9684155347762493 8.121487795256938 -0.6989289404742737 -0.8870899831266594 -0.9656649526180853
Ni 2.141985164222862 1.9697695644022535 9.157978194125814 0.136221673470617 -0.6537911675953707 -1.866891889366759
P 8.064730753273297 6.690946582816431 12.095098129944178 -0.5545275594063418 -0.5276369056630849 1.275233743656707
Ni 5.627761427822959 7.320145842243538 2.683362865801361 0.4810282046656103 2.0854307729800534 -0.36723452118120625
P 6.3011843169773245 4.54644200062288 6.879907544936728 0.2048079071804473 -0.43049702868527795 0.5478671166670307
Ni 7.385013933510837 4.611448521449008 13.131668817957175 -1.4965879852316095 2.100556572877898 0.9434421366641429
P 2.9484757739609764 4.472603673943459 9.801318494419172 -0.7999658385136417 -0.6504510474785443 -0.017001933874635236
P 0.6355291817204978 0.517540131548135 2.055151070560568 2.1971729732520675 0.5349671207759109 -0.44520322454720096
P 2.0406731844344987 7.2539303699369695 6.743553506626377 0.22647150819680995 -0.23004816980447476 -0.04117056070103877
Ni 8.942678701278973 7.941279272709539 0.1461585425303512 0.0240585836111005 -0.03539586300079065 -1.957723821848667
Ni 4.620529500508194 3.9962214188263805 5.315507717699695 0.5399807719404184 -1.1030328238780034 2.2276032647174673
Ni 6.742165519583184 0.40622615470250983 7.965954803002682 1.0082496200578313 0.6127468480595512 -0.2895501818248497
Ni 3.5778226915841684 7.045400082516871 11.170514186432715 -0.36753996823676705 0.7630586810746471 0.058195634504125585
Ni 2.689630956225141 9.212551740534856 3.314520442054037 -1.0030752749457434 -0.18302140743297513 -0.5680788157282153
Ni 2.956975348873081 2.566041046102555 6.37847138539904 -0.27221760408367307 -0.14284277833156045 0.9457049645563905
Ni 2.770233874012676 4.907586262333392 12.055077221622971 -0.30507861647775203 0.10471820354569708 -0.03208916722506087
Ni 5.306761738172875 6.068474999948416 4.480556913530051 0.2271911599716539 -0.6094951738914729 1.0018252045887261
Ni 3.7853286002689317 8.074356221930545 1.2808637905247207 0.04323644209113199 0.22781208138510445 0.08209146728511668
Ni 5.185340557805278 3.9812064260120543 10.462704472001487 -1.3002595762770832 0.3406973941226262 1.3638516992064318
Ni 6.622830011235277 2.2709922844142922 6.036797702569699 1.215661283409713 0.2551495928577929 0.4987603318380507
Ni 3.227900452776066 2.3442030637603555 4.022491657637234 0.1081197730280783 0.1275107759601804 0.6437913760701816
Ni 4.003179811316854 8.266800994614707 7.101733530050495 1.1338053291741699 0.008211075055882634 -1.4082767622890264
Ni 7.855037657559033 2.2443215227465596 10.910746504971355 1.9295964674848316 -0.39546600522307374 -1.4940564770590077
Ni 1.4970233923637517 2.884355202311355 11.043156223718803 -1.910934886519586 0.2880987940903038 -0.8943998865245112
Ni 5.787601425084249 2.556867780670816 3.837526695448469 -0.358094506553151 0.18271030395045953 -1.0777061721877568
Ni 4.285096222190867 1.3286469056413361 8.170991128357937 0.5515869887207792 0.07314094296004824 0.12428249883086982
Ni 2.620047031320399 4.82828458239885 1.450724242117784 -1.1500379889829486 -1.1504282824428316 -0.9467200360844663
Ni 0.38354677864768183 5.619003451067707 0.8722824875946656 0.09514033004927487 0.9676755552902108 -1.2090103537520984
Ni 6.095441078008317 2.401882046605798 12.159985601349714 -1.8940990459091704 0.7617636164123075 0.7451887427727617
Ni 4.928756756196983 0.8419654913473755 0.21610146142432302 0.47551935903223913 0.18978983650506023 -0.2932772529674497
Ni 5.918841875491456 5.527160053103252 8.987735676950383 0.8022170964416636 0.5094088126908324 0.01765885073234378
Ni 1.1839511021159452 7.209356051994013 4.535733089951864 1.08553800952735 -0.9258159389419476 -1.2186666458949398
Ni 2.4745667936283104 0.22460472779132953 5.735928439364537 -0.08279003601403807 -0.07680913584025481 -0.15107956441905593
Ni 9.326091664686453 5.770869905740444 7.981041779187599 -0.17958795627139393 0.32371474352170054 0.031050184437585233
P 1.9916506633345006 6.724538822425616 13.2440745425901 0.2252684890276443 0.44584497189625794 -0.21150254559180348
Ni 1.529914255541537 7.6160990103828174 1.747649185760043 0.3185925918037868 -0.01759920113900195 0.3407781267618905
P 9.019691679174208 5.691669740815709 2.9736025846159024 0.15242142315893106 0.9749142391304952 1.2415898303500166
Ni 7.024109616368962 0.4717531706698346 3.879735713662901 -0.6386121458620871 -1.9859283093073412 0.40056141746811014
P 1.846041224720838 0.41374287974692786 10.846574252953102 1.7523790683281433 3.19125607200153 -1.6209980107792794
P 8.62031317331511 1.8022144263955568 8.667483506917975 -0.24802326622565674 -0.4192335399563166 0.4920230131142172
P 6.405606347520713 9.04956477796952 1.3519741320314842 0.718362366608537 -0.9596372583667667 0.4381537738995873
Ni 3.4114211332343802 6.449894577708758 2.863695974951706 -0.3838551604570228 -0.2753800609720548 2.084104340859146
