# total energy = -381167.5349887169 ev
CRYSTAL
PRIMVEC
9.24480478818776 0.00000000000000 0.00000000000000

0.00000000000000 9.24480478818776 0.00000000000000

0.00000000000000 0.00000000000000 13.53070628669894

PRIMCOORD
 96 1
Ni 9.241929543085758 3.241283988703612 0.8159113305642909 -0.5145399632698107 -0.06732613605048406 0.6895225595587092
Ni 2.266502538720162 7.409526052794793 2.6204787139717842 1.1973935954487764 -1.405132817343406 -1.7478048186938997
Ni 8.40410062959243 8.870963265798121 9.198850602250287 1.4491346768456526 -0.4308757521809354 -0.24359094148591595
Ni 3.026425483197544 4.5293533795927745 11.703790520806075 0.7846479772096486 -3.225091018273104 0.817979501482243
Ni 7.9986419860536335 5.292373333637066 5.696562665493662 -0.34223979890908157 0.8479369670762816 -1.1927743515092104
Ni 8.395253351516216 8.057059906809748 5.701825732796472 -1.5138974230443347 0.5779521089778691 -0.3281252138845704
Ni 4.538385553762536 4.772066481591669 0.7693193639514306 -0.10216715498906921 0.057147909965901585 -0.9419298137846746
Ni 0.04359664989740191 7.762538919399037 2.8478075365071174 -0.3877169574052742 -0.3718131416908242 0.7167855090397204
Ni 5.5700040629022745 1.0265246217625246 1.8273216211598318 0.29832869934842815 -1.1231517061150655 -0.12585652818620904
Ni 1.7965336481428849 0.9446341419306433 8.883301382120498 -0.36359923842146413 -0.11469485514243473 -0.1660205019996044
Ni 0.856044876629561 4.761998889298046 10.473469726814386 0.691773560376415 -1.9348510310155518 -1.165776739874444
Ni 7.944846467636189 2.485160658948617 11.692411090728736 1.0777575942509825 -1.7166998697589788 0.256169549481875
Ni 6.582569029602016 6.727656994208196 9.544560073159431 0.7100762153403449 0.14814156483665455 1.9270641879812813
Ni 2.840022486488329 2.9816066701217974 0.9752362943735755 -0.16914053568582482 2.918173805924716 2.706858436643054
Ni 0.24769327827857843 0.05647651177387257 12.971752461522023 -2.1027767204576686 2.61954145929294 2.5679003380778807
Ni 1.9684130567039977 5.311001615061906 1.0437948413802642 -0.5430157021120002 0.7748356191049172 -1.5013797501932982
Ni 8.234680339075489 4.930855246729668 8.035831986309638 -0.14358839824833333 -1.3293824617849685 1.8838606560106137
Ni 0.69784038314717 4.9212406498652355 12.579199565312795 -1.5267537101817126 2.6720819523938175 1.9694987029964082
Ni 3.1431688766629984 2.3451850713290066 3.606257783599399 1.9322943260319687 0.1305127960112978 1.108764327045142
Ni 0.2588785674576926 0.6337221158270079 4.444336306819017 -1.2843778720498202 1.0678755592505802 -0.3377673649600248
Ni 4.580736003989433 2.185878597129076 8.482007523088845 1.6893955255170712 -1.3665966089414208 0.9978376806958877
Ni 7.601790255669442 1.4538749627772625 0.5055734068311183 -0.23419330232109986 0.920924158067285 -1.098067252342612
Ni 3.6264040619522593 0.8909153553920214 0.3948844359488538 1.4701030515672036 -3.2183117905677414 1.0158968521904441
Ni 8.836960874194862 2.93147209435658 5.346144815562348 1.3516381878593753 -0.45217425654839544 -1.651399762999588
P 4.28093623310796 6.457292681419377 7.954837328050991 -1.0138638809208151 -1.6197926776172686 0.7768302809374428
Ni 0.9706027982692924 8.089536905641245 11.423867079980884 -0.7173917751651515 -1.0613022769084368 -3.03481524327056
P 0.2677998039713261 1.148260209753743 10.776692848867878 0.1211411249884107 -1.083666760646566 0.8696386204194314
Ni 5.897963508830927 0.2187126645760517 12.892368248238167 -0.4499618222781089 0.8586463830739857 0.8493546733594145
P 5.834812248080014 2.5698430697930554 0.14055246343147723 -0.7013720026981276 0.9024767499953749 -0.09285230534604653
P 6.707956315440784 2.8615906158005644 9.064449631851113 1.0110143272871621 -0.7957065490166554 0.11052195471166773
P 1.7973564357591683 1.296352735880059 1.1699281829564936 -2.8489802776481903 -1.6798341070808809 0.906826028103006
Ni 2.7596481546235316 4.682576772315015 3.005264125291111 0.8719865518263176 0.33045411912806316 -0.302561249372537
Ni 3.8163847980716046 2.5989272253079685 12.636570049698966 2.156788913008066 0.7126172365946437 -2.8172708623600515
Ni 9.35361602839271 2.7336147846521412 9.400647123227742 -1.3503348956669197 0.869528062983496 -0.2190721304089453
Ni 2.474233299820001 2.813351224994202 9.825633567686484 0.2572841227022924 1.5497252313762213 2.339107637947062
Ni 5.12804693049734 3.2018179175360464 2.4345527491839203 -0.1637309346344793 0.11741431095612681 0.3304068108298955
Ni 1.7925861165456605 7.777413810124877 0.09549513439505551 0.7344307329253094 -0.9448973810534307 0.929128291144632
Ni 4.939702524805883 0.9099430123789234 6.284133791890919 -0.7268583198946901 -1.818890678897132 0.7468316776928235
Ni 7.434366842962806 6.227651733234239 2.9934390956283257 -0.11647380141972845 0.9015218422812732 1.2472747965499358
Ni 7.130767457358948 3.3563725621318232 6.574813562958195 -1.6856170323112454 -0.920924158067285 2.645094882282012
Ni 5.573988573718209 0.35693081482650046 10.12713808055046 -0.35442040013567344 -0.18118281156233956 0.14844906877474434
Ni 7.180633933788521 -0.27843317831120307 3.376113918039816 1.994093618726953 2.005205926590031 2.948924713954328
Ni 2.9100241475051507 4.81826277056434 6.530459763557719 1.3630436014828398 0.8323126302754633 0.7480622076658149
Ni 7.77465885833103 4.619471735587489 10.910863623630588 0.396684193900891 1.072191927237747 -4.890766574465416
Ni 3.3836447359299777 0.09565229607457029 2.8943800890301556 0.7773972091845064 0.6439261018758329 -0.3246956193777311
Ni 7.417143771848922 8.4080296715803 1.253691660216004 0.33004248551194126 -1.1265381060887953 -2.3393992010455515
Ni 4.831741695783902 3.195697856839647 6.274228908159616 -0.8912088903910393 0.4747164035149695 -0.5036050615248617
Ni 6.167199955449111 7.49355208250714 7.450737543085442 1.1230200656332079 1.296221658762284 -1.4157589295986843
Ni 4.223267141530711 8.597243088911425 8.106354129829795 -0.6579188166104991 1.4539413542056765 -0.12274497914042087
Ni 6.162106068071897 6.665356255487599 0.11437579898758783 0.7888692143798478 -0.8198039562854913 -0.4290924350282674
Ni 0.1682332575963699 4.666953052410309 2.6595417116554185 -0.18034488904207652 0.273800889410393 1.2570473025556674
Ni 9.113694857406369 0.600789348124918 1.8467921042907784 1.737950037387007 0.2837358891359178 1.1155756935400207
Ni 7.604572941877321 9.104403828705642 11.410579522218145 1.8129763702952262 1.0428561543881072 -0.18626459696062114
Ni 6.692905773426074 0.5036190551223285 7.966798256342535 -1.2996103727288586 1.1769828930029085 -0.4463190833191991
Ni 8.69354621923528 1.4684262853393963 7.4440258148896925 0.8746836390425065 0.5066039962521856 -0.15320303851996195
Ni 1.6793927280763044 8.236769664932568 4.659285411410924 0.31479892908930945 -0.42363501145812205 1.7440957452734287
P 3.217885388065264 8.60806875518859 6.1377987031337655 -0.03126641421344938 0.7398151371656743 0.057900728971526094
Ni 0.8268904605991003 4.0747955784126235 7.189283373044642 0.753257121603193 -1.9013737251937124 -0.12053460175266338
P 8.216227708939517 6.9144944967372455 7.747411645505504 -0.22807484812818787 2.901377046082352 0.6514067265235942
Ni 0.5566555750757627 6.416939109002785 6.5212593339428295 3.133353286147475 -0.21018022723595414 -0.33020806455552804
P 3.3751949844548883 0.0731088398688757 10.188594768604013 1.0589661725760924 0.9583704758392011 0.0898004058936002
P 2.83765581649093 2.9643096405704936 7.777950933276631 -1.5808314658627225 0.9386727402999576 -1.7949357107434314
P 5.687708916054174 7.95770599094237 2.5015572445243484 -1.6984499224098555 -1.2939518888915005 0.22198441895973384
Ni 6.490879056812154 3.997462787286671 4.392527496926734 0.09176395737787423 -0.03391670735210288 -0.6240306485034866
Ni 4.3472584618632 7.318436992308958 10.176444321816584 1.0678513908808642 -1.575833241317183 -1.7202045404781277
Ni 2.1243636668060533 5.6909538424959205 8.86914758615949 0.8467198068397289 -0.6339376232045534 -1.2628749649810378
Ni 3.544273217198767 6.687164749721445 5.020798875915982 -0.24948211015937033 -0.18900822114402932 -0.4987325639239088
Ni 8.947935509541656 6.532822735633248 9.878551754140048 0.4561424971675241 1.2008530147522867 -0.38610333306125116
Ni 5.513444347886306 5.0788830592232435 11.442079345195244 -0.3182192676247681 1.2840415717563243 0.49234568656095856
Ni 1.4003198092814295 2.923456848701326 12.59237895886081 0.4423351589707866 -2.4952813290595737 -1.4755136810598137
Ni 5.959940679387817 4.760297845237416 8.440657360728036 0.7824144598934396 -0.06508773363826854 -1.0500650134317207
Ni 5.142838617981084 5.6820973196150275 3.0377522178882215 -0.21122280956785558 1.0782779855308269 -0.6708735769989542
Ni 7.488310278255088 4.427919382672996 12.89017630504917 -0.5569567376731247 0.05703503853712112 3.2749069133539663
Ni 6.8740669658832365 4.640198587674085 1.473818779907689 0.3111075962806513 -1.0151262925730067 1.0414626164746903
Ni 2.5427095680650615 6.447234333930429 11.282200617585788 -1.7510474940009135 3.0354770452242756 -0.6729561705595958
Ni 1.5600792789105493 4.077116024386636 4.801912409011996 -0.8134325055415087 0.7092300652899657 0.3110931981029481
Ni 5.675099002474281 2.700120857306137 11.063381637755946 -0.24267511453986593 -0.12952189285293822 -0.4697971118364812
Ni 4.25389517942674 7.676432808634288 0.9171031136015235 -0.6755023340202172 1.6916328994880223 2.1299347689296995
Ni 5.450949468267486 5.6894931633569 6.307257821830351 -0.5696667290406254 -1.922082932716606 -1.535872641763845
Ni 2.119953894974962 7.917648252275454 9.281658166706162 -1.3661363814755505 -0.712805955566682 -0.7532506938452899
Ni 0.9356204573702364 8.919443021526094 7.228806762001207 0.5999617804797409 -1.1826313495379375 -1.2982507733771707
Ni 5.904129793550712 7.440061642644048 4.760765632354089 0.11025533131384238 0.18440594648532757 -0.1521069772423058
Ni 5.651903787538834 1.440497730409151 4.246503958087206 0.635068651485203 0.6965804948467551 -0.37633571215152606
Ni 4.019585604879547 8.31577576570512 12.160763064967949 -0.30220489447438276 0.022162395029652154 0.8702250890505207
Ni 1.051217495055701 2.4156397277750177 3.0849876229066244 -1.1797941371994585 0.06995406059163436 -0.8845247935026445
Ni 7.796846389556647 2.2926098671289714 3.140950123540437 -0.16121562441179332 0.17104572312833766 -0.43816817207729053
Ni 2.3167018281181204 0.6532545391492927 11.969249540233099 -0.48328306213805794 1.4655120897624114 -0.6608100221153652
Ni 8.750004241399798 6.279801676419117 1.0399850573727323 0.42537384852609966 -0.6252902319422005 -0.8211591847618053
P 1.2534383525678452 6.128565916702505 4.043556458927423 -0.36652875336343327 -0.06726134425081964 0.16793211720002044
Ni 1.998865443311157 2.047530095132677 5.9072489906488475 0.02930723360454953 -0.7345821709015091 0.6770264839742275
P 7.616655901590605 1.1103472657719702 5.571620054759874 -1.123906067782587 -0.44449385718500223 -0.5954880609791035
Ni 8.32358762565747 6.98549459665922 12.426261837055083 -0.2679277184590676 -0.2969549589293531 -0.5829583039432089
P 4.337116911132158 4.313043439752364 4.443659587116636 -0.5590670991479081 -0.4748675843808531 0.9938452717070431
P 3.4659419871676618 6.265564677216013 13.199663706752029 -0.6866352107085852 -1.1685175358443747 -0.6722488600799261
P 6.172451004505841 7.611062794760814 11.65199465364034 -0.6406733992664901 -1.3285738498407442 -0.5959364613704317
Ni 4.186824121492635 4.420542028540478 9.567264388966514 -1.6123313362432168 0.4891109816737448 0.8716821332120214
