# total energy = -381166.75131827686 ev
CRYSTAL
PRIMVEC
9.21021161665303 0.00000000000000 0.00000000000000

0.00000000000000 9.21021161665303 0.00000000000000

0.00000000000000 0.00000000000000 13.48007568342851

PRIMCOORD
 96 1
Ni 0.47441248544497633 8.260850828834437 1.4965175857713895 1.811062698212281 -0.8911764944912071 -1.6650705756184616
Ni 3.5746674170327015 3.736463208321513 12.653935827398733 -2.1362619966993077 -0.27588811095672483 -0.23659239868089577
Ni 2.3076462056575147 6.5099527183336 2.504935390291216 -0.30140168184679705 -1.0948034939896758 -0.8391273392044515
Ni 3.2727014118414353 1.0563007748238855 2.6538221486734184 -1.9564506115631985 -0.4442961393518993 -0.10102892761956796
Ni 3.694740948713252 8.110392808313344 3.540730549487766 -0.09896767421516503 -0.8170796153757929 0.9079760825470492
Ni 0.8912758832660552 2.175102047153656 2.281476309752236 -0.07807283304402682 -0.1095991857870822 -0.4110114091568406
Ni 2.9696209710182493 1.7586715292887773 6.499202559080894 -1.1851142638607914 -0.8232201810558919 -0.624581378800634
Ni 8.248813081967329 2.9738668786737477 8.549751227517914 2.3289569226663054 -0.7802670745331336 -0.09214473775606066
Ni 0.3811683008370225 7.188340081182618 10.262233544458915 -0.5972132712003263 -0.3408696580344323 -1.7754176953151617
Ni 9.033127091119793 1.0492181219234988 4.538754629952864 -1.2177855288415673 -1.9149612340701603 -3.4630142199502805
Ni 3.163744605844587 4.460054290852063 6.996496894806392 -0.5851439987406182 -0.1454341932078205 0.09209768656820913
Ni 1.7440272924726328 5.774600195290964 11.502791054171317 -0.4994874398120623 -1.1196398363070652 1.2429771976158464
Ni 3.866695603655024 9.04666610251585 9.791414883671587 0.34257789897479063 0.3112891161638381 0.0044007001708569376
Ni 6.48788505077921 1.5885128656546457 0.06282561798362662 -0.021898085624671965 0.5764012195509816 -0.6517623100908001
Ni 4.891082994473916 4.952920356727748 8.59073114405235 -1.0926404249000858 -1.0418925049232572 -0.05327608571532114
Ni 7.683738955312667 7.191213667274843 12.050055394202472 -0.08593192407712942 -0.28650085347556464 0.6435270666652013
Ni 6.865153747925693 1.101624227259261 4.095409110045332 -0.6975901670581922 -0.16779919116658198 -0.5944141111886343
Ni 5.2423328431892 7.315100226654691 12.967913790863971 1.5007007218484025 0.819171464907815 0.5315336696143298
Ni 5.206984050170104 6.728824192358039 1.8232341932243064 -2.3312169223450754 -0.8638451536661058 0.2634573413925398
Ni 8.83715220371481 4.3932526244196755 10.464488875313538 -0.5175088160901474 0.6509935502455757 0.4129621051253082
Ni 8.376042948242938 3.3898921472179273 0.8426800425660406 -1.018038581123795 -0.9732039413076079 0.2125582405498275
Ni 5.327858870280218 -0.13299730092609402 1.942519330771862 0.11139947222061458 0.959661683846799 -0.07109408773334852
Ni 8.605754841596058 5.347191104919895 4.23452291265042 -0.08307465713399241 0.8759409084883752 0.6593650621387225
Ni 6.221765190046078 3.5673821394719654 4.755366839014409 -1.352039279952536 0.9201589977664862 0.848627565385403
P 1.675908565747976 9.027462810841849 10.152235984524818 -0.5472593078797027 -0.369251551611235 0.5014407068836912
Ni 7.147962512502128 0.9350114951812398 7.406641443094529 0.9833803676199775 -1.2623728285336389 0.26725280387923006
P 1.09589547549848 4.0614547430979115 3.6454442108926663 -0.5476827685703665 0.12705877602442633 0.3024620047905114
Ni 4.646091359688102 5.287619454777238 3.698704102865445 0.3937227972797219 -0.610517187398084 -4.362664042019822
P 4.311281739096603 0.1267500142390558 11.883833175106213 0.2932939651379981 0.5176692529274116 1.054284450829707
P 3.496122730511896 4.828462764214189 10.68360718301513 1.0436346844253446 -0.8205277218253935 -0.29145794037052386
P 2.363395617889038 1.868696719858376 0.688555436713812 -1.3652668343864036 1.775004261926827 0.7842849374432751
Ni 8.779864686106999 5.684229596775235 1.9115822292212776 0.3508046577599572 0.12380967295950936 1.4491529316780978
Ni 6.255667979807227 3.9770063107914786 10.102723727747318 0.6711183460199087 -0.5699292386733926 1.0045253771287086
Ni 4.63481806040322 4.343370117126444 1.1682278741372163 1.0983706425156439 0.16342111670354437 1.3228516026449864
Ni 8.675991917042548 7.934044882326729 3.453042885679296 -1.1518215632459325 -1.5314662851660334 1.413104779805289
Ni 1.3566734133678602 4.304235927043552 0.8637281396704022 1.8726868987819811 -0.8980971328704404 0.9550830633371808
Ni 6.113296525276434 8.592446085495853 11.01440851941645 -0.4606025898214067 1.4617595646985149 1.8678601668172992
Ni 1.0659622870378074 9.089125179070836 5.895484225612911 1.8585648575583023 0.09225915184673787 1.9098316261530788
Ni 1.9806007936421217 6.476510439164154 7.112775819211313 -0.8560449408953967 0.5984666839914531 -1.5450427382988876
Ni 8.029527148410358 2.573038459655755 11.790658067087016 -1.1344920708285493 1.4985353387659677 0.1687103901269417
Ni 6.850914760430248 1.656005297974587 10.051580342454002 -0.4335070191561953 -1.6504877927082802 -0.5050358804341173
Ni 4.736977730066539 0.9025252360001677 4.650801462020037 -2.5558958574178368 -0.1809113030685078 -0.7498825487040053
Ni 7.255279900792516 7.552272391593393 1.3630653003806932 1.0222377068068071 1.4090025847114571 -0.6232006964030234
Ni 3.4983884426230736 5.935668379844885 0.11459069257573885 -1.5281469909848135 -0.12770258025601233 -0.07291802831596475
Ni 4.740993382426186 2.720355797941435 2.9592806661921576 3.227304738094971 -0.542717197034975 -0.689075958939594
Ni 4.226603051494318 0.9878965315323729 0.45865565503927824 -0.29684028772835974 0.5840816189143747 -2.154231179583219
Ni 8.843451988609301 0.07898769771002306 8.76120019182529 0.4321322502958558 -1.203814925594088 -1.0647496120270887
Ni 5.809663471743205 3.8202300849522257 12.81029114655717 1.013961582840944 -1.3065551794778079 -0.7981814929197092
Ni 5.911215267425475 6.345578067731254 10.339312886276923 -0.39062924595606274 0.08565784448013634 -0.10037458186502068
Ni 0.8977165844016086 4.292796843945658 5.857457102992473 1.286438868343907 0.9583699616185688 0.2346512157941249
Ni 8.708384232062912 2.5874432309642144 5.904489049723065 -1.1361445188303076 0.3228367117921214 4.159201850233992
Ni 8.835789092363369 6.672890575889834 6.526123087250648 -0.1475890347672942 -0.9579308171986212 -0.6411184572237086
Ni 8.982572238362675 5.228701729674801 12.946466891587194 -3.0859403440811497 -0.9027965952286386 -2.8951241231941043
Ni 6.390477850422263 7.943227463525281 3.4298432830905 -0.13039632503809157 -0.5934746300935005 2.2516641623214126
Ni 1.7002511556253783 1.9447270185484846 4.537689929464848 2.708189753859968 1.5995424120086645 -0.2779555350087148
Ni 8.459082218138763 -0.03072066157248422 11.071227237241906 -0.7377407711351488 0.24000785212034798 -0.05209852046745221
P 0.9602843164538816 1.5823420237258303 7.612859007080161 -0.42250989671474326 0.42810770251749497 -0.11130614117585991
Ni 2.727613444866669 8.060924760552645 0.6815915955460845 0.8390365792628582 0.871637653127331 -0.29771189170003565
P 0.916548704538697 6.349262152464875 0.512521578950738 4.608400311983514 3.8136550984388635 1.0722682890016373
Ni 0.8486326024743891 7.85151217408178 12.377446189161642 0.9351469865348863 0.8458026943420982 1.1914844290531932
P 1.288840203210059 8.907849789753001 3.484721409282522 2.3059692035218804 1.236970072189818 -0.30364239825185774
P 7.5562696235293725 9.027195714698662 13.287904180614479 0.8763337730514199 -0.930323597004314 -0.6399234084743431
P 7.012176359432684 6.604900792130854 5.038353360679242 -0.22585804298252718 -0.25983362859702347 1.0439825546830668
Ni 5.587117123196979 2.06149408418061 6.382559831308527 -0.9244236865801111 2.1205857236146315 -1.493493405466686
Ni 4.516310264734459 2.3776253951726503 11.000105981459349 0.12077088613318555 -0.8674369847824221 -0.3191525780723149
Ni 2.8969800302830717 3.8346624868961876 2.573521995777043 -1.2020040976375943 0.18961782970357022 0.5845408179389805
Ni 1.8086185080648474 3.629357654903309 9.60549754758939 0.6296690777361866 0.5179713575488628 0.009024057875481233
Ni 2.389635511404255 6.060650954432986 9.273578091471418 0.3083590870012367 0.022517978596857995 0.1335819218549248
Ni 6.917873000463814 4.4359695869060145 6.998640111100176 0.3966214589837556 -0.8135579753757796 -0.4175039588597197
Ni 1.036802756371195 3.5743726902540116 12.191002949983721 1.1638568971439116 -2.9048601195349457 -1.1436225723749078
Ni 5.775171228424676 8.357079122076625 5.71103683933943 -0.9862157801862435 -0.3733198081433377 1.070910489422162
Ni 0.1740591883458531 4.919385975439961 8.229518609196171 0.5855913706906818 1.6630152357513297 -0.4046227320216773
Ni 8.035255900171139 8.68999143903031 5.728722288103179 -0.778698444494433 -0.6469641173712084 0.4092412046302952
Ni 4.854297408408707 5.596999680494918 5.698823177426292 1.852998162103802 0.9747093222085407 3.713847187710591
Ni 2.7500495208944225 5.568982216095728 4.7821510560490195 0.42970667157349873 -3.186025162619894 0.16619456568362342
Ni 6.727663705666949 4.733726525289118 2.730860965559356 -0.595737200875432 -0.7600746587456587 0.3044561524024047
Ni 0.529389160903623 1.7406471447295353 10.17765985327154 0.6881377633960407 0.5873122100365306 0.3766483582959384
Ni 2.3155117265637957 1.0853589931603231 12.231106975372738 0.7870956674191928 -0.28847443226216773 -1.6640555040903855
Ni 4.126138060808467 7.010490890667052 7.870382977108571 -0.9074407788688694 1.8131352644705934 -0.33827875737880453
Ni 6.864619555639318 5.5089776859968715 0.6732471436244324 -0.7881333646550878 -0.9521815734196698 -2.7974258026096663
Ni 3.4745708348202116 7.344020291813618 11.566444670198825 -0.5900738319420676 0.035169091701965235 -0.6908469347970876
Ni 1.4684024931267587 7.11483338053504 4.782097636820382 -1.951373711260923 2.2530345603063777 -0.42135084340963563
Ni 0.0972487847134002 1.1095818502838828 12.818891642367808 0.5770491375476255 0.12495098565280414 2.676752104175977
Ni 6.200922480665616 8.435798802622276 8.894288673848541 0.8280397139317222 0.22354944945400854 -1.412445291844419
Ni 8.176899747967044 0.5516530059700796 1.8915380452068278 -1.976226251528229 2.3105552802306657 0.1706852544651254
Ni 4.631456333083792 0.45712952293837567 7.565409837753487 -0.4552809204981772 -1.568873522169898 0.36901912388545477
Ni 3.6675984544382976 2.6424466160371796 8.346822630178222 1.5088462337736726 0.21984680379144073 2.045933743326696
Ni 6.252665450749326 6.57703069112101 7.5845643153047675 2.461970116501954 0.056434685948960873 -0.7691611944279592
P 7.076076809137344 5.170649764484764 11.83871511039474 -0.059782519375271244 -0.23960676002718737 -1.0481539124519368
Ni 8.107436330314615 3.0730516499146656 3.846391691666854 1.9571949459283908 0.18949698785498978 -3.088645658827455
P 6.254166715278276 2.6871714047033417 8.239494189633634 -2.37150713732369 1.4237949125292833 0.8862849707268609
Ni 3.8045174635633314 3.2829431674009024 4.945341273409506 -0.3572344725457009 0.6013650885851708 0.7023562209882679
P 6.751472103257975 2.419900267490954 1.9930023438766742 0.04307086304754518 0.3904076168635599 1.6271154365309268
P 8.246961829388685 7.025264070448873 8.520527225368465 -0.4740332614050158 0.1626919518470037 0.39108973053224905
P 3.5449000123850416 8.094827550313795 5.892209074284722 -0.5832969182295503 -0.14046862167242904 0.5969242792049978
Ni 2.2877337276722916 8.934881761485947 7.993657978422639 -0.24273450702289165 -0.19640605626999724 -0.2451940243069777
