# total energy = -340886.409725808 ev
CRYSTAL
PRIMVEC
9.08742865730826 0.00000000000000 0.00000000000000
0.00000000000000 9.08742865730826 0.00000000000000
0.00000000000000 0.00000000000000 13.30037041134155
PRIMCOORD
 96 1
Ni 6.073092072682008 2.4455996527109383 11.385835373325678 2.0835183864486893 -0.15736488320713543 1.5097237512826192
Ni 4.740956851123704 0.5193492612276575 5.821864661168939 -0.4292616136162801 -0.13775610783727243 0.20850541063669253
Ni 2.7239112359284934 1.662717693127827 4.753459335163106 0.3728194714681515 -0.2607440562264348 -0.08351534421583681
Ni 3.6357438049890787 4.464417316450765 4.885691415048072 1.6219174372697551 1.9758457282603583 -1.0587340019606282
Ni 3.712359914115546 3.1152340791504076 2.854924691660469 0.4966201455665964 -0.09618085549864726 -1.2172947052480778
Ni 5.462307832780671 4.948631853124317 2.47773916085322 0.1054406835340184 -0.025273686965124217 -0.14549307147021395
Ni 5.658169177817175 3.2016373487002188 0.5864490152981133 -0.48481363984997156 -0.7930811955786664 -1.2920608425163749
Ni 6.139021365970174 8.520263850512016 12.205576851379654 -2.3431093029072874 -1.6356139609202414 -0.3577312096764614
Ni 2.039327989715208 6.455336574898426 0.2907777175432209 0.20857585886331173 1.246999174291046 -1.373987502088853
Ni 0.7602179130688886 0.17140071392089307 12.90707816310839 -0.3831545348455724 1.0856351972268465 2.7784451477421053
Ni 8.337243041852656 8.918138729634794 6.798949510099361 -0.8926111700552047 0.5283832969108061 0.019436254347740718
Ni 8.91741173536008 2.566862297733307 1.513129533676897 -0.5973415692480745 0.7668685417390406 -0.6661640873384269
Ni 6.81297232091576 0.9709826407370384 4.627810188435679 1.4321417418320819 0.471716183236065 -0.24158265280663557
Ni 1.0181736565944395 7.606477484338137 2.399838998089038 -0.36095460170976545 0.4191011281435104 -0.2489578622247841
Ni 7.816124458308912 4.153418253156362 3.6160249940302926 1.7227216504730265 -0.3389984091536484 -2.3192096134715543
Ni 7.587784644049542 4.2527074962254865 12.291324008596536 1.3765382935351649 -0.6793353346130623 0.3369847211577293
Ni 0.13550809783539783 7.783809562797855 9.180433720237547 -1.7123282230538444 -0.9387365036583576 -0.06976816983307339
Ni 7.512368075476352 0.5590131601132338 0.2575577141601446 -0.17771722161124232 0.49201889934915904 1.9157742168897585
Ni 2.155810647381329 6.538441107926721 9.021867181493894 -0.18129131211574584 -0.8369758400790877 1.5503947466394203
Ni 0.4911500620543277 5.151036146633251 1.440191106837641 -1.1316078073022189 -1.7080599346957939 -1.0048645056356824
Ni 6.598954293868263 2.1531843805639235 6.589867774177176 -0.5355960126091613 0.8165453401388776 0.8458399753379369
Ni 3.9349564736046734 4.7513619566805545 0.322690948717498 -0.7521201797852725 -0.5878454568321811 -0.9822133438950699
Ni 6.4117623555577286 6.281512243814204 4.759590623127479 0.3138555913394337 -1.5818372814194177 -0.5862973956187709
Ni 5.5729745362490775 2.9103216553937092 9.22429873728813 -0.7603255984142003 1.275269481990649 -1.3595175906074521
P 0.47773338271447274 5.674953658134646 12.389653619223038 -0.3524637906299349 -0.039306253798790367 -0.2181064240615663
P 4.2879667185491375 6.512541936890019 12.189815615503846 -0.30724785621492895 -0.17341088092640455 0.6077774198694178
P 2.616761367264019 8.842722161061605 1.1344336722639292 -0.5321036831851867 -1.0836341076364175 0.38636738535591525
P 6.681686242330766 8.181902540203048 5.595106968199915 -0.25477292624466447 -0.7131790226353846 0.0682015966769019
P 4.86695404636015 1.2210141466682018 12.734173479781681 -0.1908244484171617 0.14672822942889568 0.10627140696542989
P 4.394080620372144 6.292398983078051 8.244846613250669 -0.5234354659872275 0.1087761756651546 0.2621321948232131
P 4.8627829167089756 1.5962068044198898 3.79373147454149 -1.1741824474396358 -2.714926815473486 -0.37881862647437986
P 0.46052451948913864 5.746980615901979 3.4822762223397037 1.1452189703277502 0.49496178402756685 1.8307961720854662
Ni 0.8568563532638356 0.044233966645000025 4.729093213303208 0.3781789360078519 1.9218541045352513 -0.9438838521872518
Ni 2.2536549893294584 6.696326089537829 4.583812494929961 -0.9911070468402738 -0.7893368980448857 0.41868640920359507
Ni 6.2820574895202395 5.965696843449817 9.258600144654842 -0.03242418196697642 0.6415863979990627 -0.3664979001254979
Ni 8.51382086375236 2.5297674148660025 10.43475238337326 -0.2515701030366506 1.2597307629251013 0.3447610226690385
Ni 2.7421315299385243 5.58488815492596 6.972174070906945 -0.19557019063226316 -1.2593821213364311 -0.8649674401960071
Ni 0.47979986394034857 0.9501451673380358 9.238929497066756 -0.33874798370573916 -0.006473266429169497 -0.9846821171505363
Ni 1.6964865771883126 1.3109978630209815 11.122514412052734 0.52222859016332 0.10792976850445928 -0.11139175891113073
Ni 4.0559010586318545 7.041993692307677 1.2870597590403219 1.768202408513645 1.2571524606749638 0.2446260676186497
Ni 5.947431112297617 8.087747694199095 7.63483843973759 -0.2617323882816331 0.0377893029336317 1.069064694462675
Ni 5.729478228738229 3.3455276905230744 4.458536841511169 -0.6242702753181184 0.9293123821309802 0.6496943718181779
Ni 1.084384660164057 7.493402612334739 6.879310548483452 0.3170566147752346 -0.6463442243990224 0.05187509160273646
Ni 5.444396511337395 5.112160127792896 6.812276223897721 0.702046660167649 -0.9559441257858956 -0.24363310757776105
Ni 0.909860597090422 7.614419896789391 11.507068029834214 -0.278671587239133 -1.6018630897220414 -1.5625475799518704
Ni 4.975339805291639 0.741636848150031 10.345852797232649 -0.6818763558673611 -0.6933316488921543 -0.17481033237709248
Ni 8.739906995760116 7.3801914289048325 4.764565081452212 -1.7375846836277882 -1.8939802609431189 0.06357618208974858
Ni 7.749967979309898 6.470694328951769 7.12901127201962 0.3123679510503137 -0.6515692202433876 -0.21032009524792813
Ni 2.760597184516271 5.358638449206393 2.1973938111521516 0.03191587487199019 0.23660962507207633 2.7915485178932826
Ni 2.6040934920271197 5.2721624802291105 11.201491435086337 0.10058078433855581 0.0763980164447652 0.33791288939895353
Ni 1.5169099039054121 3.793319814033433 3.6819551960613013 -1.4575300999981995 -0.3718992736467272 0.0464678045442361
Ni 1.7644514544456789 1.438639882803969 2.3549770901392533 -0.10012672752027271 -0.17918480729570432 0.8491124754416216
Ni 1.3404138688616145 3.224074209503593 7.865120237453292 -0.7955206582580944 1.8961826679110765 0.349774673833546
Ni 4.147938533810702 2.94817079482103 6.687638507954991 -0.1255413109386354 -0.5867481100029444 0.7664779911688412
Ni 4.288484701969871 7.142464301073211 5.841668893955004 0.18264216971668545 0.49006306117436893 0.5101081527507021
Ni 8.509349848962865 7.189082808939275 0.3908330308293257 0.033175458310704155 0.6831847902661395 -0.5270830900421439
P 0.4981619218339485 5.414535221503499 8.199133213256625 0.016508539177984474 1.634215795021134 -0.9592611059742705
P 8.45539778635062 1.887586109725437 7.5893376855689 0.5444220955412237 -0.4486652149538724 1.478771525875479
P 2.043626343364457 3.267984663696345 10.097347979278386 -1.0218638684071562 0.49749046398669156 0.7333992063370014
P 4.356867600935198 6.322442021480626 3.8138673984653932 -0.5427583346855556 0.4460591447895931 -1.2701391027426192
P 7.145081480462183 4.227935166314593 10.125106438172669 -1.1192680547899432 0.1107870354475963 0.8779407125272234
P 6.896803848218769 8.059149556917516 9.956829982147362 -0.9437756087441617 -0.050915555902944575 -0.6117132645887142
P 2.571787683944497 8.72555794626294 5.9181059807413225 1.5842703163409426 -0.37088163101549027 -0.5434286212797028
P 7.322640744632752 4.377159828628165 1.2752379233906217 0.1932942501138929 -0.033304527689400704 1.1476388926231527
Ni 2.692841318112885 1.664562441099915 0.08662772903212913 0.9493579879279457 -0.029688013982735965 0.2576296789671692
Ni 1.3716564478174673 1.0708443917975006 7.0946435264253385 1.0537254930024436 -1.1765540329956061 -1.5583386840768452
Ni 6.937651839029286 1.006587185341178 8.944365956837961 0.8476052947684757 -0.9515650228815934 -0.11562790847966538
Ni 3.0006143443132425 1.7363894754417013 8.804432281355238 0.20927288493033636 -0.6981205856403654 0.822834515581699
Ni 6.479590921388586 2.043026573087818 2.4348719434446835 0.9534930931422416 0.614601898990419 -0.10041829061876255
Ni 4.320327051202364 7.51305872003733 10.22471283249414 0.3937302534788896 -1.070064853592415 0.2924123338639931
Ni 7.704476312569643 6.623263164929027 11.356601116053724 -0.15321795091829743 -0.3159145307509914 -0.12912825695894536
Ni 7.808209308142959 4.000304171473068 8.056339724045744 0.29489190575273727 0.11986842892357422 -0.4058095532409269
Ni 2.991772276447028 8.33852436926184 12.199698193925745 1.4251833082363778 0.9375201147527531 0.13400049744958212
Ni 0.18991271438365287 4.921624015818676 10.3555081899437 0.6612239697243323 -0.2531922120211059 -0.7149921645847235
Ni 9.027505930837147 2.5822745763572525 5.651447207004597 0.31970922190673323 0.4782254451094925 -1.2098277074470711
Ni 3.673138572994702 2.690742122144647 11.429845789231203 0.4889639145729192 0.8613190448101423 -0.060085909548302965
Ni 1.2967396878081445 3.459411343657091 12.40417805608899 -0.9915827009251115 0.46528071202336646 0.1934552011717894
Ni 3.4572576231182497 8.251903001429614 8.134347118465447 0.1686851933159611 2.0980993695866577 -1.830901073094447
Ni 5.464934099598079 8.276738943339547 3.4544786875031535 0.2145629296846821 -0.8843815830565607 1.430108256341821
Ni 3.003840381407288 8.52235395905182 3.341292040130019 1.0849674817358606 0.8835297765792267 -0.17695488952392105
Ni 3.547395825754406 4.269019430264392 8.945510064077792 0.5995876849697739 0.571889447723557 -0.1330993257915514
Ni 5.209513748605594 4.650864085629717 11.456007586949646 -0.02917456468142717 0.26014524630017133 -1.1483809129954998
Ni 7.694516491006054 9.000270907820658 2.662494759600617 1.321987197762162 -0.6019109337863118 0.07018494565551783
Ni 5.000793692335078 0.27427222127867296 1.5427500066572937 -0.9426507511110992 1.5388756902562273 -1.6586482170318855
Ni 6.140529879090206 5.873232259134574 0.00769069068363537 0.20061238104186094 1.5814482735111153 0.9972828366336824
Ni 8.066083264812605 0.28698008120068136 11.212398166692742 1.1127721626529545 0.007260281106839109 -0.599762005764109
Ni 0.48258879572672186 5.114368372902341 5.99343894497292 -0.3595410091916905 -0.6578072307332994 -0.7856291101759953
Ni 7.786472179328998 6.430809605555247 2.535023583472188 -1.791356220922289 -0.010503984855117394 0.008830196697120275
P 8.747540435644616 1.684164024231903 3.605823446870362 0.28860478719244487 0.06246649396533758 -0.9947618699840417
P 2.0870097267080414 3.5182615301952245 1.25882784512463 0.25048252639942664 -1.0250440659073508 0.27325247310609063
P 4.868644308048861 1.1349471119704462 8.015986998084877 0.7981457545857673 -0.15005112315454158 -0.7302213228296521
P 8.454761666360245 2.121314769046129 12.573771280494373 0.727483869293831 0.13185825429559872 -0.2761215671237696
P 6.50012850964927 7.8126530606471505 1.2277624710232384 -0.2902837175567646 -0.5670262060939847 -0.19044083982549784
P 2.171804521425047 3.4685169469478896 5.808378008630142 -1.7853804629548282 -0.4368324839850025 1.6275383830009584
P 7.324512754890141 4.166158827820733 5.570115631263763 -0.2872739841961633 1.3158934261595983 3.5010400643747515
P 2.1461052738138915 8.654994064473469 9.799845564694056 0.2763568230630273 -0.11273464609227037 1.0311681765272176
