# total energy = -340859.4883883551 ev
CRYSTAL
PRIMVEC
9.34893871247963 0.00000000000000 0.00000000000000

0.00000000000000 9.34893871247963 0.00000000000000

0.00000000000000 0.00000000000000 13.68311681092153

PRIMCOORD
 96 1
Ni 3.5382461283488507 5.571238316087098 0.5408155427410689 1.3239286377592487 0.41647963136026345 -0.26136574897083376
Ni 5.583289098218715 7.807597969852516 5.13115478438832 0.0030328732890528413 0.15030052016118634 1.1881527935767988
Ni 7.17586212735475 0.19950167982746173 10.412482507844402 -0.25984519856124927 -0.2075358476345716 0.9843100785230985
Ni 0.0955620478779899 8.188398945636024 10.047294259880752 -0.9902585827970494 -0.12888991569589417 0.0838930392702297
Ni 5.3964973007092745 8.866935575838108 3.207404946695007 -0.007397320905335647 0.21478378744623655 -2.4813536632348883
Ni 0.7343862557847474 4.590815102632898 10.150231685589333 2.9377851523977405 -0.040385860016214324 -0.8783708580861066
Ni 4.629061611322143 0.8343366955421634 0.904444387710496 0.8806187735800189 0.3438194846913756 -0.3630405377045167
Ni 6.813600097239972 3.667682186232644 3.4882779201742538 0.6808605130083372 0.15289142081681412 2.184804938605018
Ni 3.0858790259419813 1.0614224193411765 2.7087643367329464 -0.7643087514316643 -1.651971319232342 1.1038226667691506
Ni 3.245437364685405 5.491566659511752 9.397797303423605 0.35355805213537816 -0.7945356686370058 -4.2366879575366125
Ni 2.859709498146768 2.5902263368249665 5.152774205396358 1.216609249145279 -0.5275392037429559 -1.224716965854078
Ni 0.7721784060476182 0.6760021328895297 5.056486679866379 0.22328719693155738 -0.4808798520132041 0.02591106343880699
Ni 8.535683975770317 1.11534709842198 6.972410520878253 0.8989193716614196 -1.3626255401088145 0.7200009306532246
Ni 5.501887887962724 0.8336607672658904 12.141672514767484 -2.403121164684545 1.1752612823261113 -1.4718326326638007
Ni 3.3338128832968534 2.9712890828952747 1.1554895719027622 0.704198159293013 0.09535964514893254 0.16426083899602031
Ni 1.8652722254099525 8.202618681572552 11.682700387088323 0.3145454183176067 -0.4203524840521083 -0.3240425591747645
Ni 3.221625617525418 6.1006687211401305 11.484951633288539 -1.6868244223557851 0.9390373227282278 2.3313233660159525
Ni 7.007786905351512 7.561197338463188 1.6152507500178506 1.1066951032209391 1.351611448386498 0.15297652433145265
Ni 8.88929823748188 2.614608369252625 10.056037387459872 0.358054397343835 -0.8705426202909395 -2.8197339791885634
Ni 5.966455355522236 3.2911630244260794 12.623400894414502 -0.5209353252731931 0.3358475222294926 0.3978823279740502
Ni 4.571528241859026 7.537572570079486 12.964288445718177 -1.1959712611799531 0.8967267348854749 1.0968881444328462
Ni 3.597228583328183 1.2465781525581163 7.303706060958471 -0.8274118505397363 3.435081240985439 -0.15995886918655677
Ni 3.692148359109631 8.493295887186342 6.975174067191755 3.465712335607735 -3.6401395736137956 -0.833232056765939
Ni 6.907042740688763 8.783851556595545 7.673834288191589 -0.714095363802067 -0.08967390761806492 0.18932215284002232
P 4.980263846819621 7.294107505477843 8.39186924999015 0.8224982152882029 -0.042548671995488015 -0.21616626961605998
P 2.1369617362919255 3.0535129997669226 10.833402584761656 -2.2178209885197226 -1.7573909197204378 -0.9572286489252742
P 5.094881836682771 6.954928005295537 1.9715453524874702 -1.3883041758218413 -1.2401533550138062 -0.04428210974682696
P 3.758348194853592 2.138532358012726 12.824583513440771 1.2013186415347956 -0.10914050098310882 -0.03531230214804886
P 5.212856095580249 5.661913673646861 11.717824350213597 1.5342500185587578 -1.8740231010949016 1.1414906136335696
P 4.525774535301909 0.37927429407513513 4.987482162478132 -0.11244693964852247 1.1691615971862768 1.3539992318923841
P 8.291227923654358 7.61629998383459 12.159241975481175 -0.9175408434173489 1.7188138307781884 -0.1593901411672803
P 8.254963389993742 1.7621066855943037 11.790194485574986 -2.8636728466633583 -3.656963330039354 0.8624593290621727
Ni 2.398937699745855 4.09107692725404 12.681047386037271 -0.20290066285540542 -0.7992222754793977 0.07225288392814008
Ni 8.946055645023412 3.5932085396380398 12.0260644722839 1.9493132291874686 2.083601947301431 3.1302353093437834
Ni 5.703946502555892 5.501644815553552 9.54651928718739 0.45157518951181586 0.26303259515029537 0.11966479755320036
Ni 1.0008786915798589 2.6673737799204567 6.365235275539499 -0.9071813545598957 -3.8446754580797786 -0.832953606293572
Ni 8.624199728463978 6.178601475096021 7.648424807388241 0.5426279797552783 -1.0868248466595734 0.5880236342812583
Ni 0.20579538543723924 7.15477092138972 2.446568673216881 -0.33241869905360166 -1.7711434934198402 0.45077531931833975
Ni 1.827829725458736 0.9722054962364428 13.16757831555319 0.5638231257756549 -0.025552651658123735 0.20722037327668186
Ni 7.653938811500907 5.4502630478302345 2.1012618785356922 2.0944859412037866 -1.7023304884111843 -0.678404852378993
Ni 0.7441428083313366 9.296164054679618 2.7236515869008158 -0.1876465649098123 0.14109648506441508 0.5873572043418529
Ni 4.936604302556905 0.3781318537520294 9.017831187876213 2.2414247439815913 -2.5810759562278904 -0.6743615355475547
Ni 0.03921599364428659 8.181798594833138 0.4306719549944367 -0.35045318795780933 0.7277412367202757 -1.5035168511409591
Ni 2.9600142626852453 8.362167671377163 4.248306445338825 -0.941332803630624 0.6245646666300856 1.1674191605738735
Ni 1.1030158481259362 3.5721453804894527 1.1495894566170661 -0.34314508433217034 0.7726198424005211 -1.6025536880311626
Ni 6.421739326839163 2.5939565634118664 10.252883033770196 -0.6041171974090112 0.010717386417504122 -0.6971343104676961
Ni 0.5182472044433819 3.441082607251974 3.5266179182516413 0.45792864253366944 -0.5369401853418818 2.592981963636857
Ni 0.17462695832429026 6.094105766092501 11.720273772182939 2.9720343033885976 0.7387180474467536 1.2970384982366243
Ni 4.948589642116819 1.9288356604082848 3.510184353603889 0.7857188416763242 1.8189379871952995 -0.317389315524305
Ni 1.138569862436667 4.6704680613306175 6.507020346703082 -1.9555119017990128 3.638571200685411 0.5924888691414635
Ni 3.6389155015010854 1.461528953776186 10.294999068234674 -1.06270867033766 1.268923742278279 1.3882314136023768
Ni 1.6363821564197818 7.177133583033493 7.79737864483462 -0.6800277326943965 -1.5370463503569722 -0.28018159612575616
Ni 7.001317439692026 5.985742216296109 4.13884159055011 -0.9664504246338581 0.420563828731966 0.314560073605626
Ni 2.513387408710348 8.655499975614209 9.34626688757314 0.66039196074134 0.4330822729139509 -1.2996877629340133
Ni 3.2415575550774762 5.060683418500112 5.488832094908573 -0.7393968186813331 -1.5580409503307686 1.3110867487995743
Ni 1.3040180326330908 5.770669878873453 0.4206508274794033 -1.3615526187596099 1.6249919624300206 -0.3381941680847982
P 7.201001423826367 6.7500179643640115 6.127874133089703 1.2093823923795366 0.8260869610807257 0.4122995318406447
P 2.1985618941392575 7.744604820121855 -0.04433547253898974 0.985131545983129 -0.3495736135663335 1.7367279920544476
P 8.678685343873639 0.6866636627133418 9.10324122309577 1.632987836151304 -0.545356434430035 -1.2605069789694936
P 7.978206754274425 0.14873039780871733 1.6544667436621372 0.5532625766509892 -0.5083556888359697 -0.8460091539259494
P 1.8230150219693786 9.09362864420692 6.934001340653639 -3.1769674232929996 2.534062049372197 -1.0742302978240144
P 8.737265794483957 4.78158019913841 13.80421300198964 -0.9367174163457996 0.22900610169320562 0.6936013576137732
P 1.6115700728066662 6.528625744302897 5.702739554554968 1.533058826464134 1.9003424557157207 -0.37900785966705053
P 1.606372062825923 6.58911337843133 9.920492732954823 -1.1855788622020356 1.3054087245781907 0.8758311223833886
Ni 6.895627686396519 0.6091422620652801 5.491595641222075 -1.067263122477562 -0.1894648490654737 -0.4163364209141798
Ni 6.335897370646387 5.690203562498892 0.2632689216919455 -0.7037171058915365 0.062039176619931864 -2.1604931013325306
Ni 1.6784991257781416 5.238331953849179 2.7111595348571664 1.4018423195175922 0.402170670936759 0.6309158056590941
Ni 4.736939016300193 3.845321372642897 8.136802152319978 -0.5762166143440012 -1.2525234465433848 -0.6817025492936583
Ni 7.382183858047234 1.2620319484181313 3.297056595454605 -0.19043106963348494 -0.3063811373392594 0.8204336194496903
Ni 5.28260852807364 2.533609163365649 5.846604764604731 0.37617938907931986 0.22409452332420116 0.7681270967364902
Ni 4.028981275649551 3.8082528302442524 10.680548370041956 2.627490281826372 0.2909941133602279 1.21530749961472
Ni 2.9018638632603846 7.34169360404256 2.1177356436203456 -0.9797844227386028 1.5863279702009196 -2.1556463147631906
Ni 7.536656374075685 5.220737251000693 11.408381019717892 -3.2958629467803435 0.2346368176164217 -0.4944334223279227
Ni 8.880080183810994 1.7097619771731147 0.12840580482645897 0.2711133152759008 -1.6620685555673438 -1.42834705067634
Ni 6.849500022286831 9.0105072292091 13.265931956561126 2.5846634164688322 -0.6860338296791605 1.7386131248923027
Ni 0.11299781876663378 5.904827150858462 4.49858501654832 -1.353814626685404 -0.4289158002410871 -0.8951437066690713
Ni 9.032150022564172 8.108044816527233 6.342069540051579 0.7140192591484928 0.09615540157735053 0.0939239411436705
Ni 8.537123712347716 2.7460731468591186 1.9592991775346364 -2.173212348671412 0.8421172750707111 0.6358582372660341
Ni 1.5340486721586046 2.265612483315319 8.6026579036481 -0.6585338244866787 -1.6977914628902502 1.7038687794325815
Ni 5.089272473394199 4.553073436639624 1.9492827244890103 0.15066561681008891 -0.37265029288013884 1.3022724929420542
Ni 1.3349536711695642 0.8704413623490554 10.691987731575118 -1.2046430779223383 1.7591120161766025 0.22575905551081762
Ni 6.279682201556083 7.527064362852228 11.481038167500879 0.026223452472903225 -0.0022427732875896856 -0.8797183732529366
Ni 7.3671881601891185 7.182481176035266 9.333268123045757 -0.4640470967265815 -0.24140576090913907 0.5030047089367015
Ni 3.8700399668678704 6.2531125174458815 3.769794100643923 2.0876182675496753 -0.3853944799196846 -0.3216203228865171
Ni 5.312917787709555 5.757497224084124 6.051864455847911 0.2723762411487245 -1.088155906766171 1.2600413521869847
Ni 8.525839543198872 3.1925410688741733 7.743987790160112 -0.35034802983851276 0.8636132401609579 1.5850226211259348
Ni 8.270314347526801 8.218521226495655 4.177633142372228 -0.8122323145858205 0.2591674557679343 -0.8369370164213521
Ni 7.726972721518112 4.458265848123948 6.151518534244915 -0.879135247055957 0.9781039497123863 -1.906601292141239
P 1.443438757170542 1.5647318893470918 1.6118570852282648 -0.6496408928724231 0.5235457663128468 -0.7203973947606948
P 2.537404832524249 3.7251688110016903 7.684479924819417 3.1487081713369904 1.180301158742864 -0.39433651960432087
P 6.320135059805501 2.664569098276171 1.6800538543029575 -0.8533645658497561 -0.35306748565220486 -0.7844178634767136
P 3.900115503033429 8.733320542304327 10.96285827541696 1.5108799763742493 -0.06294574759460128 1.3342516169518117
P 6.089197573215001 1.8927768034015826 7.931774314759392 -0.23601235780770968 0.35492922145129197 -0.3444185517279552
P 3.413176024891329 3.9598832688731616 3.518873257337887 0.08448285033542868 -0.0005648713645345111 -0.4081734254874132
P 8.18518291068391 4.652639635011774 9.369350352399495 -2.6264387006334053 0.8988468665522713 -0.882484366033848
P 8.268051904333742 2.514284906836519 5.312538220793695 -0.03652020641322098 0.15763510614938658 -1.3746390196299227
