# total energy = -381171.6886638763 ev
CRYSTAL
PRIMVEC
9.20033743759653 0.00000000000000 0.00000000000000
0.00000000000000 9.20033743759653 0.00000000000000
0.00000000000000 0.00000000000000 13.46562382428318
PRIMCOORD
 96 1
Ni 8.460786667138283 2.580823441873767 9.897341147304452 0.5542005150842262 -0.3004228628732955 -0.7796947469694314
Ni 4.52558155847342 0.9611500465185716 9.129262020926797 -0.7336020663764268 -0.980020192898493 0.3204142183935579
Ni 1.4864801109985981 8.920867938867257 1.4436092988747855 1.197782346246763 -2.4675044160566215 2.2043193544888617
Ni 8.837614085849168 2.357200041336953 4.793344497659762 1.021405183603183 0.4552562379078289 1.31627317809652
Ni 9.01342333298395 6.114102611435064 8.21078497927821 0.6036112043068701 0.2671790132185011 0.7333830083870854
Ni 4.3104684700199005 7.776787584076099 9.20679694422491 -0.5112126986687905 0.20805109670809332 -1.251296516114819
Ni 1.9357693869722166 6.622347649386791 9.44523288795535 -0.5903761936738349 -0.6599469027841215 -0.06297274417779478
Ni 3.4068113318348496 5.024331848241406 1.435637206528651 -0.26335038350103035 0.05358693208752061 -0.5086454521622465
Ni 1.469836700664891 5.902789262322519 3.754161789590421 -0.2672168084349721 0.6674272703215666 0.09286104709679492
Ni 0.6063537557154214 1.847896964585682 2.5908131682089466 -0.34885164779864436 -0.9452560499444301 0.6052916773330865
Ni 5.604256714777939 0.5771123233972221 3.965248810403238 -1.2985461931304023 -0.9159367321550225 -0.4152586144689687
Ni 5.004965138041044 4.91466382658425 11.047116510938375 2.3711389553509936 -0.1193719489031299 0.033138177314865506
Ni 5.89332211515094 6.743405688729481 7.484058609355458 0.8752821918584539 0.4158301707017225 0.15426361857399237
Ni 3.647013740343659 0.8287673118857993 0.5422016431809404 1.1010993543007166 -2.290226853085959 -2.1865106084422146
Ni 1.63071380022001 2.582148290457545 6.738117334799234 -2.581747271263302 1.8389380844663106 0.32816172354946066
Ni 4.729580639363026 8.86803960158912 6.974102308649685 1.2079322901965714 -0.5203169749629039 -0.8215721039295077
Ni 4.989655776628502 2.3204906951614457 7.139459972512441 2.3491377684895545 -0.19806724602250406 0.00605700482735731
Ni 5.45440161941286 3.1110848871934107 12.784316856146996 0.727519864738089 -0.501562062952904 0.010127832462621267
Ni 6.065975646561862 7.716488572839438 10.729193332316227 -1.2381697489248742 -0.3907372322888368 -0.5541079553704199
Ni 7.2920678088238144 5.341614683381395 0.877865832387106 0.9826956828481269 0.45915557296223497 1.617100475497086
Ni 3.602796918860078 3.645587688048621 5.795254798905488 -0.584152067140994 0.7988877749581144 0.33902283463368066
Ni 3.830312062111739 6.195010378419378 6.242568762442043 0.14214832336769712 0.7372674310431561 0.40075733552900017
Ni 7.5132255189408195 6.619329938723742 4.387907709809185 0.03414810663661861 0.9187389774905081 -0.3026342687023175
Ni 9.15114318333512 5.483189475097864 10.752946763382875 -0.09601450512411205 -1.186999653808962 0.06606886660461524
P 4.21506097131313 5.737496000821474 12.942241567434516 -0.33720763580181284 -1.0853660027258598 0.40207759700232043
Ni 0.5956841244473171 6.935306325954727 6.027360910513434 -0.6967334754848516 0.02509756639857613 -0.20625492403961895
P 0.8441189948503237 4.283732289572275 5.20554077338882 -0.013272291628873917 0.06975711408947986 0.7817667990071118
Ni 8.982289391265173 7.400328178860706 -0.26989649742646676 1.2761038049664861 -1.9266312142089204 2.0458193292360187
P 3.140985983702283 7.25631529773659 2.7914642463232977 -1.458181360428953 -1.838656805780466 1.1014173997617676
P 2.261314125086041 7.549392045210473 7.571908950932263 0.41028095874871917 0.48110816597392625 -1.2424488359162023
P 5.324640060901743 4.642343040256219 7.050991368263206 0.059760922108716426 -0.7226280838634265 -0.5390657163253167
Ni 6.997519007367956 5.9437583647083665 12.24146382907903 0.06785552619139282 1.424014484739257 -1.1796498983121104
Ni 2.0524848670680784 9.17983903564625 9.192334933885743 0.03330761301319425 -1.5552194217215733 1.430190788753298
Ni 5.121947427921139 7.63687805342674 12.808648988435309 -0.1967081608914483 -0.05899653313886614 0.5668516281893334
Ni 0.41168197686910574 7.703874910281387 11.041555827021464 2.589507631935011 -0.49473064185336735 0.4292382165775124
Ni 8.773073719076942 4.199383596405094 3.230187854841289 0.024280212703603348 0.745800922435464 -0.18541201915233874
Ni 8.727274439562738 7.70109640839041 2.5114326572309316 0.7432020513600361 -0.44936404079311 -0.44832480089531823
Ni 4.685796233736649 8.247596449198719 1.981022166445613 1.4479493982883 1.8818515960003848 -0.30682619529647803
Ni 8.716178832673599 0.40119635234874834 0.8301639231011984 -1.9575872962708025 0.8663236971135855 -0.7941443467358581
Ni 7.151284246122657 4.811012825578419 8.362367898004633 -1.2337415379501913 -2.218020763235354 1.056388127436271
Ni 7.392461890394525 3.030075916497836 0.9545690451854035 0.6960187088060141 -0.5820450481003202 0.6629165269354067
Ni 8.065420568591895 0.1097922262118846 4.176645882586008 -0.052865994761096054 -0.9097699412226783 -0.14815801989688676
Ni 4.703203272073507 3.034952095313129 3.802072546535021 0.5190021128062223 -0.4518770370229508 -0.5374821738882807
Ni 2.506208705662397 8.175346199695896 5.245641363925302 0.37420838139587814 -0.027287374961043328 -0.8169191785385286
Ni 7.108447475247178 2.14022848473119 3.226430437052297 0.6500756664169965 0.4565317621861428 -0.6560732787613281
Ni 6.820035298828678 1.1404830228727052 5.899181810032941 0.7474281736262417 0.4862413734354335 -0.010063040662956862
Ni 3.2474246869364802 2.7894502924692084 8.365868626380518 -0.7981580958809416 1.1590499626735717 1.4666485173597
Ni 8.126888022676749 2.974643883739081 7.152131597196032 0.6875348397047191 -0.6915023089928994 0.31238106367643614
Ni 2.717788864559176 0.6542654326937607 7.162365132471976 -0.21121638180995236 -0.17552561327656221 -0.6311050388517647
Ni 2.945662820968943 7.395313994984603 0.48160362097919096 -0.31651231223599036 -0.41896743077912363 -0.5207694891192901
Ni 0.24913317601070598 0.7466165793204549 11.25819065127885 0.21179076625618362 0.5563813247856289 0.47121533234024654
Ni 6.751032768423589 7.608936628781372 1.0398543326986165 0.8733857461666894 0.00030776104840592156 -0.6371692427679736
Ni 0.5520055227008955 0.2983283000545798 5.981107134332294 -0.7780127312813181 -0.1043379373881429 0.34085448852578076
Ni 6.0339584724539 0.4867622501522755 13.356592562179692 -1.2310292812253507 1.5579442768519038 1.8236361640019174
Ni 3.7394495300743174 5.114081139454958 3.8951201587019377 -3.495002599931419 2.2286743862944585 -1.9103047091347554
Ni 0.7766124393044165 3.0510618860783705 12.085962486659337 -0.5415355180220479 0.3992506690764866 -1.107166643540719
P 6.619983162678243 4.194985835133942 2.6123171167843884 -0.8543156169091158 -0.17921334654079457 1.0007232297737991
Ni 3.175312442494468 3.0602162217787794 12.735463984653933 -0.8868446998850726 0.7183489968720983 -1.1626271385018687
P 7.155001182427144 6.282358381574834 9.775032782110822 1.484382187194037 0.115601169006788 0.6660756413896787
Ni 7.793062980914313 5.228708142963893 6.260343814274395 0.8899660191228738 0.22933057491215988 -1.1387870986594775
P 3.006145838953351 2.8011623219632984 1.3516390462159276 0.3521496018236258 0.36231214417892443 1.8962117213767986
P 4.160475369594011 1.466138165035178 5.394598506361378 0.042722735679507066 -0.6301617011018888 -0.47909036421294915
P 4.331564843649083 2.8550302973662047 10.751788440905807 -0.3706677152324713 -1.2076504972900943 -0.3223985958134383
Ni 6.620056765377342 0.6840128835682641 10.441419659312409 -0.1182540332486028 1.6337535106727346 0.8427106856803358
Ni 2.8272636791311974 4.592072396771764 10.669015765533079 -2.2829976823273714 -1.757189602342909 -0.16745054957791164
Ni 8.208835427785832 8.210463887503392 7.456373874123197 -0.8717865200003696 -0.2232756269673316 -2.7893443111531124
Ni 4.888461265705091 7.3765269060396434 4.496293204434545 -0.3562212007898381 2.1972740176063064 -0.659795979028554
Ni 5.547131819939913 6.080659385032064 2.489604856779455 0.0903375093439928 -0.368381747411772 -0.08421828382013237
Ni 1.2276102179308648 3.921809417428887 8.941376410937387 -0.8723840443750525 0.06513992703244266 0.4165840181486116
Ni 6.996552971942284 1.0411009784146017 8.10887744220728 -0.3212169168005113 -0.6105485548566517 0.9374231841635727
Ni 4.374052001703843 0.6047252959978614 11.62784916709752 -0.9821457238819278 0.05248881392733541 -0.46919470236579197
Ni 2.214650013857426 3.5423783032373817 3.4114621023841525 -0.7975456591079232 -0.43343991336368576 -0.7719176741271737
Ni 3.5593621260544213 6.752698029490698 11.096414678760986 -0.5276636451359622 1.686842162967598 1.1608715892633428
Ni 2.149263216045563 1.9404523587023752 10.446307798566306 0.8381109821247953 0.9037152503881662 -0.18596094967727328
Ni 6.6477405805758645 3.4027631833844176 5.203615142773648 0.3516688055324653 -0.3143037346204458 0.7437322128318934
Ni 3.955593056315219 5.267993583607858 8.758001726368994 0.5754923345834669 0.23701791625408858 -1.0184687266826782
Ni 7.556421102974406 8.66588978851437 12.218518187634992 0.5439490125595471 -0.17609511262678706 -1.1464739257807737
Ni 3.3851997393119757 1.0931840883643633 2.8211555751397386 -1.12324837959393 -0.37470691829885144 0.7185649695376464
Ni 6.034722100457049 2.6751084994192813 9.376571690067331 0.0079508794159605 2.3336728400847355 0.5307649097691053
Ni 1.9420532174077731 5.348763345531363 7.12915927477357 -0.8829962726732599 -1.6261579577136638 0.1793179904394589
Ni 5.126667201000847 2.0817327396224488 1.6861651536872784 1.999916653166633 1.0963366428047505 -0.3250306341196467
Ni 8.170985239774293 8.410635628039863 9.601528219491572 -0.7956337867971911 -0.13496748934854175 0.5785974558713519
Ni 7.652251817200994 1.8909269425462956 12.580770431856848 1.1263722699348924 -1.0611837490527014 -1.7984313826015157
Ni 1.8998052681250839 5.488617674156397 12.700870716077512 -0.44409739307753193 -0.24902265402444856 -0.40289109404255125
Ni 7.319990832794407 3.7696266367048095 11.429055637101671 0.09158140905342292 0.9362893276694456 -0.25298138156188044
Ni 1.586450977049492 1.536382740987559 0.31646676521373096 -1.7644861360043225 0.17277556133525082 -2.5805900177304073
Ni 0.09782810747338083 0.9065018825052181 8.353035995792649 1.0492574299287607 1.1012412791952195 -0.2961874846357092
Ni 0.9076602049822848 5.725728769303059 1.3854107246636558 -0.4167089737622501 1.9126202446418095 0.6302696874346628
P 6.539866624709241 8.238175303714076 5.767259092269535 0.5202938350344524 -1.148381427216132 -0.22835484126245187
Ni 0.835148665897662 3.5410074529666673 1.037808177663671 0.15555714057443532 -0.051867892513884864 0.7502383893815273
P 6.875283324839687 0.3210761342447909 1.9426181181233564 -0.412006168969942 0.4495792421277096 1.3870425355005984
Ni 5.533745329041325 5.30281686061896 4.745326096767729 3.8828069748441774 -1.0809442195090804 2.52872495343
P 1.020427820305237 9.079739364871934 3.671833490513501 -0.11996047441674824 -0.11892637672527906 0.37869727040516715
P 2.249436489518978 8.861608565755365 12.268017842846387 -0.37851806451482556 0.437779164168988 -0.15979123326044092
P 8.886596682099395 4.575898203644812 13.083106093104682 -0.97365208458862 1.544481980699411 -1.1734064885055597
Ni 2.1241738959902725 1.5773518433734073 4.741017578769235 -0.1979559172556204 -0.41154105640806543 -0.09176935669451292
