# total energy = -381172.1818548345 ev
CRYSTAL
PRIMVEC
9.18181455719004 0.00000000000000 0.00000000000000

0.00000000000000 9.18181455719004 0.00000000000000

0.00000000000000 0.00000000000000 13.43851371648370

PRIMCOORD
 96 1
Ni 6.34629579532934 7.0182301693905425 12.665543801217302 -0.7016512245014432 2.7373997997650212 -0.35411880973485466
Ni 0.0860905300292788 2.727448844379092 8.987866209596357 -0.10569470852635346 -0.925043065331665 0.06879860683095247
Ni 5.702347592161382 2.8208554442796756 11.37466697786303 1.1955598846741475 0.036355655810898675 0.278591625930817
Ni 7.9354199931661356 8.173991081853531 11.244945383047789 1.1365031877213074 -0.29584655635652274 -0.48252510092611095
Ni 5.439270240313203 7.203060097238645 2.0731729361518414 0.8402933344880948 -1.4621190049204627 1.5410796398860813
Ni 1.791316937088812 4.488401520593901 4.355624217880606 0.8951061685629165 0.019769469317443375 0.31843755428316123
Ni 2.3046813730508227 6.696003567905132 5.999570276134822 0.6638917463644823 -0.4639704778523751 -0.12533716534762931
Ni 3.498363179801574 8.37632154832451 9.94924443430398 -0.42131870462011956 -0.7335159344205238 -1.0479153140785695
Ni 1.4433996183595366 7.74793652089935 12.008225957813892 -0.8340676652933571 -0.4405682968783509 -0.28168954812985036
Ni 5.421301429145854 7.277487886366153 4.617930297302593 -0.22889040205094774 -1.2635781616956496 -0.31804083306537484
Ni 0.7251484987425972 7.861460476583103 1.5069818480844517 -0.3349664051761199 -0.5665533802226242 -1.1796714955786651
Ni 1.7677104917585849 0.6603707967570849 11.080551419949389 0.22080248283649068 -0.39860583640363606 -0.9794674057188164
Ni 5.274346486512526 5.201507151310389 11.49146149590642 -0.34752701544994985 -0.6570063320985587 -0.44336385734561706
Ni 2.9835755625769473 4.713209069199611 7.798611873844529 0.7611586358384568 1.0518308470828919 -0.26387951653162295
Ni 4.982878963928811 5.694359413461538 0.43488654841553703 0.12788075770508942 -1.6679985478985337 -0.1981783176790716
Ni 0.5084888924107271 8.70177096673365 5.320670577519939 0.6106524274243678 -0.8942119388834213 -0.8669937265974165
Ni 0.7945988261767883 1.423924989598194 6.542097073440021 0.15458912023421117 1.4219840845727898 1.1868726413127946
Ni 6.435350215110698 3.529067167815685 0.5218172144804891 2.317119820822061 0.8751929745787573 0.9550992612870971
Ni 7.08921477804398 1.0886969386426928 7.70077872112648 -0.17399246446148744 0.39043178523327593 -1.0484169363053364
Ni 2.770961463756745 5.903612968139047 9.967197636386514 1.077068538603758 0.8331068440419845 0.4748709268149628
Ni 2.5418476441047972 2.2362952179284847 8.264632119197342 0.3129616187702546 -0.6339700191043856 -0.9240009972203957
Ni 2.2310983108662876 2.7832650953174234 0.14203257182759657 -1.3638730393626703 0.3316113726609579 0.17983118263045159
Ni 3.294673804770162 6.835897695112966 1.4467234352438394 -0.9984485748070095 1.527324752193834 0.9889910289385355
Ni 4.534889047901151 6.451161299847629 6.896913607657874 -0.42680929542104556 2.312404931844895 0.02724083799382405
P 8.976527586749876 0.5223837324411561 9.783399744499171 0.8187312920466029 0.29388069087940355 0.07840681934467786
Ni 7.759707607213372 6.0434887317176855 7.6245292599828245 -1.2250344970944966 -1.6288938685875882 0.21980643747180853
P 2.6960103111971794 4.630187101608824 12.091679470690764 0.7201359135691919 -0.6778950026221099 -0.5835776826947626
Ni 6.716139287317496 3.5597895194589912 5.116673611699511 -0.3077944727470183 -0.39634455117328515 0.17307278086069547
P 8.358077282719234 3.937042735827347 2.221036878430324 -2.796761943773422 -0.7378148189061937 0.41390055777917745
P 5.055571390097386 3.539424254681689 2.5527400307618366 1.4817717461543836 0.5078332406735964 -0.15238079972898275
P 8.308890301920313 3.0704538922986933 6.864420083978706 -0.02577942295694915 -1.5056194993062586 -1.4084050603367744
Ni 1.6101230078213276 0.07389616206231084 8.558559449911732 -0.5268627465012218 0.3478373476015171 -0.5817673689589012
Ni 3.5047812682052415 2.442968682704091 11.021328715795377 0.5913336724910977 -1.5062370782855994 2.1801198744245225
Ni 6.048603002448505 7.728085437739509 10.060689627162853 -2.372313178164753 -0.4937302256133109 1.3981666704382179
Ni 2.7282935713220637 8.682902337735744 0.2223211132127017 -0.4490012581370525 0.24188450031777056 0.17753930127248135
Ni 7.937669537742529 2.526100832070048 12.23719103206936 -1.654866124281634 0.44666669646660495 -0.29081413613893786
Ni 8.928883150803339 3.4365052948580734 4.351471283138147 -0.2793261901039964 -0.5647209549995759 -0.14703161960192743
Ni 7.787427505483288 1.276051865505114 5.433876842418618 0.18709454906108422 -0.2607494555430735 -0.20989869143979337
Ni 0.8442164340803334 2.6016212571346604 11.745879478407677 0.9782016516325153 1.0858437136932266 -0.9013608912233767
Ni 3.2225598329212306 8.644439716386728 4.576041940927242 0.8158688828971431 -0.9303284821003203 2.465246216150064
Ni 0.8734513317588412 7.417189195467439 9.83407601562581 -0.5999031593276636 0.6607575716108749 -0.16325528054964142
Ni 3.482616367766825 2.2050954119261075 2.432129550571717 -2.110750739802081 -1.1734324566474887 -1.3422312927231785
Ni 5.549800924438164 5.71028067997364 9.141441240554496 0.570617780099985 -0.04655162250729402 -0.6370805397089093
Ni 2.309942552815203 9.150825973254623 2.7745689987121107 -0.7359985916330616 0.48758528905783766 -2.450366213714438
Ni 4.276301603391159 4.456329442204759 4.8567189949959495 -0.7487972860596265 0.21386590361765748 -1.446546347293186
Ni 7.26019852947902 8.469122148461656 1.2622139527251899 1.1582282381032245 1.1079158630019177 0.475699079143213
Ni 8.052469765655337 1.6278898190675313 0.9629822877178111 0.7951650746908886 0.7906119081025673 1.0246519726752545
Ni -0.12205569780776956 0.4079884225520985 12.660222021476578 1.4133053258518693 0.1314659039531865 0.894737472369588
Ni 0.5386034079276774 5.12845663437251 11.564231049317613 0.7779296846492086 0.38560916703365206 -1.1670846600525902
Ni 1.7527808612230154 1.562533662762375 4.383737097815296 0.42399599434196655 1.0670787743808976 0.4600346331330787
Ni 7.370169122913532 6.159611140932538 1.332385970786746 1.262803231202838 -1.7621752284829588 -0.5610815584747757
Ni 9.178564235153734 6.112214613980133 5.361846425082524 -0.40082521265245813 -1.0572075380137729 -0.8467784279918062
Ni 1.8199366531892858 6.841021147658383 3.7287036898837504 -0.09052777097792797 1.0994677322345645 -0.4010373286632642
Ni 7.613487209747846 5.223828142596964 12.59649655544394 -1.0063356908645702 -0.5733220664050255 -1.5415879469810676
Ni 6.6615442177206345 0.4591990752883136 12.698240242999075 -0.9650748844425703 0.4528964794264007 -0.2811670999674771
Ni 1.8426249170597608 6.055314908919294 0.0023790081622177576 -0.9554838983200253 -1.2033415855020952 0.41097772770542773
P 5.032084308356927 8.573730562171216 0.5726982400726531 -0.6568116995892496 0.9538108814929767 -1.6612987672808552
Ni 6.820830337358434 0.8283475039114374 9.985326211127859 -0.3764190158939517 1.5599852185413328 1.0187888290262583
P 4.628975102081951 1.2905591325691976 8.910675612456455 0.1354320876897861 -0.0303097067271349 0.4878040899368631
Ni 6.835181513574359 3.480780004847321 8.239824692517757 -0.09990946930314407 0.11062094218337723 0.9369135915170058
P 8.635514992597937 7.223994634520994 13.109538709713581 0.5846714299795737 -0.16554870456950843 0.7661632881418999
P 6.930048021995949 5.701007047230143 5.588539918406565 -0.627206475128307 0.1718291382615815 -0.09075505649738563
P 3.8422496819225374 6.107054434176326 3.3752442278634116 0.5637511348871388 0.6599607867411924 1.5353118841643687
Ni 3.0925361564057323 4.609629018724974 2.059963059490388 -0.3390025229187065 -1.2317119091146722 -0.3939703945141538
Ni 7.096358229800851 1.755966950888355 3.1993206601749042 -0.7094817762894555 0.7810389197021517 0.18785893803093454
Ni 3.2148838359177025 9.564788084383867 6.7255194291103235 -1.2730405926601303 -1.5102127751038958 0.015565201428108678
Ni 4.700326983319289 2.1125978116706783 4.302286138702145 0.669019554509351 -0.39210197384684725 0.7953846469008624
Ni 4.609445382433024 3.6331613999077836 9.10283262835338 0.19219741750528835 -1.5528709760940547 0.5704812545221207
Ni 0.4608279291979139 7.222800998623316 7.270854025319443 0.8035545843061644 1.298199351313945 1.3741589946697108
Ni 8.997140760521312 0.3539240618389739 3.083439732683968 1.230821793200235 0.569152251298052 -0.24034595218605703
Ni 5.166955982979917 8.586474920832575 7.832476242443107 0.5467288892975294 0.17045385518060968 0.7647972610323086
Ni 0.5513927574805648 5.271977578346365 9.083091726968709 -0.5517857349951464 -0.48628045420348515 0.5336340037867842
Ni 4.351206846877738 3.469210918454444 13.474663667180069 -0.9260792199056632 1.1692104481463412 -0.6963331547226395
Ni 0.9858789787796498 2.854332340302238 2.2025318492904797 0.8803675768011613 -0.6494400897155267 0.9258254520236442
Ni 6.4125058603920655 5.450967872110445 3.367436012729679 0.17451182730006717 -1.826724316008938 0.4848079834230166
Ni 0.048561699224830175 4.24474370661948 0.24056446063651668 1.0704710878918982 -1.5017168218177428 1.0453274987467351
Ni 0.8628086904588542 4.3261588566557005 7.092591849452948 -1.3329439538839816 -0.27462544219421736 -1.8379983462608602
Ni 7.669064733506642 4.104620034046707 10.389772289608233 -0.3537686254842875 0.5424428603276658 -0.10029847721144662
Ni 3.9440300967360606 7.111499042072164 12.088668753684235 -0.3520732400597356 0.5097471698668576 0.2686728241552082
Ni 7.714551443022763 8.174789899723516 8.632444593796526 1.1702427460655975 0.27414516012368917 -0.6044329288772171
Ni 7.452364727190543 7.9048445505563905 6.009461845000732 -0.25379822103622096 0.21094384487485607 0.13607614903168824
Ni 4.735080151570907 0.5940542226450278 11.253693815996309 0.9612125732736865 -1.5934152160650041 -1.5109681652126818
Ni 2.3802201617446306 3.6643336604663683 9.897962163413903 -3.772079331879607 2.853228511401583 -0.03806878184726347
Ni 0.6079784444821688 5.390817804682082 2.3773269719649517 0.9878972816537244 0.5599836974249066 -0.569755946320322
Ni 5.3109911085712325 4.47821888820525 6.805008234443985 1.538179949740783 -0.5867977322939572 1.646251386029429
Ni 8.447021520725423 7.072724239026831 3.26749379719858 -0.5999509818464634 0.48237520561180797 0.7844931967993392
Ni 5.39364580357812 0.12053335294750053 5.58859409111269 0.46582732855545583 1.4406034994461898 -0.15303668814542673
Ni 5.594598997859469 1.4730476976949327 1.3733488002506677 0.09033956622652184 0.3326498412278013 -0.7115947088674003
P 1.1834165380307222 0.9985957919972168 1.0768083251018223 -0.2277658015282013 -0.48723279081442533 -0.22305785452957072
Ni 3.9181190159418557 1.297821947915837 13.134292881868495 0.6289795078683298 -0.22217879435872706 0.5912331423574915
P 7.9789877034313745 6.294427724667942 10.051269085385796 -0.4438747355437646 -0.6034913908995543 -0.7520085939080726
Ni 4.849017288911548 -0.06247031197715538 2.9066567471491322 -0.04414918371338848 1.3818643337337684 1.3402852247404016
P 2.463719583694489 3.294003532304543 6.081800771307304 0.8161452764869815 -1.1530976017448786 -0.746496662950908
P 2.5975353496387634 7.204520005759651 8.1028329369042 0.3834558681360751 0.2229951196124353 0.545780409341331
P 7.187001103507581 8.707674873519856 3.862847246609157 -1.3972387593073097 0.8769084146079672 0.9514189842220324
Ni 4.391386467556491 2.2380213990728186 6.747356538767609 1.3234781804853917 1.1983469605009816 -0.14173411864841398
