# total energy = -340875.76158286 ev
CRYSTAL
PRIMVEC
9.19715654367360 0.00000000000000 0.00000000000000
0.00000000000000 9.19715654367360 0.00000000000000
0.00000000000000 0.00000000000000 13.46096826449606
PRIMCOORD
 96 1
Ni 6.856213455556634 8.833316991881391 8.354294132002844 0.8323761365235471 1.4253064640778033 -0.08079948794657052
Ni 6.327514913973294 3.3052281183180368 3.3661031774967083 -0.5640812645330479 2.3900884998703034 1.1621815663240178
Ni 5.9076555224481835 4.685243057302063 5.874380210219802 -0.23819830971543493 -0.26549288376532987 -0.5426521481249945
Ni 8.807528165046572 0.8774105698314139 0.5257195825919697 0.4722003219613352 -0.7578727659983335 -0.24154485759016464
Ni 1.364048675294566 5.087581865688682 7.931552351629648 0.29956694263090344 -0.18937614600640934 0.6162245221955064
Ni 5.403678937545301 7.038731026361562 12.549997380965014 -1.290941641310267 0.8466089922934775 0.8669016811042425
Ni 3.9619234869556563 2.9112127365667657 1.9319583739134167 0.7384496242767152 0.8025130304155276 -0.17051041945015796
Ni 1.3457463338533058 1.7563901745622645 12.722513044072771 1.0196951428906116 -0.47309712274399174 -1.1735023906534756
Ni 3.7283708947147702 1.7360920501598214 5.697246654831815 1.2553208067828638 -0.5694669543249935 -1.3098932427121053
Ni 1.5652824595833972 6.517059112346627 6.004089547814968 -0.39118331868731987 3.470272701284907 0.6508768221620532
Ni 4.314321735530192 5.241137590665204 0.5704094857564057 0.5947406412901177 -0.9139798655389679 -0.1472841019323657
Ni -0.011699702787651823 0.5636026702284275 8.168909807515885 0.4789558955176138 0.9744380708250251 0.19002046445862758
Ni 3.103764405116627 6.440695121901007 2.339192828706659 -0.2960591865879611 -0.4309899091612965 -0.7638009585573104
Ni 1.3112202083404962 2.4441075520849944 1.3644984162475697 -0.18552926145649337 0.7719130461414835 1.874242159084243
Ni 8.76594782049585 8.892758214361223 2.7082388502675396 -0.40233624998034584 0.42184320966502187 1.0376882370339224
Ni 5.181650382402858 1.3032278793392624 3.3262859278476395 1.04025059844446 -0.3094119537457833 0.8154582777222859
Ni 0.5171018469485221 6.527847376924817 12.020375444868758 0.0715057213494704 -0.6681474363170429 -1.6542228342706802
Ni 6.363917259412746 3.640004615032545 9.752538754891757 -0.12695721744955552 0.28575729044132075 -0.5659309161472769
Ni 1.4162241441369123 4.254862118737354 12.591173970345249 -0.43016664192905274 -1.1186067670568607 0.48736263152407033
Ni 8.876138952560039 8.347495593915719 9.991322689751632 0.2628868136010505 -0.7551695081345575 -0.30776490506066356
Ni 7.849846652687001 8.220731185832859 12.095609104780143 -0.6735158997178078 -0.6399398635345753 0.5658527546111738
Ni 0.999924052178519 8.770058949452755 11.967245311181385 1.199298011560341 0.39814149517270786 0.07067576924900733
Ni 3.730817338344607 4.258311052426034 8.703646282343538 0.3902194121121538 0.5394966332151483 0.5256443007130883
Ni 4.8831750624062655 6.372424629178155 10.229002965831128 -0.29335618583450124 -0.9223076686783728 -0.37221937599030736
P 6.859873923844885 6.240813319618139 11.174178184777722 -0.12125168242434602 0.17980829981231614 1.7881683101126107
P 6.983437721464649 7.301576562064968 6.687556919317595 0.2464284109347111 -0.10702576863295114 -0.010646423970252632
P 3.011139841973445 1.0266325946636545 0.9860013966640568 0.2737859770120575 -0.5223831134633132 -1.6434807652628276
P 6.3076214644569895 3.6743192059457823 0.6917816009814705 -1.3805224749938936 -0.21444568738052747 -0.10759758197602115
P 3.81765689004731 3.614721631805397 10.903721082352313 0.4990223272501857 -0.007424317488529149 -0.23855209351042786
P 1.3158095894355661 6.865300246181741 3.768896325414582 0.3140314547956656 -1.5331159049543146 -1.56875319454195
P 6.421509853435445 0.5377503830137348 12.443090553488096 0.1113652765485695 -0.7545097630633715 0.6286617195175946
P 0.5676439007959098 3.316623395225434 7.137180148718187 -1.0547963574691188 -0.7668317749638341 -1.1494882871270655
Ni 2.8926620718999203 1.106325955763413 3.200506535226267 0.587860883451149 0.53360572165201 0.43503553998557987
Ni 5.278174539903373 2.7242253477013074 7.448424800803746 -0.05463182841226719 -0.04411215982786596 0.5225134683935905
Ni 3.9586768907100454 0.7256280566286973 10.068925537178226 -1.5985587079391568 0.5011306318424401 -0.9626768165240388
Ni 1.3026760499490737 1.1477959344360977 10.209484760300152 -0.7243111279928042 0.2650735368397241 1.1765825722406962
Ni 7.135356352583613 2.6510435734057762 5.943730449116123 0.37121715997803806 -0.6234922595015133 0.9068514820243028
Ni 2.8706348820748864 3.5716053621186497 6.483111487977866 -0.29190865475469724 2.4358875604822887 0.14727484596098508
Ni 3.6588679830204973 2.669631026698634 12.879871793263346 -0.13993074689108803 0.6407279066535094 0.23177260869474922
Ni 0.2654878787667588 4.804355431174305 5.56917900967246 -0.21397209017821858 -1.380045792467791 -0.3961787150193822
Ni 7.8846670872079105 6.354609737031562 2.392121544666613 -0.577732022547263 0.16103590430081943 0.5788180565225903
Ni 1.140741715398185 1.5749394739117002 5.751602769481057 -0.2066102504965087 2.0113742601842715 0.5788062294480484
Ni 7.2967940406833325 5.9395880498271065 0.013775501010411842 0.3833072583733528 -0.41536531525016207 -0.012085470409624348
Ni 1.9761470320484311 2.3758370593621434 8.330212297415008 1.1976129105484343 -1.3035235917403356 -0.303372946640555
Ni 7.074645922506347 6.634322857761737 9.124194540890734 0.5412457546957711 -0.7412734668787556 -0.8638394972391509
Ni 8.0024550705437 0.30916609471584866 6.142859004281384 -0.6522094249305477 0.07186798978489559 -0.2870065894673896
Ni 8.342418763525982 4.659573793501783 11.026215250670761 -0.21213889362422175 0.08553931662440106 0.7180576908839247
Ni 9.354427879349634 7.0862251425438085 7.867841809101056 -0.9457396744490678 1.0846167832646612 -0.20009610352707474
Ni 1.4691905684385291 8.87529281416175 4.319880496920693 0.1864216913637757 -0.2507301236338585 1.0462880628877917
Ni 4.694890874473864 6.648550858872103 5.478317541430931 1.2685403907969315 2.3886702793665378 0.827373283992317
Ni 1.7463652739738353 3.8331816902246207 10.149314203309622 0.4439001894650613 0.9696367927816398 1.0356328971667905
Ni 2.9772483202593527 5.62610297041738 4.55486876529172 0.3047603139063848 -2.2004434164732234 -0.8623716544443729
Ni 8.730538767958738 7.402110679800855 4.933175403735619 -1.083896874379501 -0.31234224001870076 0.11844455199285406
Ni 5.677625441148003 4.302209080415549 12.033203638759348 0.2073630695021332 1.2593574387460826 0.624961130737556
Ni 6.9977209055140355 8.81211754614164 1.2173154010120766 -0.8948804257053556 -1.8416958497171059 -1.4827040281606658
Ni 5.234028188688273 5.5451771903462 3.4083310018652524 0.21481078402943005 -0.5936944594137904 -0.03522257064771999
P 7.819698373669689 4.771162893354453 4.217860118693897 -1.7040945222901425 1.2283712747772133 -0.7591470047250667
P 4.216252455737148 0.8043244459635152 7.834566496872674 -0.38012603243189375 -0.22556905098719862 0.040035418655331056
P 7.079088149097367 0.7979342616251294 4.298652539995783 0.461115010681451 0.8743931043852813 -0.9348855053433834
P 4.232053170609553 3.4245336324768445 4.065522097238391 -0.37625292262973264 0.40841433785362563 1.198966339252535
P 0.10501405266856953 7.868507683231884 0.3873529615803921 -0.014469140150452501 0.6333138735776254 0.6830554637771269
P 3.1701494807563337 7.819192530062016 11.159196936549748 0.26704788695727555 0.01413926761485952 0.3466906355915836
P 4.255092047649932 8.715703754519163 4.2766704162376135 -0.4563152752999625 -0.16892430590996066 0.7434990137751647
P 9.351668732398691 2.6843188856341578 11.28153015462939 0.020568311069654902 -0.09523263265276502 0.3085002405647913
Ni 6.1788244847869365 8.069943804963783 3.298300820039867 1.0296214008653881 -0.12170059703630652 1.6061128661373307
Ni 7.3117210256879375 1.845473832451735 2.076650799167858 0.9252461824814066 -1.3001886138298318 -0.5107005349190624
Ni 5.754440092262278 8.634823960230499 10.450422669213063 0.9607813992735388 -0.3769090681564928 1.1884551553085663
Ni 4.061657452075769 0.23472798884198753 12.44055949601843 0.015434332277199226 -0.24800835382732128 0.26050597207369974
Ni 7.882321812299608 4.88392003208302 7.3725050330172275 -0.07405034214819506 -0.31470894047866443 0.40767668835665277
Ni 4.516006180487677 7.809691867394266 8.254278733893734 0.20445463760608662 -0.3501210014293712 -0.22934368753828244
Ni 7.48822365613981 1.2954286906245949 10.370720110956801 1.4120285160219748 -0.31895074647415395 0.37516637443377326
Ni 3.190907462983934 8.696288557141022 6.257196214497193 -1.0907444934289539 -0.8316526280939612 0.01437040978905912
Ni 8.16661511696835 4.066771071091519 1.492485126429697 0.6960734733033496 -0.20882242765647907 -0.12911077345744862
Ni 7.7346522674850995 2.5847320750180947 12.751588934641816 -0.5545589268649095 -0.002261542340667073 -0.18415474970646994
Ni 3.214130283154377 5.526635722835858 11.896910976539228 0.0825537516335159 0.5478393487528888 -0.4951895837676568
Ni 5.542997464254955 2.0476825153298996 11.34719233376795 -1.4057599094044435 0.48631362143426565 -0.2948109160031568
Ni 2.6003212552909267 6.55957756686067 9.435465864730153 -0.7153199802377874 -0.23470546607082807 -0.11595083903672289
Ni 4.397482424631637 8.763262250796929 1.930948526129371 -1.4066420548990808 -1.4738452922184553 -0.6180335503797872
Ni 5.407091082607969 1.2927707123951857 0.7427200522741437 0.044468257615704054 1.6860728889017416 -0.5214400328237536
Ni 5.611985335185052 9.0233762310189 6.274426167490186 -0.321740136293833 0.4193314989867617 -0.9483621996735797
Ni 1.9723302120996256 3.4324891728520655 4.275540085703377 0.5527272729728094 -1.2159528465082028 -0.8324995494752887
Ni 0.5291749542902017 4.856457322764627 3.0164144112279994 1.4759546252519742 1.0148853802067943 0.12557653505194502
Ni 2.2577363727052475 8.85418533998703 8.777843422717018 -0.15313387584492336 -0.19488807696357405 -1.2502598473201887
Ni 8.588387517046115 2.728456039692755 4.121735117785619 -0.4738458279845581 0.3406565135823617 0.2306958306908027
Ni 1.7875409436384193 8.445362536265694 2.0520300112089367 -0.2925347183744704 0.025347991846485375 -1.3490046068912704
Ni 8.846836811941017 3.1371500832230463 9.240201035011863 0.0719032138982052 0.12705414803873602 -1.2904770429690227
Ni 2.6536279743831597 7.664248034453517 -0.05146728779160413 0.05607575994764537 -0.888677125108121 -0.1368752478942159
Ni 0.6932301531307158 5.828955454250765 0.6451382217757663 0.2558041957226562 -0.38869191972403383 2.587661579865208
P 5.726683073935783 5.010187793714709 8.12299392338958 0.3083310619767786 -0.03156260529762951 -0.42998486493554977
P 0.8323601381320546 8.81571363433437 6.358907568265483 0.5147651919067392 -2.416117319833897 2.0277915252000303
P 5.382166788484443 6.814909025701005 1.6204580408770695 0.8800914403216392 0.163188431867448 -0.6886023617372851
P 2.439279044920843 4.351229924577317 1.3706632702516286 -1.2905834866398997 1.625264499365117 -0.6707601913495416
P 0.8833832032645568 1.5780849014357758 3.4196241903354654 -0.22055128605763308 -0.8866174143656151 -0.8326738702696241
P 0.370515727170083 5.993106303518912 9.841623332496876 0.45026058446545036 0.9285631626697815 -0.8756007515401373
P 7.254717049681439 2.0839928892043194 8.382238772322003 -1.3436230308643828 -1.2201185478501182 -1.976186913649861
P 3.29804513908908 5.884570659625288 6.9686082263189775 0.8273167197227687 -0.2973203126885718 1.1551236310359718
