# total energy = -381174.6263507278 ev
CRYSTAL
PRIMVEC
9.22466458902483 0.00000000000000 0.00000000000000

0.00000000000000 9.22466458902483 0.00000000000000

0.00000000000000 0.00000000000000 13.50122906942441

PRIMCOORD
 96 1
Ni 8.53766704146386 8.193725417305297 7.361747371232198 -1.0633810138143363 -0.08255786539857395 -0.03324744919922016
Ni 3.649046747392366 2.6229134930501252 12.947043864033802 -1.2282085239471041 0.7831240843659545 -0.6322687201425626
Ni 2.3984128277115975 5.381752420778444 6.70373819961716 -1.9882171053415176 0.39454837850481084 -0.27133108771366177
Ni 3.9140621401897757 1.0058758906128 11.094014431413795 -0.6686696273691001 -0.6472536235871692 0.5432494153893612
Ni 4.4987398395975315 5.276000864405806 6.219975564868315 1.3078224762260058 -0.47012801281333877 -0.3165984441918935
Ni 1.4173881838597784 8.86507806644066 3.6273614055639647 -0.13521380103139294 0.18255732331236302 -0.7577604087901852
Ni 0.3142483508850233 6.090142098772508 1.2228012612816477 -1.9610271751902875 -0.6982946493243845 0.2959776826177483
Ni 0.20247954571424623 6.0885554564403295 6.771258133049603 -0.9443165688492964 -0.16314215201054486 -1.1330267991369327
Ni 1.8683820421167785 7.70144195975277 5.689580405016978 0.9976867569403204 -0.7428924905394173 -0.12762776115401891
Ni 5.698702675960531 0.9904245772035042 9.65609306634939 1.0479955324972015 -1.024514675766442 -0.07665589809184219
Ni 2.8585667780375115 0.578476879781649 1.8890379113622084 0.13651066546594554 0.4537626840814379 0.12937842529653848
Ni 7.07483815918367 0.7038040971607741 0.5783901679332625 1.0722022116503922 -0.4640036450831557 -0.3297835754235998
Ni 1.1469855868647398 1.117752624360824 10.007664410699494 -0.221298962856935 0.8280399710420384 0.1351909182132575
Ni 7.065917908397528 2.3133798683044993 2.2031977054659007 1.1064482773174558 0.4233223653137096 0.9131308872751113
Ni 5.527944907292188 6.615080869440801 1.8601859275113102 -1.665297604027603 -2.0999047982265124 0.19373365164415668
Ni 5.78012879146134 4.016778781868886 11.63247010329919 0.7700916766620286 1.0106955104951625 0.48543841791816394
Ni 7.954004055175522 1.0480695070510802 8.345379827800917 -0.3938181852070056 -0.5335527569268875 1.0370264350802076
Ni 3.069949970141401 3.3534884897005215 7.714373094760024 0.5076596912102096 -1.0488951614933355 0.6909574922330229
Ni 3.1130383790577123 3.137603661212312 1.9669669564669192 -1.0692960937471907 -1.1865877630825241 -0.19022898092500787
Ni 4.436371881412308 5.079616977139836 13.361397354015146 0.003777978985193493 -0.8602288970697572 0.9182234713066703
Ni 7.249036727793308 7.212765346106531 3.132650016256615 1.1502218228589802 0.6847683327031756 -0.5634330894260877
Ni 2.5237667966184167 2.959761350037497 10.016197225567314 1.7074989199860011 -0.08663357812984435 -0.10068439979595563
Ni 3.3215619250977912 7.849304110581189 7.578631230909797 0.03994260183120863 -0.5561082736299003 -0.7235405683753667
Ni 0.04574511235623774 8.61745116664416 1.6435991020377587 -1.5657845988319292 0.18962862833684763 -1.063691860186536
P 9.024867708754584 7.516893317325083 4.8461444028927225 -0.8606973520657435 -0.89523678060351 -0.22869705509321905
Ni 1.779677666150337 4.455614532022333 0.25822142722968033 0.1636293760596085 -1.1221579747432289 -0.12421333615583123
P 5.940979270218291 4.650033565702523 7.747153863316008 -0.6813778189643879 -0.7220935515161951 -0.3002457138654829
Ni 0.22447206887788937 1.852856931389707 1.99984273906954 -0.27907499332513874 -0.4568662627074261 -0.7807843804891844
P 4.414573998674298 2.1644015330447215 5.802233855534592 0.5536371863815884 -1.0391823050809457 1.118873647565002
P 8.925573417687325 7.917852594130131 13.049221785293149 -0.5480586638525464 -0.1570787194252843 0.09025034894682521
P 0.7493490342925452 0.8158487198067379 7.688679636109927 0.009706942875118765 0.48148200437357724 1.6113951975821927
Ni 2.051731478130608 0.005851204833144101 13.139612429970768 0.6043262280960238 -0.2860442255541203 -0.711608078603839
Ni 1.2673213381628081 2.9236652369804372 11.951355693139945 -1.185899735876564 -0.06759533055147068 -0.05635523886127713
Ni 2.579797410139648 3.2850968254518533 5.509257581498425 -0.09023697921038652 0.880867142145399 -1.2631099638099796
Ni 5.557786697667753 2.304579538159742 7.798796303829 -1.7247294249316747 0.36555816192004786 -2.482611704011705
Ni 1.0290574730591049 4.072624902095678 2.5909398826573127 -0.43926654734779186 0.5778793467584048 -0.6768904726169955
Ni 4.861887215707233 0.6559862026415102 0.016155155327582 -0.9145131123346185 -0.5587734791668892 -0.25291890375506115
Ni 4.653465140979095 3.338018726961782 4.028267179313624 -0.9497889048177771 -0.818627419478887 1.342092196042153
Ni 1.0769242583013952 6.513443513534161 3.387809777265075 -1.9284744380652463 1.576111434679234 -0.8515511667901012
Ni 6.260558554846138 5.727391383245851 9.495914143184198 -0.8676691553978862 0.4591622578304544 1.1761184881200841
Ni 1.412923446134346 1.9645768458374573 3.946936077859452 0.7780407563057762 0.3063032329134725 0.8309949399053044
Ni 7.3890948122669435 3.25179578580555 8.602551488185238 0.73065712481549 0.7421913507073348 2.770838539039441
Ni 6.427100651736543 6.6692296513587515 7.008717607389551 -0.010895306756265107 0.6087621523801903 0.8555024381283654
Ni 4.820357775128935 3.3561267438110045 9.679787540154237 -0.2668077459220115 0.4022321203023137 -0.23561923613434904
Ni 6.992600273187328 3.8619704585048242 4.019207636090179 0.8656855493089544 -0.5581870105357999 0.09275048966085962
Ni 8.157085049029641 3.104754630137385 13.45566235787599 0.33826924429710775 0.35099646205578905 0.16902792136736053
Ni 5.110390458652321 8.871258591804379 2.2864872032405468 0.5304430076533122 0.4408847996775052 0.46055502441292295
Ni 0.3509708186767044 4.677421595262045 4.669845378125894 -0.6297115009383477 -0.8354483476909677 1.4946079786871034
Ni 3.0919969188269034 5.571937333351251 1.8340478400216147 0.4666313125139899 0.14205782053641988 0.01521270318469638
Ni 8.027423161697664 0.3258677385688138 3.3828136988516566 0.5192569091295057 0.39068272490181744 0.3452976118987989
Ni 7.90509488281965 4.193892344530665 6.678491214739607 -0.9519195780075347 1.695287465521474 -1.4597219654431959
Ni 8.210883293688157 4.658584829899787 10.57644432292541 -0.023202920479024555 -1.40717273059157 0.19189377022194049
Ni 0.6074275675450723 3.4374237140057056 8.845046706996907 -0.4385306976230318 0.8226861629292929 0.8292843849721009
Ni 7.292088238050731 1.7761446195618236 6.186586890907153 0.09968809732095735 -0.20103404196031183 -0.5158723089279891
Ni 6.4759175774451965 1.7888100842250851 11.733527227794816 0.8071551571732292 -0.11475604739767334 0.08700535964696629
Ni 7.148469432994417 5.883334340370714 4.952845177265251 1.6948984576131714 0.7035361002289819 1.1730660744470056
P 1.4964712345212074 6.110205744542788 8.614014056568756 0.294697273243428 -0.15885638015099737 0.25960248642282385
Ni 3.7739118090689208 5.47582555161307 8.593073145183416 0.42758782545828294 0.4720609681699935 1.1239857719805868
P 4.961412123392543 1.8613620722633608 2.1139546090796966 -1.0021910725685772 -0.9688001558129573 0.42344115027976104
Ni 2.652008085583211 5.3583678957082554 4.157271348050926 1.8542209787673096 -2.6574495471926234 1.8146113347954878
P 3.6304036999892695 4.469469978434728 11.31332806777916 -0.10267186253962964 -0.18030632249465722 0.11335016818908221
P 7.8436586157713455 4.5649637076365375 1.9841137632521126 0.05527614686448545 -0.20989123524062564 -0.5806013736752581
P 8.614674542562847 2.247580334842704 4.512664470995341 -0.7134726426164035 0.5481561086623591 -0.22319078056300914
Ni 8.562795028166502 9.02203573668494 10.711240658641634 -1.1558468823552417 0.5552430974161277 -0.7419157284484448
Ni 4.549927504139729 7.938912503690383 9.548838812093544 0.354433512761796 0.379204806169205 0.8279258140616773
Ni 3.361015816113647 7.417285387657277 3.3693669050864443 0.8913662419045101 1.0844244647481969 -0.3336404872758447
Ni 1.5464320186553844 5.026999489565733 10.636592826778529 -0.3125769817373262 0.4606185306610068 -0.7213523024747964
Ni 8.396714164512195 6.383338842295529 8.871698608311616 0.682673912067992 0.3661857682017178 0.864985437918136
Ni 5.3478886765841 0.05724181199922607 7.278432044396331 0.21220137143104098 -0.908413941415416 -0.6838838732156932
Ni 5.094321092706653 5.6954094706547895 4.028253342316542 -0.22913671373379893 0.7227715514198261 -0.8840830779795353
Ni 4.043677904198144 7.608798651950048 0.2561846212590699 0.49222381627111356 0.4665233261812159 0.07336411471444784
Ni 6.111783162210244 8.665733061798939 11.735106490395216 -1.0748897857848843 1.2647207599405252 -0.6904566413372045
Ni 1.9517084385503125 7.574575145831548 1.3154288871543418 1.951211731761762 -0.0901701305281931 0.43626684128951965
Ni 2.640864690599074 6.210662343365016 12.412112014072203 -0.14315979535134699 -0.6210288855626853 0.3160052906925848
Ni 1.175166937590351 8.29683871956745 8.899443632395878 0.4816496402996931 -1.0854431358206984 0.315515752650676
Ni 9.189896960630586 5.455392919253912 12.55093214854015 0.1811424452427074 0.10828046697565868 -0.48213223636306646
Ni 7.074210881982577 8.452025254185113 5.3265861583416605 -0.4366784749056415 -0.28441877413555533 0.45923861959434453
Ni 2.3275489533174416 1.0664819378361279 6.37052762792966 1.473173205852095 0.3026062436778595 0.055571052397084944
Ni 9.18611484809458 0.9982194188935669 12.704751587846015 -0.8648622820767106 -0.18559533880773843 0.3978152221815407
Ni 0.9635808028625782 7.359889523757194 11.336442310172995 0.17195666497838127 0.6541048421810477 -0.49106990517232846
Ni 0.3171024621500001 0.22217512736211945 5.665426542908977 -1.8708555020001973 1.6500735879889972 -1.3217329156595108
Ni 5.154917915265258 4.116820270778626 2.0425068134086404 1.7147136925668856 2.6293332485723813 -0.3227526367187474
Ni 3.7761349532669146 0.31233976775404815 4.700169618466418 -0.05568418093618152 -0.9130766369984081 -0.5337592165107388
Ni 5.975045957036517 1.0559658200530846 4.233229082304552 -0.6137076693109237 1.2451364100506945 -0.3022239206377763
Ni 5.14812856202989 6.540564027816747 11.605089453471443 -0.24976313173489892 -0.3894946181309873 0.06315632094351059
Ni 3.4354496357552042 0.9452882927189162 8.59549000734057 -0.4422613683100577 0.17483527207775698 0.41038123177200936
Ni 6.911211056345408 5.244922968957497 13.451828587217541 -0.025028660833853668 -0.10253893650619116 0.6737498701054848
Ni 7.619397791715588 6.984390321584777 11.351482203535692 0.12075391685232106 -1.5048905915600341 0.3676582389821862
P 6.81295915239173 8.210348263134282 9.44153105478231 0.2680061371054868 -0.3409208229873419 -0.265473086270988
Ni 6.556651843091858 7.602572003262719 0.25590511391799425 1.5950308972915563 0.7956268448186556 -0.9077732225076237
P 4.2868216169397675 7.409232255354999 5.416342146086406 0.03583037943504797 0.04110679734263888 0.6897660430280831
Ni 0.4326543023232561 2.845864414715362 6.693477605046915 0.8957376314993283 -1.4864465259222335 -1.2604519573618422
P 8.494947619136429 2.322392365737862 10.840407181478042 0.18678241713730412 0.046892293676164404 -0.17337565681309497
P 1.6183106061689565 1.9933024517816647 0.40411595707290465 0.724960588651345 1.1765311501774705 0.16266418393286178
P 3.2179135922817625 8.118055492590996 11.691754256067858 1.2844508913796007 0.5793348482580087 -1.3110684939671293
Ni 5.781789231111294 2.8371655558825464 0.3004362603968211 0.628204577375518 0.371794886858379 -1.3551135480024856
