# total energy = -340854.092448487 ev
CRYSTAL
PRIMVEC
9.40036571188362 0.00000000000000 0.00000000000000

0.00000000000000 9.40036571188362 0.00000000000000

0.00000000000000 0.00000000000000 13.75838542286558

PRIMCOORD
 96 1
Ni 5.287442576402096 8.985555899374903 11.572137063799728 2.4601562032216666 -1.5203557770751688 4.259532980455587
Ni 1.0231170176123459 1.6020949502439816 6.066402011902965 0.371444959718128 -0.6203028060299381 2.1877203124796
Ni 3.1298800084996357 7.7221091286223205 6.573839400323599 -0.4927712041341514 -2.57392931788078 0.17127069465495018
Ni 0.8875148602549742 6.317760274250123 7.3600070363528225 0.4581991225862367 1.3535996824611205 1.1246254624471146
Ni 8.150624805572088 5.332037911960936 7.326423289342386 -0.46814157851092925 0.07409739333604658 1.4862665487009437
Ni 2.4150667894377236 4.151163954772611 9.588453062893866 2.3395151577981257 0.991279567862396 2.1420757751676076
Ni 6.314291539254084 0.6865895606551119 4.64535340761081 -0.6049787740783581 -0.6551409967550458 -0.4795397930455418
Ni 0.3973356034853672 3.2943018074582486 13.675738711654041 -0.006954834051278345 -0.81983326686153 -3.036550223683796
Ni 0.16277203475317972 5.200489192355033 12.007479286424628 1.0338989451948195 -0.28339933173210546 -0.5886119026845605
Ni 6.531139178518694 7.0202778147894875 10.824698935043358 -0.11478252976023458 -0.30506087586593916 -0.5083253498186665
Ni 0.6796586709191229 3.877227893743914 5.155459559894251 -0.2347201213588474 -0.4046790391809096 1.2970474970976886
Ni 5.154784613626728 4.569630640636291 10.693526230071175 -0.6697875430236271 0.1719877753266328 -0.7503499752587272
Ni 5.689900439235274 5.511688303585089 12.882953218071398 -0.1705060485747838 1.8328576826001852 -0.278307776141811
Ni 5.690154249113032 2.0685975055650117 9.833435057089766 -0.1329885112453 1.4034088926737638 -0.31080214922509053
Ni 5.646527151236014 4.855335959700331 3.7201853819719974 0.7504273654638819 0.9570363304088099 -0.4470760160898816
Ni 7.343575196859389 0.6004239272656865 1.0071110146915963 -0.8946562255096915 -0.20452020073669935 1.0909488961302762
Ni 8.06693334847252 6.111262437778575 5.217454972628346 0.8048625044843106 0.7188971560660845 -0.6660288473121433
Ni 7.7700321936895556 2.4113442445639253 13.459635581364193 0.4115989062291944 -2.7806868925884305 1.2651118247313566
Ni 5.24202000864908 8.03210499302448 8.393619562428794 -1.0378337614728514 -1.4386134655993548 1.5456749725662478
Ni 3.4620607362911007 8.961011544159025 1.4641398813161257 0.10084123708879408 0.16301976750006764 0.47449785974626024
Ni 2.7525023217353843 1.5544632965178773 10.752797416783988 0.3018737363872091 2.2349579053103255 3.0013765039961404
Ni 3.051856972003353 1.938665648884093 0.2605649806537199 -2.1207741854763538 -0.22812009954382648 -2.8866924474869835
Ni 8.1054278465993 5.127025333292569 3.10305230442051 -0.8036474011302869 -0.5957204887048838 -0.5964290847361342
Ni 7.035186795016369 3.8277067664833813 12.165976034792447 -0.6164965449099705 1.9889413851020523 -2.575826020682861
P 9.258909137721341 8.458496187293747 7.666874459002457 0.09459988416477257 -0.11354402936744315 -0.2102195651143218
P 0.4976215264074513 5.092008970527671 9.718606768208677 -1.5295227882864175 0.48322906897167106 0.20485675814051169
P 8.167442060065081 0.7585493611827081 3.0570581944242434 -0.02604218970003257 -0.8093130840564966 0.4740260623161643
P 1.1297265666369658 1.6854573945390467 12.651372385421173 2.2995548153551044 -1.1625232659341527 -1.4260466846779376
P 1.105069407030972 5.8189580618928 5.340771791865597 -1.2296686534323984 3.302873316659906 0.5318134056382776
P 6.594253234788097 0.09748179379113936 9.8210387946527 0.48147634794662236 -1.606653569132149 -0.42030157620951486
P 5.005779414650514 0.8160551591902216 0.14121229569242966 0.19752345770389207 -0.6405453583290581 0.8473643824022631
P 1.0542510292841156 4.132447826379346 1.5205213955688253 2.093949866194658 0.13973405749924966 3.5448848294738435
Ni 6.064768228319465 7.964459960418787 0.9299537518894464 -0.9842092912791759 -0.4556421604923379 -0.5132143024798517
Ni 4.418557361174632 2.227679896724843 1.8246918532581247 1.9220847324888188 -0.4134400732029912 2.881286445980064
Ni 7.415346990070126 3.707701696132592 5.142540637116318 0.7079509414672259 0.7695018655968296 -0.28549555213950184
Ni 3.327701307298164 9.23037902738806 12.761508011673472 -0.9595174449594507 -0.08440366035806109 -0.139328851641031
Ni 9.00941402788425 0.3306136868054493 13.034859369946739 0.052743867360934976 -0.8126794294255683 0.8341625390000086
Ni 1.8359760524159727 0.5719455189445432 3.4770740605788375 -1.9779818007667551 0.08030120815391331 -0.09878923965577179
Ni 7.970184783217129 8.804251043362397 5.929850417595458 0.883836252076052 -1.2926223714467997 -0.1766512422405732
Ni 2.1054281389375946 5.99837344437088 1.4215026419623678 0.387578632055197 2.5888288607004317 -2.117097250845399
Ni -0.06327480252531709 7.541725508462419 11.553824211101125 -0.9951976719698796 0.7046905255483993 -0.002969109930652951
Ni 5.473560419726182 7.7591465700434465 4.988130227780421 1.122032247798642 2.613576499958757 -2.755392893908332
Ni 0.4230709850535448 7.96993097333937 4.178201287010034 1.6223259855620835 -0.3512173198173435 1.1800900711733224
Ni 3.5355715971827797 4.477883070009336 2.2616725596494467 0.03807675226706346 -1.77231103136538 0.695592419901873
Ni 5.759087131839206 4.5894560121990216 6.758573509795606 -0.31680541799637696 0.36603433022551796 0.9114144188046368
Ni 0.9802607497344475 5.573514509734011 3.1704134459777467 -1.054421233517887 -0.10778578672742728 2.198609705698594
Ni 8.66561444791093 7.902267140001991 1.4043601348112085 0.3333604941415807 -0.05402221985272632 -0.35759854075333897
Ni 5.576334619486888 2.213259735521795 6.743686150410165 -0.40373287321755635 -1.4585942795966558 2.0096302809099713
Ni 8.701721253113606 7.102737823963632 9.256614508419082 -0.17724516707083024 -0.7123976643846699 -0.08238997236214197
Ni 9.112103624352368 3.0867323292806073 11.049194711957773 0.7377839656682583 -1.248336662155547 -0.0025361361582924066
Ni 2.4737532733951086 4.957489735315404 13.051658763744634 -1.5746384496781334 1.0155140149297286 1.085136146103241
Ni 5.152133710459023 2.9598555914986386 4.767129506886406 -0.16641310945233276 -0.11157019347052399 0.109466773974276
Ni 2.1852560456757195 7.060332773646195 11.588041542769375 0.27571841814808 -0.24665826755733 0.07619464218470749
Ni 8.522249468440469 2.668021233905011 2.0378921505756793 1.6403720444305168 1.2035961247150624 -1.2105213910799861
Ni 7.702857179376008 7.836032162272736 3.6026883292281 -2.155290474085669 0.5151706548752741 -0.8859281016080742
Ni 8.70453196250064 0.4426632275433705 10.714659192522655 0.7269393096442707 -0.3950571998204293 -1.5713854899584745
P 3.3429110992320177 3.7503793570594746 11.738311090951463 1.16522112448129 -1.6629877249475036 -1.4805679556542695
P 1.9680887939724503 9.139872305052371 5.593072910906802 -0.0974052148240516 1.026231915567865 -0.8096601829832701
P 4.846180003369321 6.411820334874437 6.198414169544923 -3.0105954514912474 -3.25423113017217 1.618385769967413
P 7.6419052072504785 8.055605907631794 13.128347888327806 -0.22394539934084656 2.683410490032759 1.012888147271107
P 4.30898669690949 3.332016075220067 8.526842487191322 0.5056082079978196 0.8299806397081771 -0.9556093681542962
P 8.603816442859534 3.31249151536431 7.129154732055422 -0.3549878426033693 -1.805282086974762 -1.9180732973365806
P 2.074275326534139 7.815417159979201 2.791301391715476 0.2525142121174748 -0.23103855874220208 -0.8570217029863691
P 5.638988057829988 8.6578121442613 2.8841290643777824 -0.950454563426234 0.1723076205598968 1.626234062367238
Ni 3.756517795954905 6.856824253512697 13.80654010217543 0.16386411777823393 1.0119895467162376 -1.1272901537634714
Ni 8.804053635679695 5.158864372402559 0.6855338995709515 -0.7297592955915689 2.456945152483536 0.4839767457709729
Ni 4.49200241950541 3.757617638758527 0.014067647483938288 0.02353330723524979 0.5255838797887981 0.2570987461643637
Ni 4.359344456730043 9.441821456292988 9.888110404941974 -3.5559703978640433 1.4477305974092745 -3.5051797975747374
Ni 2.6244223371255218 7.784574559648561 9.053678470565417 0.3118969249511661 -0.44793579298701564 0.1105486941845451
Ni 1.3099127791141656 7.8992026207371975 13.602269212372073 0.33649132646107854 0.14007652844033294 0.772757910640282
Ni 6.607592353919207 2.407330288348996 3.069591702202616 -0.6763999061338223 0.5778531215061596 -0.27217183844740217
Ni 2.581462665223351 2.0626752750839685 8.525934411850896 0.3145510747445615 -1.7990291640865144 -0.28391972301194973
Ni 3.749204311329109 0.3073590617832197 7.223014564887282 0.5904121891180929 1.5423402517660598 0.09672824336168502
Ni 6.78495845664353 4.08015359119515 0.8974454067314409 -1.4089365073602123 0.7444780898589823 1.2689198856235373
Ni 7.862315585169557 3.5851867281017413 9.063199161091132 -0.5747788534562102 1.0209567832118547 1.5185884007621009
Ni 0.09666960218231058 2.0603063828915515 4.159448497189982 -1.4986914047278577 -1.3598235518836452 -2.1358297942578957
Ni 6.678518114204082 7.146910143059539 6.934845409935811 1.5765541786436075 -1.2658242774173492 0.48535202885194473
Ni 3.02585556008182 2.830713365548526 6.417227425307288 0.9412052769138242 0.6063573995934396 -1.2470595952153363
Ni 3.093397188663241 5.261732575821695 7.220483046365782 0.8266328062818669 -0.27192629809549945 0.3865918426618955
Ni 1.0699872417051732 3.834945048182434 7.894300329950111 -0.4173849167833521 0.6119870870753912 -1.7152101725873299
Ni 3.891206237752344 0.42650305862279697 3.998627038349209 2.563457214704863 -0.19344851630357005 0.5470888437401095
Ni 7.456219780755167 1.4086730226599427 8.230775144858624 -1.1684010648711685 -1.2710042789563918 0.6991711383920669
Ni 0.27845857703572896 1.7032992889089196 8.62162355587579 0.21220162854135713 -1.133343816156719 0.6974153320432247
Ni 7.8278538439893905 1.6121439413300693 6.0492867658127505 1.3780637290407556 1.0211910107098479 -0.8100419918027211
Ni 2.949975806997724 5.15260372875117 4.826772008050017 2.271325388195766 -1.13017056063506 -0.8823100452395126
Ni 4.147826824898372 6.593369600398861 3.0844376999783485 -0.6969687314241093 1.9207449306314728 0.02404829919845536
Ni 4.857413440551618 2.043959146690703 12.149424810652805 0.4232213209594711 0.10693475158104163 -0.8853853417307268
Ni 1.1831300449906268 1.3839500604930481 1.3861300053320227 -0.9079591132661847 -0.33961033170603444 -0.27253847775820156
P 4.167426587680873 6.88302307311693 10.968253801903845 1.0558754494659108 0.3507432083944024 0.05935674469176229
P 3.3372050771653616 2.7475389285703193 3.921277068047279 -1.7564226422698976 -0.3594476781469358 -0.9411566830640758
P 7.793768117442943 6.109636174487748 12.624254210037499 -0.3028759523994784 -2.8417950727536607 -1.104981462963942
P 7.157983774022506 1.6784917234494385 11.479956136307415 0.023182608764050396 1.3874269154232106 0.7411472257135365
P 1.6939835263585803 0.11644045162315188 9.871861872582476 -1.6483288373837481 -0.9389802442380475 -1.1199416838182001
P 5.165275421907434 5.8156867345794625 1.2965210179343336 0.48891146406842895 -1.2218357876515407 0.2705155337909019
P 6.329820943626597 5.57045939083506 9.012444705832008 1.4659718030076494 0.2783525133368174 -0.8615188195257744
P 6.024600465072642 -0.053625326987553866 7.015304081221997 0.35857093196893736 1.6706388137348582 -1.7416192587084778
