# total energy = -340870.8462681411 ev
CRYSTAL
PRIMVEC
9.21908964386752 0.00000000000000 0.00000000000000
0.00000000000000 9.21908964386752 0.00000000000000
0.00000000000000 0.00000000000000 13.49306957366057
PRIMCOORD
 96 1
Ni 4.148876219819999 2.2821303753721893 7.602643206696964 0.9438272879177035 -0.7425883290354373 -2.1927272787758882
Ni 0.614274409407264 0.3262967781637734 10.399715986085516 -0.7354049239131206 1.6286267309691307 0.5019366726835033
Ni 0.8387555593772195 0.41705963954832215 0.5249626327635434 -0.8329227530556365 -0.9915634176514019 -0.10785854894689166
Ni 6.429089024505451 7.989419979938599 6.600175971848629 0.9817631437315285 -0.40703057013222155 1.6681505000953656
Ni 0.025359872332085684 2.51125241516764 1.1688072728328565 0.7963925193400865 0.1268147783344203 0.28792447329596865
Ni 8.894135361394623 2.034265925931861 12.335634505421396 -1.0141587864534145 -1.5667341072293919 0.6311472049436098
Ni 7.102303840987285 5.5253232093029565 2.4323821796767917 1.7281240524355208 -0.4584929996775717 0.5701485537730504
Ni 7.746607591730633 6.266869919679445 0.06857435595744982 -0.4791412720555426 -1.4017574731132698 0.10407594197600786
Ni 2.926553974283459 4.296805735393885 11.6687126396644 0.35805928243984136 -0.2580549394300459 0.6765927388709186
Ni 7.214868927934633 3.8134857314379724 0.8762044242165989 -1.075772959720786 -0.8123924943127686 -0.8801557179006713
Ni 0.9138708595762043 2.587816956289485 4.33068128101125 0.42455315239701724 1.2144672631016118 0.05497069980892468
Ni 8.063163479569381 3.254569190793423 3.1288134301028916 0.4737720373238292 2.192149037674915 0.0898302306902711
Ni 0.5358964733138755 6.9340093559566665 3.6276251926260707 0.8466131060585356 2.067160771026272 -1.5802514249895365
Ni 1.4984893007859064 1.049823855538846 8.51586780807538 -1.27078522096705 0.15614463764678915 -2.0720618078723154
Ni 3.8738246744412814 4.3431408809301155 4.296274715819097 -0.45634715697916245 -0.14185213228351698 1.1792346651515626
Ni 0.2799044742705345 4.874298742066191 1.240103104111097 0.34635253552587447 0.9985277647843771 1.5124547770605372
Ni 0.08333780642735021 5.616112806048042 11.191435749098659 -0.7034772219665884 0.29064547177155753 -0.03443684152163102
Ni 5.318695748717296 6.730534824096312 2.9620530016216624 -2.8209328845926707 0.45749618298194117 -0.17045334095997744
Ni 6.031524994241942 2.815639104417485 12.254149736051904 0.7773365311499 1.7993140423167853 -0.4849375670223455
Ni 6.252377510450843 7.227720339171701 10.989943321553922 0.47969560189711585 0.8660303342428827 0.9618592057187498
Ni 7.318131953233343 6.767484936175343 8.47634649183995 -0.7170937843087586 0.49936968328727543 -0.3978057090998439
Ni 1.7928732775592668 5.916240275791771 7.605705788341838 0.15130967815199103 0.24427716891966317 -0.5743070560261142
Ni 4.50750803368886 2.7448364944456882 2.7514935992192084 0.4566356347538587 -1.2533086614488418 -0.2660073615079032
Ni 4.01244290927669 1.5203477627967306 11.98092818000644 -0.7119806314519093 -0.9490574259683913 -0.042036508245759864
P 8.97578884010819 3.2800415360215576 8.14501055916959 0.3895352415609356 -0.5705712431327657 1.142051628343362
P 7.792841327278623 0.9375629985562199 0.4375140341765025 -1.417297477730398 0.14367838685897835 0.5727818776308393
P 4.723704909528522 3.8038149061957314 10.628869370786424 1.4789355622571692 -0.2802759556117754 -0.5117911968800799
P 5.925357955643608 4.125441293446522 3.714939192501446 0.522210849551507 0.018691405761916195 -0.07487669470423233
P 7.713077761982271 4.364271034843574 12.311346813237712 0.35237303068834147 -0.1454208234713818 -0.6504978415560797
P 7.920765417899541 2.0023955323547122 4.790808820656479 -0.6224887579376635 -1.146312203391929 -0.336354286662582
P 4.594425612701113 8.518282287704496 11.363080451377163 0.4600554590686851 0.7350022891580632 0.6729248031010281
P 2.133343484443176 5.261353009912013 9.879922496995306 -0.5691903036248391 0.6449370596388505 -1.25270573775752
Ni 0.8335624460703036 3.9186294510640587 12.575365873804808 0.1617370441329021 0.5735858615893734 1.4644756780780972
Ni 5.270885548806653 5.418197385361254 12.234018009568125 0.4068449364839768 -0.7903540264554905 0.6738928234412523
Ni 2.1220500993890803 3.4798007746763613 7.972056746133797 -2.1204473982645546 0.7458428314169929 -0.26842625536204096
Ni 3.477689603102983 7.300993665220638 13.304409654540184 3.014280099431686 -0.790987032053799 0.4068323380784864
Ni 6.110375869644127 8.071543632234011 0.04748753176624013 -1.595544089482549 0.06034379119537994 0.122647277220292
Ni 6.673358028908151 5.2163177560432334 10.167405985023368 0.27545616562562886 -2.031467945610353 0.058782617355847146
Ni 2.5769384302781932 2.377492640677953 0.2522066407550051 -1.0185785127876652 -0.0305282504958442 -0.16665453603917751
Ni 5.257849755772783 1.6805478869477604 0.7361922629973712 0.06252074424204071 -0.0518663498519881 -1.989155557995387
Ni 5.4612597540042565 1.7934079847699915 10.012289267010157 -0.317927190305646 -3.278062685374129 1.5765498077682334
Ni 2.1626694092244625 7.852129294040162 1.6409869286260192 -2.1525923584282154 -1.0360699847042092 -1.170367701679236
Ni 6.080671962179396 3.4571218136697697 5.923362944602215 -0.49562667130507543 0.04420754775514967 -0.6388466304703966
Ni 6.770859123056812 1.505800039029088 2.4194828291725545 -1.3191016486842508 -0.1054388837618055 -0.17522170888289823
Ni 8.262083781048737 8.299089207666809 12.727567515610588 1.3532703241461597 1.2162850330366408 -0.022379653246780814
Ni 5.999571628856233 0.7950054466321468 5.630793284709381 0.237774591914455 1.9492121848332302 -0.04688483747699668
Ni 6.465771782979121 0.5761940369138391 11.892494982624479 -0.3020395725411121 -0.20601015501866457 0.9205726882651373
Ni 4.367082857244798 3.8858187103232225 0.5886158385643597 1.1479898482046682 0.9333747251258119 -0.17754007260342972
Ni 6.076053198169517 3.2586809048620977 8.721394509334134 1.4879783891857277 2.604939135998733 -2.866689779112811
Ni 7.779280046123868 1.9212214463128283 6.872438742550724 -0.351280311844795 1.7254575613469507 0.9708557527904055
Ni 0.8913642955496227 3.365023106167394 10.150161677477502 1.0008836666110634 1.0806503424177454 -0.8562786541727575
Ni 4.558655544121612 9.122077357690543 1.9521911348126013 0.48780768948128883 -1.0899356243744132 0.9838238829152992
Ni 4.1532184111346755 7.296301148492039 6.948283272756059 -1.1498441278045874 0.10932639174166978 0.9819629184471604
Ni 8.518300725884176 4.0157341243495965 6.17633108217801 0.8128169834446969 -0.7103551800333444 -0.40862799652632853
Ni 5.0058643731739405 8.045674866142754 4.928896957826082 -1.030391189151877 0.7818243917179245 -1.8289591188767276
Ni 3.084329477806549 9.12291629486599 9.957237472030133 0.1401811723389973 -0.8412551841807318 0.393183122726168
P 1.7086476727803173 1.9317219896406768 11.474385288743372 1.4506171749284502 -0.4586752908917068 0.8901269701807702
P 1.3164675909834127 0.4093902787103616 4.239226065979712 -0.06995457481226663 -1.7883477731132684 1.0874110581803467
P 5.783199590309609 5.037181621360684 7.383542317557678 0.19523697566256054 0.9985439627342931 1.3785509530898192
P 2.5866461318797955 2.9104666625125235 5.896606380159358 0.5339157966932611 -0.10332415141164787 -0.2626970661877476
P 3.1362974872350664 9.051366938617146 7.8575943704973605 0.6870689558118941 -0.40011147441488515 -0.6891528349241163
P 4.4160638815651305 0.8449056142095352 4.0059978435694905 0.599531892031174 0.10196455205995988 -0.6164011569826867
P 7.0540234674947975 7.325101585152441 4.152924322168777 -0.63140354392879 0.5802277923859233 -0.30108517904764276
P 3.0092215528794357 0.243410707138587 0.5118005381988644 1.160648417508943 0.5403263282052952 -1.0392995473851003
Ni 2.744375539953684 5.8888503598768995 2.973265258685165 -0.6283732417428984 -0.5847133389611028 -0.8067620354998686
Ni 2.2881135646783997 1.1255678976649242 2.457357615962546 0.31788476710348473 0.18614761176678266 -0.09665805224538192
Ni 8.409515465771259 8.475478053577016 5.241450838765253 1.1376195607139374 1.09478395360565 -0.4229647248639748
Ni 3.6311321344012364 6.624496852755738 10.910306979697364 -0.6724501774574548 0.38752875265386805 0.22580147871297887
Ni 2.198799022307727 3.44409523972574 2.448681530514049 -0.2343902488232544 1.7938411921276718 -0.24583448610445405
Ni 2.980568621656474 8.174917286610803 3.592570525418159 0.21973830323803448 0.7994343914902038 2.8413857531303837
Ni 8.379728586497968 5.9578183709705215 5.148739983697495 -0.4113713635994206 1.0016537120078686 1.3214205266254146
Ni 7.179320117511294 8.303588123508767 2.2783726743533737 0.4949705257783153 -0.40639345076885497 -0.8750654478619575
Ni 8.403495400105689 8.964255758718252 7.615003240445556 1.00047280432589 -0.34318133688674446 1.4188889905872337
Ni 5.279265701471283 8.370159171243968 8.956874955392287 -0.40357449326282113 0.2710742345078493 -0.4677530848232589
Ni 8.126590817669115 2.3135951289963743 10.294915216601481 -2.4430012887089347 -0.3093584748000285 -2.055072215292854
Ni 8.842029065618503 0.7445585870272418 2.886545890104474 1.3147688256368517 -0.152005418667435 0.6869396293228814
Ni 1.2918434020205651 6.517029922489953 13.099449927306592 -0.921809903106348 -0.08281446149407028 0.3743863017346391
Ni 1.2684822283658082 7.323008851758744 9.379937144335486 0.541489495275461 0.6462686339660806 0.028570098328208858
Ni 0.529897611554937 1.15357549259908 6.21716150917073 1.9674420775776955 -0.2512821394825866 -0.6975829679693405
Ni 4.17154596173675 5.830650245716489 8.824089638698696 0.5255075180249078 -0.9541790634656728 0.06536541277968742
Ni 3.12954911347213 2.183108131399915 9.53095136736986 0.5083428333201633 1.035664007515042 3.552038666909805
Ni 3.6194054521246573 4.785279210570401 6.708686503084312 1.393411929362052 -0.17895315090087244 -1.143736729355269
Ni 7.427700835982667 8.9343398121872 9.964443112649136 1.0802276530580301 0.7921548271096551 -0.9070646264763733
Ni 9.033352837069636 5.3321556198838085 8.91615331365968 0.17482627321669245 -1.040024598476583 -0.9235726514337256
Ni 1.6770999473475714 8.035165103725065 6.044314637577082 0.492786630753119 -0.6793253073107333 -0.38429121955317685
Ni 3.152255731748241 0.6386506048534133 5.814865320092308 0.5336337466764681 1.1628227994524427 -0.08643174653168341
Ni 5.990020651781912 5.916609039385373 5.377055353131939 -1.4680158300208717 -1.7603605438717231 0.16983370509810752
Ni 2.111780033307234 8.638038264727104 12.066339359738825 -0.38093027350074393 0.892407795795147 0.02763087434339112
P -0.003767842017639748 7.1057333424077935 7.008542931586742 -0.5787951737044549 -1.7196463539818125 0.653679581718171
P 3.3690887247868684 6.4898336074617236 5.0685228391810115 -0.23153889541738834 -0.25455258270374226 -0.5297315834085845
P 9.137353389555551 7.71417483367324 10.924137458275448 -1.244651757104792 -0.9755302754479391 0.3051032990681003
P 5.4759918595687 6.129127498378844 0.8572306154167352 0.4172920999592298 -0.15258905908504686 0.008909129564171753
P 6.603523423369562 0.8117233441481436 8.056158815108889 -2.9840670661834157 -1.3150447050060576 1.9906349707543909
P 0.42367064887264183 4.871966312336651 3.8360531414574988 0.8631761526235392 -2.400469843104627 -1.252346040425256
P 2.6109753099677606 4.978253199102907 0.5383127967609599 -2.0224148342691493 0.23814071700462214 0.17509803882084038
P 9.159977036023102 7.36405223972677 1.4483051852414435 0.4394138715589336 -0.032740941876446834 -0.332637242822311
