# total energy = -340894.5610049626 ev
CRYSTAL
PRIMVEC
9.08439827656765 0.00000000000000 0.00000000000000
0.00000000000000 9.08439827656765 0.00000000000000
0.00000000000000 0.00000000000000 13.29593514281391
PRIMCOORD
 96 1
Ni 6.179761916333434 2.0840518289686654 11.459221800198902 1.4617253690264695 -0.4143047351961316 -0.07760592070993731
Ni 4.750967741449203 0.4315225489462319 5.927102086800323 -0.4026974899745065 -0.6453440652692821 0.29362178079106205
Ni 2.845315327577031 1.6600011976778395 4.738564812361147 -0.25903427262417966 0.019550154217785685 1.0567308554876702
Ni 3.4119910132020532 4.379833730635873 5.0382291359156595 0.5719958913944342 -0.6644255073807653 -0.5658514690595932
Ni 5.112672146759417 4.6105592803161235 2.5151519533909137 0.4688026091336958 0.966931992255967 0.8695357762929798
Ni 7.280291356289883 6.1422524354833765 2.7637728594108406 0.7231279063179804 -0.20248208726074807 0.2282599675558004
Ni 5.1912431082203385 4.715029861516331 11.651361367822815 -0.11514659796787266 0.17890918503681444 -0.037689029910341544
Ni 5.704802316603829 7.872993843231305 12.545486009402422 -0.984653063684814 0.08265196777427701 0.6686950812903967
Ni 1.876119034786791 6.432299106488615 0.4956565845251211 0.9413042643855338 0.8536335032404266 -0.2815825902383408
Ni 2.5243726177316277 1.6162053131590395 0.33315395812795284 0.5154321360667768 -0.28219579834230757 0.10621561402682998
Ni 0.6424313920325573 9.033334962024464 4.711002747721023 0.6824486834310634 0.18369246535807074 0.29275943279076677
Ni 8.608575747661149 2.4243715605271157 1.2666730932184036 0.699199420526841 -0.7506127420018104 -0.001253155680810745
Ni 6.991289391096648 0.6151636618994665 4.911651671293651 0.34330269295595717 0.02543823756744651 -0.6824669382635085
Ni 0.9910079332651703 7.299786475181679 2.63376512596612 0.023846467600294415 1.0766311939560234 -0.3799977343841456
Ni 7.599389933267144 3.7968515499452535 3.6632300428308415 1.330241467351154 0.21156965138431305 0.5354448317432778
Ni 7.532437917315358 3.840347649318 12.453850774652455 0.8586803216357147 0.23773551114640346 1.241294924817417
Ni 7.9998120444099925 8.667615252636816 7.18025668681142 0.15105822426281726 0.18883390034969413 -0.28858601813936746
Ni 6.9779716630932125 0.6666485811946019 0.29908019673962766 -0.7838051695933792 -0.15844628919677228 0.14481584289753124
Ni 1.8892459904245562 6.5880692852573075 9.399827753712994 -0.9763100910367574 -0.40130678027456695 -1.180189315755348
Ni 0.14174659301227835 4.782481519378204 1.3992108316078429 -1.008464821392431 0.18531508856315826 0.47823238708802795
Ni 6.4887313891334575 2.0020469649256847 7.0994573224315065 0.3425976964691326 -0.03468263898384995 -0.36879929456516486
Ni 3.070326790685548 4.1043856878035685 0.2025820835447506 0.2216784576835408 -0.02110901406447332 -0.22851450676876772
Ni 6.0401256290614 5.709807820103074 4.847392271017321 0.25423787967680084 -0.46851284580741887 -0.3394349824704348
Ni 5.35431714327468 3.1216718102458585 9.094991682169155 0.2605769345209512 -0.34529452657500537 0.4507025570988754
P 0.1883059515137831 5.713432495050803 12.74266469279953 -1.0887608873400216 -1.2989125753308854 -1.9529194584814886
P 3.8386125292302404 5.958793010497447 12.892736228473709 1.2492774288022614 1.4788928819446916 -0.4608666421160708
P 2.326705193702469 8.542514002749158 1.2205497858384302 0.31583405522204316 0.06662036823271107 0.6897231056052895
P 6.581074298516076 7.731513423091129 5.810283991342088 -1.4641105814291944 -0.015888131985166188 -0.13362820171182793
P 4.543198466437903 1.092235384248989 12.67267485403441 1.772608508001141 0.9698897893327102 0.773383717149739
P 3.943828031096398 6.164781743429161 8.233667169327065 0.060695775218159984 1.8799716053688527 0.5435795450352703
P 4.72077120128316 1.3071449963753639 3.6966024886653703 0.4777775589387965 -1.3149583159398386 0.4641779658774909
P 0.20210606107041226 5.581826815933637 3.5558651723114694 -0.594591260196447 -1.694499936623172 0.7130887769144235
Ni 1.4241702161163272 1.012447113407126 2.60131020436648 0.2761169391380793 0.832165820284954 -0.720537776993301
Ni 1.8121648702955333 6.368944512289462 4.755078431709471 1.0562863117510841 0.1658703495749853 0.4508226276165075
Ni 5.8471730077838 5.864215339116981 9.410092215425873 0.12476895154898512 -0.7677877111192003 0.09024649229208329
Ni 8.627598477837953 2.4648243864475092 10.200840945808284 -0.18663535003647858 -0.041973259107992225 0.39089972600863
Ni 2.2796752633656454 5.247875247629216 7.0006826590063005 -0.5695286608008643 0.6263821794547987 0.08474947373325403
Ni 0.36378382409601717 9.03992115083926 9.24877237769586 1.0049506375915853 -0.2798838623796792 0.46764304160795594
Ni 1.4943835310812321 1.21786352924183 11.323111167932414 -0.40071414099589053 -0.5910644779901111 0.1435439181636431
Ni 4.220384370529261 6.90937537103732 1.696693991114862 -0.3080091598609857 0.12487230989606882 -0.18956537919907998
Ni 5.5634399936424 7.971995616615641 8.145582117458233 0.2261040975550622 0.10946394576079857 -0.39486848084839093
Ni 5.550776342321262 3.0530300961981394 4.6949142782161895 -0.5909711469453564 -0.31327632179719594 0.5874037413090722
Ni 1.051491857580908 7.492484733305053 6.863680847260186 -0.5675046883923 -0.21092121916703677 0.7889077809272671
Ni 5.024689748592112 4.79198380006824 7.065220950312444 0.3690353218353709 -1.2966847144416314 -0.3239222315468163
Ni 8.152584371718156 6.991289391096648 9.293672925055873 0.21207538737613799 0.21594669740608616 -0.22894208122448959
Ni 4.634460332415058 0.3773114017016893 10.517364095849 -0.051456516008079115 -0.8550447817656565 -0.5436340524222896
Ni 8.522855364686787 7.078817569345691 5.006092168258802 -1.086901722644096 -0.29460805596373135 -0.08656235857227673
Ni 7.141826956406964 6.020103615064421 7.180296658164227 0.49141443299594084 1.201903567503988 -0.8737135618197532
Ni 2.3613530890674777 5.14595738236964 2.471408758382632 0.5506261674694065 0.1391553021776442 1.054564958184603
Ni 2.4563577271711097 5.146402517889536 11.196267530438305 -0.18091644527483036 -0.7303707039233228 1.518690473557604
Ni 1.2257397026244892 3.257492650204494 3.939651933167899 -0.7378335879592712 0.5852293593655727 -0.42902301524291275
Ni 3.6698334920025313 2.912276427927181 2.6335925223971803 -0.8000758817289446 -1.127117118520717 -0.04052110004249796
Ni 0.9724212542098986 3.265332485993692 8.269154463101021 0.19163794545739252 0.2649961466345694 -0.3443743287535811
Ni 3.8453077308254193 2.625854431869673 7.005415630554588 -0.1433099477759661 -0.3806875613623185 0.025450321752304553
Ni 4.2446033765709785 6.846729359910656 5.9230468113700825 -0.39361789627074145 1.1278105450433158 0.8028166776988754
Ni 0.8243101317029363 7.492893531231489 11.711525521316096 0.6526467695782825 -0.18077452038032737 -0.9183862221367797
P 0.2192383279474098 5.642946648134941 7.912956111639976 0.2298975031592234 0.26199129836997465 0.9892231995539997
P 8.5572670656943 1.6048225620073995 8.064609241069544 0.08098383604323472 0.25977552166557843 -0.6889304345006652
P 1.7802877164319222 3.2067472009362885 10.44305280878154 0.47468246495324057 0.27787197415597303 -0.6672436935558508
P 3.855064374669682 6.168097548832472 3.8803126430461807 0.8761712793316265 0.17496177035329222 -1.3936363866680321
P 6.9455494453276865 4.061943378641189 10.411994159210636 -0.4342120156430199 0.5515098556259405 -0.6559002435185736
P 6.246332387553879 7.855488207581496 10.40381638380225 -0.9512199808373488 -0.6740907983846713 -1.1005774203589755
P 2.662319206907728 8.457611215627669 5.772948930940642 -0.5234521781577759 1.0262087756394132 0.6392790900221248
P 6.943369189720031 3.819153747931906 1.5764056554811066 -0.2821502898163528 0.8031123545624234 -0.7436612503846418
Ni 5.1574037243098365 3.1121695295558225 0.4311882430863912 0.7370020931969115 -0.9599691877848887 -0.0910425058308174
Ni 1.4769869082118061 0.8837638852440562 7.163118969295403 -0.052226047184251986 0.8391473938091097 -0.8261183285392935
Ni 7.033540927893358 0.6484752422649485 9.234678842072034 -1.4193741577537684 0.09659608865919493 0.7211841523280482
Ni 2.775719751700962 1.5923951050437573 9.147244233126152 0.22016356370091114 -0.19886557355408332 0.34015694823812387
Ni 6.531909534563422 1.8027988555809755 2.4772990822826504 -0.21104077546403657 -0.14499273479502772 0.4493486141741423
Ni 3.940512225693087 6.914135595780703 10.747171212854527 1.0020851431183322 0.3502477568152226 -0.06717058430922626
Ni 8.226122576484737 7.4005869594423315 0.4326726337792707 -1.0798748977043016 -1.7858268064636276 -0.040100210454995455
Ni 7.684374479973921 4.0202641589414885 8.283460573646593 0.12707086020928438 -0.7065779723790993 0.44476767967167913
Ni 3.1421389597627343 8.656268839078637 12.362973178726149 -0.8326116495731208 -1.3607756313842694 0.9758771172643969
Ni 9.179057796201207 4.950515635939964 10.393511950736562 -0.14671151725834733 -0.24423680260003103 0.02811321329644836
Ni 8.779525956098151 2.0756669292775527 5.682137651122403 0.18325152116591023 1.0226375133483872 0.7188781299026911
Ni 3.917401516251928 2.665789447083248 11.32533139489288 -1.9371429123735222 0.774211355257357 -0.22775114624018197
Ni 0.9502734909954546 3.2825746740909088 12.557213059252103 -0.6246531125788338 0.9629089871395029 -0.06866336680466885
Ni 3.105447074765548 8.296408566636565 8.115307451466249 0.4987523614182507 0.29012919425677125 -0.26357741191017187
Ni 5.4549086863729315 8.098386851071162 3.693943485263866 0.06184865787568057 -0.3011052336523008 0.3381319473882951
Ni 2.995861977285713 8.592241999400457 3.6495480304529604 0.4932255180627505 -0.9112910058528951 -0.6811788155797043
Ni 3.2110713745581405 4.321702665496732 8.947512833788412 0.21384276368920593 -1.2652419225513178 1.2248704607128067
Ni 7.344808753479786 6.285967617621402 11.522842567270155 0.18044876160979245 -1.3116135678373217 0.5752339387157577
Ni 0.4314189868048682 9.15870874386308 0.24730457669680472 1.202453012249555 1.4096481887152563 -0.18426659269398588
Ni 4.457587096243923 0.3683269317184714 1.6463954942462264 0.2873511172910019 0.03488267080979799 -0.699731124660595
Ni 6.180152545463139 5.736243419345909 0.614565908487034 -0.10923640313102477 -0.15984805464030533 -0.9028377328792193
Ni 7.906887733531998 -0.44623927429791327 11.365684292431256 0.7173012723338743 1.9683841297759905 0.5819319195612236
Ni 9.194501273422105 4.714412122427495 5.837340963433104 -0.6265248756802501 -0.33605835268871803 -0.0023420178696153216
Ni 8.207254281080145 8.776219235093206 2.4265481823754262 -0.34168392640561157 0.2846990243801355 0.5021482744736772
P 8.621275736575749 1.504185596917321 3.4896108381541344 -0.8577076733098002 1.0634509478203233 1.0628089433609502
P 1.7380180108384815 3.2242164989926367 1.6290315752109155 -0.7375361113235105 -1.103719308422067 0.09381286948710296
P 4.8122692616178115 1.0200780080339238 8.40446748519104 0.17684947429430833 0.5729744532576196 -1.3279467577797066
P 8.49693757615077 1.6194302745786981 12.269715470428151 -0.42924053057035755 -0.0905892203434827 0.4869309433032904
P 6.405282105750405 7.788654288808459 1.7185128991084846 -1.078194167567769 0.5931691830379396 -1.484084196337644
P 1.8628013067833555 3.2206554148334643 6.216567356310185 -0.09419287853434101 -0.9707061145864185 -1.025772459432943
P 6.9871923274339265 3.992802022683382 6.118935510199328 -0.03792454295991533 0.0020885070979125325 -0.6698937295841882
P 2.354576127887012 8.507620828628289 10.285509355451952 -0.14353363375099798 0.6880074084657635 -0.24283709403902692
