# total energy = -340851.7622315623 ev
CRYSTAL
PRIMVEC
9.36666841458160 0.00000000000000 0.00000000000000

0.00000000000000 9.36666841458160 0.00000000000000

0.00000000000000 0.00000000000000 13.70906602208717

PRIMCOORD
 96 1
Ni 2.451865945212078 3.952031550946864 8.083728914517613 -0.5927246393013533 0.4569331113896195 0.2667354979231793
Ni 9.140669393104504 4.883668486781024 13.912097092838076 -0.038682247061546285 -0.6933499037245995 -0.3058437767785507
Ni 5.357303439450762 2.5789341682852425 5.745661433302498 -0.25919650923365684 1.9624042580434717 -0.6318761126898343
Ni -0.17315410477481524 8.943847590698754 11.612154761879095 1.4262965959052145 -0.41853214301391795 0.8993333192703866
Ni 7.632869952650226 8.687332010787085 10.111930146133595 -2.7594326111953444 1.2230704313895904 0.012313270149714277
Ni 3.9735467881869537 7.533011901184575 11.976062004624374 -0.24181842296652548 0.15464517028312721 -0.23457433980960243
Ni 8.464770603707512 6.707574251300847 12.317075236545872 1.7575500710061216 -0.29781756403996446 1.1300227222032861
Ni 5.298771128822411 0.20826318781662156 11.076417861266162 -1.0885469715570029 -0.57029999174925 0.1748339865261763
Ni 9.054486677455367 0.44606041766272836 6.481728890291638 -0.22645016804057128 0.25088336138227113 0.1333546363354671
Ni 6.156973384655568 6.673826145172835 7.627601201693521 3.235566206772815 1.2827938153921519 0.12694821858849106
Ni 6.583419062089967 4.801785071912558 12.183507482292516 -0.7958983533124874 -1.3043612571502827 0.13857423286319362
Ni 1.143173774245214 4.824564809382258 6.125101422201561 -1.7496146182091288 0.39126739376069386 -0.9663432096320325
Ni 5.425221151783322 5.664183595174343 5.8773783338864405 -1.217265394672039 -0.8300374610880413 -1.8919375194814771
Ni 5.322759166511514 4.64319800978284 1.358691446712445 1.350841402989693 0.04503107209770955 -0.5486631302057648
Ni 8.514901012810238 0.42472127378794694 -0.08166891816285075 -1.591839129827136 -2.986660795052521 0.3796056411520494
Ni 1.3335606754825096 8.255921999117923 3.7251511730830495 -0.09100419639371425 -2.4835493853346264 0.01730892359209277
Ni 7.962511112506772 6.413142397837639 10.165327649162894 -1.6025989394468012 0.15202932992683493 -1.512532681486324
Ni 3.7333292112346914 1.183113248164127 9.194642946238405 0.5366295960799984 1.5236028232575567 -0.923131964351881
Ni 8.105156105075046 7.8128879520047265 0.9925858469013193 -0.7711980223523299 -1.794587326265077 0.24867709775957172
Ni 9.401512373801946 2.242033840443904 11.763392736007694 -3.8282576788433875 2.2168848498586984 -1.2688782337523246
Ni 9.407226041506107 0.6188201856992729 9.151363318379651 -2.312505719088817 -0.8203585432373807 -3.7473072671412497
Ni 8.920000053035162 4.273055375905333 7.704467828984368 0.21608502275616331 0.08817881112977717 1.9570972440082617
Ni 6.844655442858842 2.0016570301293948 10.353799066719041 1.5408158447017335 -0.3789546378316119 -0.20472074678327967
Ni 6.96692793172786 3.115747299093599 0.5346906437562865 2.1867108973784792 1.0491247610056385 0.5700431385434377
P 6.862761212813171 0.5649552859184348 7.905455925479972 3.9604555758665927 -1.0840277435304104 1.0293267524431045
P 2.5000855539678386 6.468705474593501 4.141124915282611 0.8676097629148607 -1.2633205371588887 2.1978540584794923
P 0.27983296414566083 6.23619666570767 8.24390550026929 -0.05979614622202605 -0.6142368023415163 -1.5750133165190485
P 7.150598931745677 0.7264197885706413 11.998216048647127 0.31925927885350824 -0.27530344209784846 -0.4096009019625591
P 3.8993440413798175 2.4927327192993705 3.851082282616403 -0.14940191960631688 0.38229398661749 0.5062306720731669
P 6.335399050387598 7.149418731531375 2.1860886036186495 -0.5787218972643581 0.8824442568245318 -1.471145633899105
P 1.4923350709795773 7.311433994283589 11.418267536672875 0.5453939725361898 -0.21014783133612197 1.3986978603513396
P 2.9633797047598844 9.463145051659932 0.9846073187859042 -0.9628498517667935 0.10571244913816634 0.6547746145545625
Ni 6.33516488367841 6.819496571623805 13.056157824082502 -1.6634890900639545 1.3283627622712024 1.1132326472291407
Ni 2.3117780531081227 4.383984829381339 0.8531854682555369 -0.3652066921179 0.9177341903750775 0.7546084934247649
Ni 4.1664345898783655 6.547319922201718 1.0271657131803633 -0.40035624343583953 0.9906681595306424 0.009562961098086757
Ni 0.03426046288771309 5.598157949852013 2.8634944899559684 -0.02237245415792921 1.1386078927691359 -1.1429679695100443
Ni 4.140966618587201 5.187710541989261 12.667752996888929 -0.004823903751204596 1.062094948013061 3.225617837310851
Ni 7.702960732044041 4.768027599116178 4.216757952349462 -0.6348657914457776 -0.6465110889941897 -0.2860226282875655
Ni 0.7086783820158069 7.916202304097975 9.564555160074072 1.0547876157183704 -1.0807716984869582 0.3023722732901825
Ni 4.581630898603427 5.3759712095071395 8.047715011311507 -3.373401504587455 -0.4160659408616125 0.7148363557331495
Ni 6.3687537564441765 8.763333157920776 3.8099691651510454 0.7048897860433989 -1.765307089243721 -2.1411481211470154
Ni 1.2376834580730363 2.4923580525646716 6.451088644727954 -1.4207178162658565 -0.5712525854705064 0.11340210447294019
Ni 6.906887587492346 4.226081534042446 9.522207515717882 -0.2442972235243212 0.4220676669710021 0.09811381085530199
Ni 8.489423674850707 9.132023958201325 3.1223770269640974 -1.6309373813801784 0.21056872092362447 0.34216960779277844
Ni 1.6605604348594272 7.070242283821109 0.0028409105158551493 0.049232768883882956 1.498357932647839 1.16190980071987
Ni 3.522035906201192 8.147071946019498 7.499791138485653 -0.49009828528767846 0.41931452970589717 -0.4741718438654091
Ni 1.7551731520392917 2.105046315569583 1.539980502964412 0.7567785044928902 -0.9358288430932593 -0.5213832114438891
Ni 4.899095389582255 2.7270773951852263 11.464110821663807 -0.23497080391707276 1.4657735709539144 -1.4275806048239608
Ni 6.86614258009383 8.6245472327199 5.9612502924493205 0.44773936070549336 -1.097241414007207 1.6977318132969081
Ni 2.688608488200007 2.7439842315885183 10.697828365854866 -0.3167843349504545 2.851959414881172 0.04549078534294746
Ni 1.5234792433014315 5.283091325975257 12.436426261551073 0.607461945511528 -1.3955850257539706 -2.1171779834846634
Ni 7.6474444886300175 2.6251212100052617 6.865006403220856 0.1686952206182901 -0.7310957550148054 -0.170986330645312
Ni 8.331679612874062 7.941323708659544 8.049853421699803 -2.0242380035208174 0.4615950356416631 -1.375360728287296
Ni 0.5010839743206231 5.295736328271349 10.082908460863809 1.5002782895990034 -1.97182169470263 0.6128741176660348
Ni 7.1118115580359635 1.4784630351273471 4.952784195997785 1.3995298693343314 -0.7602438373336714 -1.6924050017673562
Ni 1.528022077459657 0.89845551314238 10.620988901902285 1.9340015385310632 -1.835051862038027 0.6647060147356616
P 0.8279685236766208 0.8987852198689151 3.6327517996384193 1.738394324013277 0.5506079126369614 1.112691172903374
P 5.977320685367398 7.0198870746775635 10.803031974957834 -0.8406923696987263 0.5689619896641168 0.3204296450125256
P 2.2160975357343657 6.317049747055714 2.078403764065137 -0.6926230528609039 -0.4135688854713716 -1.9246998015141625
P 4.6329977079306595 8.157394014560456 5.425513391836388 -0.04577052136689537 -1.1291441762530747 1.0936130732260003
P 8.627806833311782 7.574272075343304 4.605410059587936 -0.2426216355941112 -0.6787951458388761 1.0794028431638893
P 3.284647063095907 3.363748577459233 12.909868260852441 -0.8309136930454079 -1.590829714726015 0.21223222466897643
P 6.393125827536346 0.8765674825012646 1.1680478987618805 1.2382980469726221 -0.6246965642222596 2.3705380885422014
P 1.7337141148094066 0.44334783050350757 7.582073573426572 0.30190047586008656 0.0055366135475130454 0.24209455944604752
Ni 5.734302474573261 2.381072665690702 8.297617723355739 -0.45517370549635155 2.0525857014255746 0.5606275016564926
Ni 3.417494520551804 2.025176734400124 6.8230427922677315 -1.141015216659048 -0.5075658459448226 1.2429378597374787
Ni 3.910958710155487 2.8037342091046416 1.6176564104022084 0.5112723482621324 -0.9234474387097709 -0.8179249940952236
Ni 7.852518325867513 5.951871447412969 6.237830212670958 1.1445736234342676 0.7517319432079181 -0.4770064851007268
Ni 3.0873662939401503 8.61264219722484 9.833032912157845 0.1364831546621198 -1.7947930145179798 1.0195673590634957
Ni 0.9561588736202093 7.707372432845122 6.870462487544909 0.5261189263566617 0.40270108951893224 -0.9280689966421822
Ni 1.5977288234504055 1.4382050944839395 12.86568381282939 2.708839214518509 -0.9162570916089188 3.193337894231223
Ni 4.2005105293992395 8.340371881119077 2.788191159615653 -0.9275324074124219 -0.48811853585348836 -0.7781749678907953
Ni 4.599727301889389 5.095683025278819 10.65774277190942 1.179459379567859 1.8232504985277245 -1.8948382380680397
Ni 5.049383583538391 0.6046043931179561 7.144192130582324 -1.4244672560059597 -2.637908906056534 -2.200226672476727
Ni 4.048517601800223 4.533514323199708 3.328026914306194 -1.7613553036848246 -1.0057949878697519 -0.09963513259583485
Ni 1.5579485828937394 3.958766185503079 3.561519223370609 0.28799080775752983 -0.5311603454353111 0.1846237189230885
Ni 2.6100877072754645 6.239624866330166 9.892681729655598 0.810121953111037 -0.31514551379545075 -0.5953296810243682
Ni 3.1464044046603448 3.899962241492071 5.609791351964417 1.1259580652156091 0.27822447239938536 -0.8025341134614501
Ni 2.7517117329916854 6.282177640723606 6.325664271953281 2.1327082179097787 -0.09097719981052073 -0.5419067853185376
Ni 4.935363129501118 8.787826995701723 0.30216591153423134 -0.2860041163448042 -0.21614004436381487 -0.06558884164440316
Ni 6.013344891908706 2.4914963190748645 2.651511798130622 0.31204476338294 -0.5771612376454576 1.1672864916507508
Ni 4.689853384921233 0.5932585477244338 4.364706352547401 -1.4077692265249884 2.4356309643867924 0.9200872639882863
Ni 5.217964880816204 6.227195297406527 3.6826527253661423 0.7473171019696743 2.300440046173535 0.4352137174346569
Ni 5.518728602095825 8.212825957959172 8.851916550672497 -0.7682325119661029 1.9133887473767175 2.2937711187937913
Ni 2.194320031779987 0.1490115170576486 5.441457334731504 0.6162970273046547 0.8826399177751058 0.1029739671610807
Ni 9.167130231242622 2.202253599887238 2.4787220567553017 -3.0102339543867704 1.8788958558061706 0.29907071972077526
Ni 5.533190738055207 1.7365522153247515 13.273089863473222 -1.7584065054691456 -0.991889433532253 -0.9174729662938907
Ni 0.7273349120701436 8.938405556377251 1.5929527592498298 2.3767750705908486 0.9202155620360346 -1.913047304876899
P 7.529518133883507 5.2764316247659835 1.4416183084370475 -0.5290003616695148 -0.08544187181458833 1.0323871365359831
P 8.388741356568719 4.394363097932501 11.363334836698144 1.1989426851034513 -0.6078285848223273 -0.08358656377340443
P 9.130759457971715 3.329644537933257 5.087831883853202 -0.7329718889915958 0.176137021608316 -0.41745999299566167
P 4.21623716558823 3.7073554398516837 9.240870264632406 -0.771976038168935 -3.0070817819110345 0.2764031029199304
P 9.084947082986396 2.225426737428371 0.20585501737934375 1.6756074705940431 4.745143405175241 2.0705307159397695
P 6.349664486311261 4.397304231799888 7.343384636751883 1.8224503712239322 -0.7238457583206115 -0.5753262413192479
P 0.3390378015627964 2.5047969881566785 9.692419549958473 0.771052240803085 3.5375067918422176 -0.9377119190485851
P 3.3512347085202867 0.4778059300937744 12.138994264209764 1.4419078200799103 -1.068088960812967 -0.9168674714994081
