# total energy = -340873.52051668736 ev
CRYSTAL
PRIMVEC
9.18501923288259 0.00000000000000 0.00000000000000
0.00000000000000 9.18501923288259 0.00000000000000
0.00000000000000 0.00000000000000 13.44320408329391
PRIMCOORD
 96 1
Ni 2.809201411205301 3.5485862794089575 7.932216647470032 0.3326639822951884 0.5194417714468021 -1.0291835419970212
Ni 3.1976818022744276 1.3618628108244346 10.037784959574347 -0.20682905137553412 1.1805760096708056 0.794090096459155
Ni 1.6389013627910265 7.138799066261472 12.426884713784675 2.0351433375794112 0.6994848129777438 1.6863665088827604
Ni 3.869556778662076 6.795885555913328 0.2704097235416105 -0.8973165459506739 0.29768412378589376 -1.2104134047472124
Ni 8.33399051696437 6.115523621697382 5.977816301419737 -2.4437571930383526 0.13818085407951686 -0.13405217662312396
Ni 6.657706125643936 5.88801987878708 8.054052254406445 -0.2178662830263022 0.1874645308059933 -0.24495311194076522
Ni 4.2389966247333 6.671125438833485 11.110364669210433 0.8132574134162252 -0.5115865370684415 0.5761981024012399
Ni 6.495177209224307 2.462825148583056 11.970031039085839 1.494813152719374 2.324932117777628 -0.7004304647204647
Ni 9.23002588923905 7.298930692645187 4.0901616535801315 0.7113548249424523 0.11028747010335845 0.015120400581206218
Ni 8.354748660570381 2.857946308602248 3.6017298825461337 1.2654129009115433 0.4643597428709938 0.29772191900236467
Ni 4.449700967353604 1.9328495352791522 12.458193689054502 -1.4325682878465393 -1.3565011723786315 0.18971553162369906
Ni 8.988919132753306 1.5357352260730115 7.846179653234694 0.042089472970882356 -0.36274126129654305 -0.6127260221239447
Ni 0.34960204139854173 8.91241710704779 6.1363929040368586 1.185859883777564 0.8845232508407476 -1.1627690633963714
Ni 5.992269847781869 6.089952527980952 0.928022201968456 1.2684912827265509 0.3074458311583479 -1.0884991490382028
Ni 5.5482200899798375 7.060111005963821 5.82456425448775 1.0728362456899652 -0.26734742047556537 1.4136323701739846
Ni 0.409397435508936 -0.04801193285722995 13.249487693802129 1.4759235149037226 1.3279544710891904 0.15917159739857104
Ni 3.9573931181772446 6.1430970496200565 4.3735048027906025 -1.138920796023864 0.2259889121334366 -0.5602063549586739
Ni 2.2268344478444564 5.921701344540727 8.976148281925962 -2.2201018141340993 0.09032851048292831 2.2928907730713672
Ni 5.069956135305066 8.487104788606937 3.8393252061555163 -0.38979106632548355 -1.4953361151023796 0.1575721141219351
Ni 3.958118734701525 1.8644578816108526 2.0231621559961703 1.4077897953502787 0.26552887920958784 0.17611311034891605
Ni 1.556897510527989 8.42767771377026 8.160374363754116 -0.10056587194022035 1.164489388521588 1.159976331142583
Ni 4.039250010131567 1.2581639429873273 7.642017799858001 -1.32440274918219 0.06661933979144656 1.195756831176302
Ni 6.976288519880433 2.16181369625731 5.4629684148941955 -0.8226622516698928 -0.4253239691247707 -0.1131431943845987
Ni 2.830510655968993 9.070932170035638 0.7873995565666748 0.5864192659086159 -0.9491250459815331 0.16288169926030657
P 1.8683431447725087 1.6255830848137185 8.346589607930904 0.5384612499720984 -0.2589067459073799 0.29024746500219045
P 8.677041802601936 3.6834499177129647 11.062197509527122 -1.5681173607301637 -0.5622753216725608 1.2593384125826892
P 2.3498034861618335 1.537985555800212 12.654438055799167 -1.025716409384027 -0.5985309615704852 -1.1699223866117012
P 5.313882692714282 8.597710790953654 8.009689529714995 -0.3467896230632931 -0.9474918812534843 -0.19611963537782998
P 4.637690757258128 5.7777077970577935 9.183778398588332 0.6814590658242844 -0.597014782036275 0.061320296176036335
P 6.982819068598962 6.255889086558911 12.017552491912731 -0.5215259076693405 0.2930962473048952 0.15192314336627383
P 5.355426534984189 8.72826665520845 12.62318235364125 -0.1607386847753748 0.16394562174844668 -0.6224908148201924
P 5.328927754318993 3.229507894130546 0.6617567591326118 2.471805100314504 -0.7379400316301484 0.09672901469263341
Ni 4.478698073266957 3.046698455108231 6.084851168264677 -0.5846387769694255 -0.3635012793910191 -0.5920489533905674
Ni 3.522932520518874 6.13952407711442 7.380252097974628 2.262726333672845 0.677655118697162 -2.8295471086242427
Ni 1.4179373536185478 3.487037465115206 11.99842285222767 1.5447064380053912 -0.11173448696253013 0.09204934982877695
Ni 8.8028030867849 7.4579968567907144 11.518298931145722 -1.744184705442809 1.6792358113752501 -0.12147768239222305
Ni 7.569310105623124 8.074724977333014 0.18776751243759188 -0.7664396817317382 -2.4745793206255313 0.5701369838088245
Ni 6.179377875834102 5.75127331152766 3.375427540159578 0.4952096383723149 0.5093509628697035 0.8186580156065062
Ni 6.7793708912214665 4.519148898240793 10.226797042126371 -1.002194415002687 1.7724421576266054 0.97684719448715
Ni 8.96533200320453 6.64583908071519 8.997173709593449 -0.5131525960039808 2.3429385816573776 0.7786004854639881
Ni 6.789997958545428 7.67711467708496 10.243170257521095 -0.3317707810569577 -0.5379411158025703 -0.6038762850427987
Ni 1.6859929567149279 1.67267467873762 3.80759923100971 -0.026068157841961554 0.4024236674878295 -0.17476225274797644
Ni 0.8041466022466923 3.6290929735269595 9.41393936758059 0.6143003085896002 -0.6205234066811764 -1.3073617345395034
Ni 1.1939331030595248 8.898024181813005 2.6444533941240738 0.7721722133401411 -0.933335130137128 -1.7869629769506
Ni 6.69869886675616 0.9340980922318968 3.070441729985017 -1.3401651542227693 3.2514296561676326 -0.4946874473202576
Ni 6.407864415808936 1.2182642191711721 7.82805852866819 1.0110996879121168 1.38747010995632 0.801714188663316
Ni 7.234029346308871 8.051992054578644 2.8015236535768655 0.6938571823783212 -2.0226655168273746 0.05591403755880047
Ni 7.803950608525405 3.6271365644171896 7.068840448301499 -1.4098307370397074 -0.3556738129268004 0.4426454911223538
Ni 0.7355198120844488 4.260866155673969 6.046457787612852 0.5102752744561858 -1.596531650206799 0.10493828997630315
Ni 5.283618054138262 4.766721908310004 12.50689817236655 -1.080917480036203 -0.2584766003484968 -1.0809467906122414
Ni 3.3265292529404102 3.690311127126102 0.3314083551796098 -1.8199252908092334 -0.16465216089716805 -2.5344667410097834
Ni 7.56867633929179 0.5186477290077568 12.095160393941327 0.6917499062273312 -2.0120682009275024 -4.024916217443823
Ni 5.681852935698355 0.6152897465207496 10.48787662306843 -0.563697398831068 -0.43798459531157474 -0.2012934662692856
Ni 8.799147449105613 2.2521942861171094 12.892947288828374 0.10655474253380358 0.7418702199224901 1.386546055480154
Ni 7.5962681372530545 4.4552762740654845 13.075277269843506 0.600899718912978 -0.037065023173097456 -0.12980240020783454
Ni 7.739627918404655 8.398386687239478 7.3437673643322405 -1.5293739214133788 -1.0432927277048936 1.1954953499847993
P 0.42372514710673076 7.429266116436908 1.0775019614761117 1.2702825702990188 -0.031470816914771604 0.05074509176335131
P 4.552931399206682 6.945243154664364 2.3156995095206305 -0.7948447152369924 -0.25867226129907067 1.0485300648444327
P 9.10209694050254 2.0827490501685753 5.550510833791933 1.2295940914407213 -0.23113368955916969 0.33286170012829125
P 2.8897540304197764 5.305423289943868 12.20821695943587 -0.4146754882719891 -0.6431228892482472 0.1753662048805625
P 2.0302474798800985 4.035750517780288 1.9464277493024997 0.8121662372345754 0.7225998017286523 2.481421797468662
P 7.340832750667585 8.278366040115698 5.090699582880206 -0.32406235666910643 -0.5610136813513177 0.1778519474168937
P 8.757750567144422 1.1956874417448116 1.5954396884923885 -0.4397180330629136 0.8699895760009468 0.7199217406758569
P 2.283322316506831 8.192036043764858 4.396371826826676 -0.6825404718139213 -0.46543214999956617 0.27080838244097233
Ni 5.459970424596408 3.6357612975349083 8.198418713672742 -0.06742743751503873 -0.013217270021222399 0.6531100823679462
Ni 8.104309924481226 6.154872244355856 1.7444032499156823 0.9738019799029227 -1.6889568953177558 0.5363442036290956
Ni 7.499375368713316 2.4964606892402292 9.56505497902463 0.5244747058850194 -1.109610477095521 0.09013773462836089
Ni 3.5311347427490367 8.273543904985983 9.558655776082016 0.857749325181013 -0.26636628750921865 -1.439757863616443
Ni 4.400542744088397 4.745210593121828 2.015593700097342 -0.5406289470473786 -0.10663650361433248 1.5425312847309434
Ni 3.3989531300790805 4.144335815882172 10.278055879304276 0.544294568824424 0.2501043171244015 0.4274469290050445
Ni 7.035642114562752 3.749040140496382 2.0289294296113094 -1.7053363651170437 0.6215914429343746 -1.1858979361043511
Ni 0.6847744174851177 5.58246184191046 10.933452012575312 0.8933452200077519 -1.6788984826404891 -0.09069386424214702
Ni 0.07259471849755177 3.837298990899107 1.3742855494205095 -1.020483443119862 -2.351999920528698 1.2616439207874142
Ni 3.231859259069988 8.372916628735288 6.311422631716567 0.2600130915976812 0.19608569681610102 -0.14317239375683732
Ni 0.552312661726673 1.148210077010533 10.92822298109084 0.39075008780464315 -0.23757713119166826 -0.8484367895308356
Ni 3.184032863602511 3.6045414169522396 3.935807404332782 -0.6269799609397976 -0.043920612642350164 -0.27240658016602765
Ni 6.570512737479396 0.9541030642557425 0.5020191700766408 0.599643992129006 4.751801019701074 1.012547733212553
Ni 0.7841342822074108 5.431928560689703 0.13768252072554926 0.5873515479148981 0.28130928197229615 -0.36612740415995654
Ni 1.243715907636772 6.811959339679045 6.525599830132196 1.4143054849816092 -1.3321353419397575 -0.3152301030894571
Ni 5.57524241674483 3.4795333043514405 3.920697129091079 0.5150451850410033 -0.6728343002697509 0.3471991997968859
Ni 2.2179709042250755 6.294695793078998 2.1572717042160834 0.2442131484509472 0.9197131684783193 -0.49918147853586936
Ni 5.434316665706324 8.670841914578016 1.4181908601510813 -2.849139943154506 -1.821490321303508 0.3994087919209056
Ni 1.3168929563576075 5.312504939820078 4.070105245448236 0.3678911809285987 -0.7696874992450745 -0.39907274873772564
Ni 1.808218008469435 1.8891012883785194 1.227574154728275 -2.512833221900408 0.7670480047396983 0.6526056319277019
Ni 2.153446143679843 1.5428995411228736 6.077793399438634 -0.32192217039765203 0.48619303669600133 0.9234654364318999
Ni 3.2338340382183475 8.761635830306078 11.919564869073065 0.6020402602753245 1.3814395874915242 -0.5243289243357744
Ni 8.707187035927126 0.38811666430505704 4.022098823602582 -0.2580850213370329 1.920917708763911 0.3302322329252442
Ni 5.3278714771001034 0.5504095257288122 5.890623831757126 0.18723955927938074 -0.8984329189433043 -0.8623150901748246
P 5.887018711683958 4.7055313097687455 5.9489000236761775 0.7073840132201624 0.5258949832713136 -0.003963612633438335
P 8.033355650429709 0.29201380742466276 9.468639831488217 -0.6630993323701742 -0.4552097009406096 0.5571629401466598
P 9.071097500382942 5.0506216696897335 7.855832190011489 0.8947310446116848 -0.36375941814841223 -0.22882638158223173
P 5.114025857881013 2.664390397005139 10.205704563818031 0.19643639528730042 0.6129587069600411 -0.16965681320061102
P 8.259049944538953 5.350879950433314 3.8272937493813957 0.5276775290930331 -1.4541370151562505 -0.08879998965354384
P 1.545397866371031 7.759880885949457 10.443770160415305 0.06658308723687242 0.3811755567423306 -1.9217286347009805
P 4.616537657822445 1.3301193841419683 3.9739592189771566 -0.34307309344365433 2.2242929693973115 0.6471489796885048
P 2.845133206686148 4.818874447865283 5.800245078901186 -0.25946724639654023 -0.8944004007451435 0.0878535665798745
