# total energy = -381174.6454324386 ev
CRYSTAL
PRIMVEC
9.15093230368563 0.00000000000000 0.00000000000000
0.00000000000000 9.15093230368563 0.00000000000000
0.00000000000000 0.00000000000000 13.39331441685868
PRIMCOORD
 96 1
Ni 7.7525234676130985 1.0677582387905096 2.3641076826478313 1.3575589242191846 -0.9656132734445434 0.08272858664848333
Ni 8.35093953737019 5.508797215054595 2.1563238675466687 -0.8603870199141762 0.1526458804649113 -0.8547784154781471
Ni 8.462004403239256 4.634782515868592 10.117430026654633 -0.13490372599014186 1.848530613250752 -0.23941855527578124
Ni 6.203362130958698 0.03897016048364599 11.398648403879797 1.3171509527157832 -1.519400355140435 0.7485712860917495
Ni 4.096039675932066 8.093249282540087 0.27915285155164005 -0.44677159747558537 -1.5792870041937381 0.6101034968994332
Ni 4.934191871258724 3.267358695582296 12.754574077674826 0.36724609114543205 0.08011454606440396 0.12333864686036178
Ni 6.323623683834309 1.4880331085910097 6.345136610683744 0.8810643457578697 1.1389794171759415 -0.2971141102150367
Ni 6.152089457030677 6.555682177166573 1.8284020371565506 -0.9950477766555766 0.1960533009162688 0.6476336326344072
Ni 4.502899278915061 4.477743365899154 2.9828918976180194 0.7262438262391427 0.19083267594727782 -0.6510740257745239
Ni 4.863656484744859 -0.3165508818584461 2.509076752854453 0.45387426995863767 -0.20591553842232924 1.0577045322548493
Ni 3.945717310303725 0.20604971342181935 9.027549408920523 0.37406954182516866 0.6696386761505886 -0.9223655184995018
Ni 3.532580167732184 8.717086642351084 11.30098416333648 2.5465689235899562 -1.1310107971481682 1.1634414068730479
Ni 9.413930140409049 6.638379152766701 8.776344419843195 -1.571626659435003 -0.4038624568168851 0.9079639983621912
Ni 1.1507571951580176 3.8672114617175235 8.114955294061998 0.48465808810871375 0.7662383643542094 1.8294154896878558
Ni 4.4283283312371315 7.749384697818825 5.5202148333412255 -0.5660885247710638 -0.5843806382120323 -4.493789274804138
Ni 2.17085737829671 6.185490360089267 7.432312212816725 -0.8282163487189027 -0.32978151854107074 0.1403637206634486
Ni 1.1457150314360225 3.5172157523252325 10.739255096443003 1.4130520721904825 -0.21176685499678366 -0.07895292165613499
Ni 0.9060667548169656 9.313635921909832 1.5422935619296136 -1.5925937486049733 -0.3796922873285848 -1.0388979410713075
Ni 8.019703239284777 6.5161593003693 13.393849975444768 -1.1882106433979276 0.8714851867098669 -0.30287955194390415
Ni 3.9455342916568283 0.9446415950233156 5.872030663176901 -0.3196261752746237 0.7891882882821635 -0.13496388980411594
Ni 4.461042914369859 6.209722028938347 7.066352701948897 1.5725134329153303 -0.2460985383991181 1.9112945838518505
Ni 3.3153553357308714 5.726772423508182 1.1493388006445706 -0.6519643987992771 -0.48354814287398656 0.6474438852211043
Ni 6.7870177468435955 2.4163951949728926 3.8955390878841447 0.3796760893786687 -0.8211339879508245 0.43033119253137503
Ni 2.160919465770237 0.7516420262184424 10.149279846680775 -3.51584216238459 0.7147430246883949 0.9173151005597879
P 0.36122115809967986 2.169951435994573 0.6213437307470344 -0.0044788617069600285 -0.4804247667536565 -0.9078357003144429
Ni 3.3757606401390214 6.589165438616265 3.329510912975072 1.4539732358848765 0.6817233752292646 0.7399403498896289
P 1.1645201974046253 4.837814251803089 5.191624069796701 1.5709926253954298 0.7776921147171058 1.3203987702291196
Ni 9.121731719706634 3.8670558958676615 3.8231350809854683 -0.9328304225865677 -0.6381238933717591 -0.9485642883820568
P 5.420527321656471 4.286699351336369 7.212647742252283 1.0082503913887797 -0.5172553053184445 -0.707729055264407
P 8.441817446486587 8.55990107746413 12.10222607305031 -0.2577785458402077 -0.6306018739631011 -0.19348682574067322
P 2.3991548384352535 7.752029317266478 1.763979473449025 0.7317102486703528 0.35063265095846713 0.028767816161311743
Ni 4.949144494710157 2.2127869503006705 8.018939136433984 -1.6612332041502422 0.433252479943228 -1.1211876404101595
Ni 2.0317357538584275 7.234004188158623 5.319891773380793 -0.48120972454879707 -0.10683936365375793 -0.5468016515169938
Ni 0.21418123190342547 8.37739488277906 3.6267752898235774 1.0781903109130269 1.3281010239693836 1.5844384664876907
Ni 1.254245089045575 8.578047376303905 7.8753363004264445 1.0081447190488506 0.041321741566922386 0.32700164180308844
Ni 5.755021351656638 1.9471353843305763 1.5070826044532193 -1.1498875794480132 0.8318590876778125 0.7797068311542893
Ni 2.953344452169834 3.2037963195151833 6.511923333786883 -0.38192220510036806 0.04043805341038842 -0.22356410474202787
Ni 6.69053946713217 6.471813882226307 6.130602152791808 0.16597705035617868 0.36937419323202836 -0.41880853660375617
Ni 1.2685937509622511 1.724465747584097 3.1978546191436927 -0.6650230317554483 1.372759800329339 0.552416683710926
Ni 3.528013852492119 5.219874828131626 5.315096684832109 -1.0466883836500038 -0.2918546615883103 -0.6743211692279226
Ni 6.877309996289925 4.612765372646957 11.866035018671127 -0.9837220672301124 0.7611138986434505 0.18546884053220314
Ni 7.890592734831727 3.1638524998300492 1.719272593478412 -0.7014082552527017 2.1388433842732386 -0.420759746792856
Ni 6.953958205610127 5.816350900231615 8.459886877494665 -0.01810750823398817 0.15406281541709596 -0.35866143480021456
Ni 8.942135521507218 5.313104526860641 6.945879762536122 -0.10386793973025983 0.32973395313258697 -0.6687760710399773
Ni 6.650824420755655 1.1227644931152163 9.038987159258312 -0.07366004868831184 -0.9334240903065085 -0.42276263615549764
Ni 3.994702251145541 4.618576214685918 11.094391799626614 -0.18570512491272534 0.8980086869216922 -0.8444767764418231
Ni 7.88792066258704 8.058695362006052 2.118688828092132 -0.26981002308344504 -2.3767650432885197 -0.6188866424087018
Ni 0.41107177714131554 2.812136415156933 6.15408069990891 0.9101160117081873 0.07402951621258863 -0.9009076057360419
Ni 8.46030232982312 1.048980525618941 7.218822791398567 0.2092991101825815 -0.8598568584423191 2.3321252930919583
Ni 7.805406705633807 3.46935637616183 8.339736050900427 -0.31815216183225853 -0.8537373758081426 -2.408664205989962
Ni 7.3139284312582715 1.6532165883473364 13.081236739774297 0.7337000254068718 0.6175758940170784 -0.4764940642406826
Ni 0.3438041885677859 6.261040457528092 11.510107674932925 0.5060501806312446 -0.7899668183194007 1.1333044782783515
Ni 7.377225430287384 2.693549482900424 10.62472843286789 1.1519778863181387 -0.5685950932430014 1.0644534209429086
Ni 2.0284871728760168 1.7052396387276323 8.126112110776802 -0.5935265663773585 -0.38264391375774104 -1.7471851828320295
Ni 1.1108774319992967 6.523900989133016 0.5457295767817955 -0.3425814985192165 -0.5581397022376323 -0.2409061955649012
Ni 5.6997771730909665 3.9314967614398766 9.412499849683552 0.2479165654444634 0.05376510953659773 1.3096636431998026
P 5.460059349386088 1.8742848119334727 10.901394976101445 -2.150934768220134 1.6653104595434096 -0.06947969205837712
Ni 8.963008798185749 4.1370724565662345 12.790293826989593 0.28656461683396456 -0.4800547850087474 0.19291861194202903
P 8.35620132346846 1.0264234773889624 5.145042163788635 -0.23196878386595535 0.402498743700139 -2.184013038831342
Ni 4.9938284973499085 3.3170391072823184 5.0502037311534 -0.19171199322843757 -0.1520262446030414 0.9199011161194093
P 3.311832226778116 8.17977134786035 7.276279665405217 -1.891365191917775 0.10027353751078215 0.3844022912097444
P 1.871695098079889 5.509941081597698 10.000894733429833 0.47058926872047346 -0.28017928213291105 -0.5048019100464403
P 3.9506954174993067 1.747919587183868 3.747128352022637 -0.026580321591689708 0.029850507702529235 -0.6801717144714287
Ni 3.0601083798368363 0.9130415954501867 1.5222575955606326 0.8524348549466351 0.07341013746103486 -0.48510263184530006
Ni 2.481815210306003 1.9797584581398562 12.199581927173606 0.41151817358993 -0.5985672141250594 0.8631612402252038
Ni 7.36198912793326 6.808284513612954 10.7231833139658 0.4584549473507846 0.35658218367368266 0.9210812524704395
Ni 4.585861631553191 0.9589078985488884 12.981456803672861 0.22187848950948885 1.46360150300326 -0.5771828349120125
Ni 1.5158976975809832 8.814141430800236 12.548088779873394 -0.18626691095346629 -0.5834205882916081 0.52167271765985
Ni 3.6743281097534295 6.971930636735352 9.415299119887834 -0.5434317066034963 -1.2887112093178517 0.47394224435310633
Ni 2.421153679792198 4.000174508687743 3.4217642072228953 -0.6559943458942767 -0.31105437444521267 1.4194929427198197
Ni 9.09715231542845 8.143734976286453 5.9420105880974345 -2.805383366893846 -1.14119570810097 1.6468777067595186
Ni 6.379682295378669 8.918617625381032 0.6704723412266639 0.15220005117674434 -0.8479079136105591 -0.7285359647074292
Ni 6.578971299984137 4.853023101360179 3.6416153568071703 1.4423618768981934 0.31998381572435863 0.6079630535176627
Ni 2.9671074544164417 6.481962266196712 12.311844650086611 -0.5593157248236045 0.2776326044516573 -1.2066156282676768
Ni 3.3420486053807084 2.601179971811821 9.767530402051964 1.7105050538021767 0.7759651047236701 1.4672735525382086
Ni 2.3404424565108948 4.140842640692299 12.884622552693221 -0.12916425240320337 1.0757696172866764 -0.31511620321941214
Ni 5.783462449384336 7.9130674246706025 9.475957905121934 0.644344163249858 -0.033168259221852556 -0.7933030817814853
Ni 3.4971386067607 3.1541159078151617 1.3114329256412867 -0.33528650751969996 0.218897552504294 -0.0477340728511694
Ni 8.646459746513772 6.266778092108293 4.725428906396665 -0.6454273690117078 -0.7744445543140857 -1.059816950612162
Ni 3.6308703320478846 4.582402579126849 8.502651929621708 -1.151844703174384 -0.44846492601760835 0.38334402514855914
Ni 2.62905371173414 9.073076212429232 3.701148577362859 0.8874723061667427 -1.005706027700371 0.37622078384021657
Ni 1.0538213688293505 3.9787979307302455 1.6127292032809195 0.1775632125318813 0.01259017796018477 -0.9189778329741914
Ni 5.375065489767411 8.64453805072136 7.287396218017704 3.001867070479314 0.8844929118234445 0.7104621379248538
Ni 7.611635713232266 3.888597190607365 5.639603387271141 -2.189249861750249 0.2160621399380279 0.8333963502579453
Ni 6.212211082536139 -0.08665292365279409 4.6850751249424825 0.9440815700203546 0.4839538629528375 -0.5630091145147917
Ni 0.20982538810729165 1.4366963781365754 11.523152328990465 -0.8076776053356026 -0.05753871764641704 0.6366709629753163
Ni 1.4184036643792823 0.572308459777322 5.6898685435479965 1.2298676568170819 1.6460642097192877 -0.21403996730167651
Ni 8.702124867967306 9.07519922873323 9.647030009842151 -0.501606028816962 -1.3085362144635788 0.21108294155588161
P 5.94679744080701 4.399695063930193 1.2377175901375976 0.32176764709765876 -1.5304820668758934 0.491180976828896
Ni 1.5805398836647846 7.732675095357186 10.362648475791982 0.24547401744124175 0.3378642955492052 -0.327902556350803
P 5.188240055015587 6.722604334068414 11.243031308796743 -0.6139812346872845 -0.16495220863609011 -0.1559582326675959
Ni 1.1076837566109548 6.248073586395484 3.007482283015017 1.0798239898617081 -0.07178314338057314 0.13357986497239574
P 6.214205985787308 7.063595526033404 4.000368508453453 -0.15312436276322663 -0.5276482185169944 -0.5054876232595552
P 9.13465283617752 1.9916455192557758 9.196733676298004 0.9512670320252004 0.681074428791356 0.6538608444910416
P 7.56439860046831 7.925961088344453 7.764251302506219 0.19196910354456617 0.10485292935134845 0.6053749810755124
Ni 5.170295076687397 5.785228579326886 13.245720173206246 0.28120798050774154 0.6560938475866185 -1.8269333466959505
