# total energy = -381161.4773403755 ev
CRYSTAL
PRIMVEC
9.37973359084824 0.00000000000000 0.00000000000000

0.00000000000000 9.37973359084824 0.00000000000000

0.00000000000000 0.00000000000000 13.72818822820800

PRIMCOORD
 96 1
Ni 0.07594582824925963 3.04075022716749 9.391700417070945 1.1011633747694325 -0.8879664721943417 -0.2782185588621144
Ni 9.013004922484201 5.772091177033043 3.684330340905248 1.5768508839484199 1.5326099118521734 0.4283095341156559
Ni 7.481200603322731 4.224294411823136 9.164238121673279 -1.0816826403370017 0.006215899002724778 -1.2526856831528619
Ni 9.03207392120354 1.1927081845320813 3.0809489521116475 0.6475217896468912 -0.0592112202528335 0.8253801648216882
Ni 7.588786149466764 4.205384868577593 3.898585971179046 -1.9630321214354578 -2.3171486171774673 1.7468817926589981
Ni 3.1369393968019335 6.882032590930866 8.314765348275673 1.15225273724608 -0.3565896398728504 0.22045589813034933
Ni 9.212971466359061 0.7112980395391056 9.040423760190238 -1.633853526585709 -1.485229622795997 -0.6827461600668242
Ni 7.804867075928848 2.005405835805282 5.249645634845166 -0.37139225210332166 0.5473914625821927 -2.658393399163131
Ni 2.7476429271278313 6.602544664300198 10.919703130142429 -1.0030284808682082 0.2901327938011971 0.5261749764055776
Ni 6.335953871579561 4.642030234235574 12.853922414604595 -0.4739887813203256 -0.369319428734693 0.6475205040953106
Ni 6.149991270197556 8.354463195437432 11.094160550103311 1.5078890120667257 1.0625469479488152 1.1334317478848353
Ni 2.6620716161015 2.607847375276857 6.137969265446657 0.3799499118653456 -0.34339371000786667 0.19723189460540227
Ni 0.33933250391995795 8.009729840822644 11.653584754638027 0.21595826737031193 -0.1906215883777362 -0.892887820755359
Ni 1.3130783077811117 1.2236331667148954 7.340297304915558 0.20709644610430783 -1.2027193785370642 0.2367384373404568
Ni 1.394381839949942 5.504234120255784 5.273916633903778 -1.8915158585630263 0.15619246016558908 -0.6895798951592059
Ni 5.440611386210887 8.137040967048707 1.6789986049966124 -0.05285391057623801 0.06551068010830008 0.14397149261936493
Ni 0.1312318549347139 0.437736228693425 5.593770244739402 -0.3690633468598289 1.0966467178460015 0.08927435818680109
Ni 6.650718976854318 0.1907021808472696 13.499023921157049 -0.3226536492470378 0.05225278665712936 0.2905395423213125
Ni 8.104540189595431 4.927024064579105 1.8116955743435057 0.017573232997072964 -1.5041580842693836 -1.8537880049949493
Ni 4.10748858740015 4.393589226326506 11.270774370853951 0.35780885699193216 0.4934389196251372 0.10126135534534818
Ni 2.160687328082045 7.877653809850181 13.406536932434816 -0.8247888110945925 -1.1263835827888018 0.7600188658070588
Ni 4.908986836572568 6.860731215578372 10.11104439222316 -0.07648749083477795 -0.5850468110411214 -1.4412257064112213
Ni 1.236858591306272 1.2088600860543155 10.651879840406679 1.243334323844949 -0.21863195754773312 1.7274643073643348
Ni 5.722538043617269 2.06913174692146 12.566948522465859 -1.1218615265487324 -0.2729606528972847 0.2515047970163539
P 6.611061462547695 6.676100536389257 3.0339292847824915 -0.07032121412306598 -0.1922203003234238 0.6290152462022714
Ni 2.3209494589815174 4.905338120142749 9.234554233724138 0.06785886862550249 -0.8908124262835689 0.5613093582148656
P 1.0667008412976489 2.1186192222009645 4.406803395237379 1.26150739520955 0.28225956170070743 0.1251787853928941
Ni 2.815524060296477 6.576562801805084 3.309756301329461 0.491080960915922 -0.36587517893983434 2.190069015217435
P 5.853319671331851 0.9695455590866727 10.267518048659898 -0.3954156116011126 1.011841708284464 0.6551926759285878
P 5.144905899921716 6.223631559890389 12.143694602686677 -0.2668550542201791 1.179279402346569 0.5474757947658829
P 2.0073380609583484 6.601147083971039 1.518214022927112 -0.7234096992244574 -0.2932219742494821 -2.235635905213956
Ni 8.585626733773937 3.6439702845405435 11.31874045331876 -1.7254328787566025 -0.21456344390531437 0.7375407393092007
Ni 5.714312017116108 0.7134900833171232 3.11023060494098 0.6569903912589589 1.411639251003356 -0.8816294742327204
Ni 7.763117880995361 8.90242724127304 2.1491202404181546 -1.4830187311876073 -0.08755094773779115 1.03920261679592
Ni 3.059472175737978 4.378534753653343 1.699508330820374 -0.32112332864544046 0.6525074157869407 -0.22184763627155343
Ni 3.7614795889949852 1.7486637635250315 11.347144163068833 0.325277202912814 -0.8679913146239955 -0.9693496005585241
Ni 2.956942306086676 7.164287539018594 5.582032445921213 -0.761356867892192 0.9897345919727792 1.873094932853677
Ni 0.7845500082545757 5.096647169763821 11.87346916313685 1.0189492658635226 0.3756443425114563 -0.5242404783870261
Ni 4.730059035505125 1.5246851012431335 7.404833625027973 -1.314863442233187 0.31858436427367065 1.8127254306266847
Ni 6.238620374427282 3.438751089764144 10.850965627282157 0.83935591027549 -0.5767907416799163 0.14960040877036815
Ni 2.935181323780298 3.8700218679817993 4.187797867791189 -0.46394759503423966 1.0036758846442198 -0.9917361957838404
Ni 0.3961230398993532 3.7256583857932357 2.9247904547290027 0.7463333979001664 -1.1088782269151871 0.91573567188781
Ni 2.37005236517716 0.7895400266110383 13.209029754749926 0.09436694221836006 0.5924235631211668 0.058817841469156765
Ni 3.401945014518356 2.9347029573589083 13.379698700248074 0.14463432301434445 -0.19631426788713932 0.8427158278866584
Ni 5.695327436000544 3.8335347036836045 1.1633196027379678 0.5613574378439816 0.6097116607776532 -1.6386452915473972
Ni 7.273842829250705 6.216812493452141 5.210821978869161 -0.6608311051612877 1.140040254340288 0.6598844249773023
Ni 4.757288402589356 3.071975360830393 9.161643687317268 -0.23952679871887134 0.5213083923418956 -0.37823267206392286
Ni 6.8067508478313 6.267997700540893 8.000293828667376 -0.9663897465992519 1.0997955478876285 -0.4115132884939235
Ni 8.230238001616023 0.8198206210850385 11.326839853414258 -0.6083227508499265 0.1996101650295917 0.3992187873972866
Ni 2.4895595529209373 2.341425417763769 8.884320603236734 0.5148950326163843 0.8355200814691676 -0.019790809473682044
Ni 7.604637899508911 2.8372006249990798 13.521441484826118 0.6744985753460513 0.08968702024418747 0.9094719503662853
Ni 4.071686143665906 6.687768925177678 0.329312134351896 1.89838198955524 0.4339232807580075 0.7665546100430476
Ni 7.355183880354546 5.922804738972217 11.305204559540169 0.87225137545193 0.8715993436902278 -0.7975934816267232
Ni 3.279323755168666 8.843578791708293 2.3771593894416174 -0.9540613069408861 0.010623798262433317 -0.7612141716667407
Ni 7.8933930030872945 7.646884220331293 9.481661443493564 0.6655547358892021 0.4370240311705183 0.8645720045298012
Ni 4.783035771740652 5.915404129041298 5.330463296805603 1.10112635088391 -0.7861266186377042 -0.2862339729674232
P 4.775438187400925 3.6200988621397965 5.2749465286698305 -0.48727418557532204 1.031328870474798 -0.10632257191833946
Ni 2.0970552143033943 2.334915882539361 1.93917553577712 0.13511944154537375 -1.2452392541771458 -0.5016224838771942
P 2.316034478495077 3.25913856813275 10.939224232028648 -1.7338018195465883 0.3547664706211826 -0.11975607171542603
Ni 2.7653800036542795 5.146500454659684 13.215948246365954 -0.5015877739845168 0.1915106758509089 -1.3132223070853384
P 8.446553421421925 0.8762172082468183 0.4900967164213968 1.8872719956850077 2.3707064957992654 0.709196898059185
P 5.071265610228882 5.2227858292707925 8.768632843077077 -0.5429398545687423 -1.051793051866421 -0.49451261230529026
P 8.485113506879477 4.411645213800548 6.102289696224574 0.17891561279471768 -0.3315818049746031 -0.6468371048750409
Ni 0.9363638129629471 4.2548254451883345 0.6666664524233992 -1.1677060956866727 0.548039894799469 -0.3697467460800987
Ni 9.23541716922939 7.781614715955783 4.901937966657377 -0.2536591243551954 -1.6197073169923137 0.7049944299420633
Ni 4.784499010206082 8.485695050372147 4.3042266269173135 -0.3473259551827373 -1.8057317729176707 0.09213933843942196
Ni 0.2724906452511167 7.660559872142802 2.64190706447984 1.3694312501767383 -0.3172137091783892 -0.7506862755522232
Ni 5.58545323482084 1.7156002020465906 5.430788929025008 0.11251764498545784 -0.5132711238597161 -1.5410500721997267
Ni 7.120821852808355 9.01426180680707 4.8818944136011275 0.5208268247197869 0.02448718650808686 -0.3702568529472978
Ni 0.9497824600696302 0.11998180227166653 1.3759628567796682 0.033421255772923084 0.23750334053093936 -0.7331292405050663
Ni 7.920162763217641 8.623595896005066 7.292866805248031 0.6996290518650919 -0.1426993107751607 -0.9360864676300201
Ni 6.7651986273066225 1.8486142063943267 8.3929885758801 -0.39433549116305633 0.3123352980401653 1.7353323972585015
Ni 2.936156816090584 4.8958176903837085 6.706384882756758 2.0204533396674043 -0.05791255604606801 1.0029994274024854
Ni 3.533523919601922 0.16253108849426268 9.471928093778335 0.04395583675565978 -0.8979598359616275 -0.2330962126021792
Ni 0.8820204495196442 4.132260464241161 7.533014252572918 -0.3135851112868664 -0.6105418699884324 -0.9258861300582505
Ni 8.418498637767453 8.184736913181437 13.794632796188566 2.978728170469006 -0.9739819571242129 -2.0239605814897144
Ni 7.411715535682365 2.526403147101736 2.201328776459332 -0.2936472347123588 -0.34084189012029037 -0.3046708395163721
Ni 0.8947656317428798 7.434583326571568 8.960718534652877 0.6907386913539976 1.4169830318137726 -0.11969642212208417
Ni 8.485929543715965 2.2776807471800855 7.220999285234466 2.0562335825908074 1.134583344990775 0.7733801176053132
Ni 0.38556614956063395 2.394120761986714 12.911526173500352 1.313625198950712 -0.9835809136665575 0.09080750700187587
Ni 5.990245024654484 9.045224307924896 8.535061527086242 -0.8963739795317467 -1.5058794378358646 -0.2691186534433752
Ni 7.1469350315760085 6.673746223217317 0.9348002113463639 -1.6561437054424768 -0.49107401893738656 -0.8081496598760146
Ni 4.765476910155505 5.38088124167338 2.66652229976718 1.8391203756804453 1.4187442374792534 1.0871727169172956
Ni 9.068504807099218 6.195679953307197 7.235263046352272 0.04711212299645435 0.8616987967470644 -0.3772384264714535
Ni 4.824165904246458 2.9530778557805437 2.89059382141323 -0.684301420369086 -0.9560973635343083 1.9373473150748441
Ni 3.7193176857763777 0.09603534200089785 6.034033373705818 -1.111015584973164 -0.3873760291260877 0.45135098931615164
Ni 4.637621759371782 8.94616493976211 12.928438771429935 -2.317797563615376 -0.40031690555747185 0.1317842065245537
Ni 1.8616332768431427 8.793819304149958 4.304295098973709 -0.048462980597393956 0.007852149054567121 -0.33751771084306387
P 5.798307532871977 7.980230578170246 6.279698918397448 0.14799809728025481 -0.3419654622017724 0.4597829221335888
Ni 6.4356229224362735 4.173465634616988 6.855075236125464 -0.7855967142761632 -0.8638042731258413 -0.32091069841400216
P 2.2670722683057263 8.557581329853218 7.4295304639989626 -0.48627222667336895 0.8395148044508575 -0.08293273223948942
Ni 3.1144092763278297 1.3742060326477783 3.9568209861563646 0.6253861340901165 -0.1230581395054655 0.12696775897251683
P 2.670672831952771 8.693662507138102 11.473374743966582 -0.5777225094655664 1.5180487262085467 -0.7983445008601348
P 4.417788939408599 0.922183531475541 1.2887707277608622 0.12083079283684353 0.5848264675001993 -0.8589243193257207
P 9.160951462966313 6.079024204624255 13.455079868525418 -0.8487921159877253 0.2841925170573622 0.1772449099605141
Ni 9.241035629747287 5.5219899562497385 9.587162812797738 0.42628607592772394 -0.04513905843048355 0.6668266606230903
