# total energy = -340896.7336628046 ev
CRYSTAL
PRIMVEC
9.02632209340425 0.00000000000000 0.00000000000000

0.00000000000000 9.02632209340425 0.00000000000000

0.00000000000000 0.00000000000000 13.21093477832221

PRIMCOORD
 96 1
Ni 6.34418668111122 1.9873614695612203 11.399623056539685 1.030664754528238 0.04608265329067547 0.3262639923061155
Ni 4.611123787594167 0.3325811608046902 6.1546050301556665 0.24278335798295606 0.12972346734078302 -0.8752058300945637
Ni 2.752667225727787 1.3382335067522821 4.759939859485075 -0.5796204978192275 1.0647557826746759 0.4743060554504283
Ni 3.339585775762211 4.240990418436922 4.947626885405608 0.2722345733645376 0.5940587847317447 -1.260919383916564
Ni 4.982078552073886 4.581300818962856 2.440125402894759 -0.22852067741635482 0.17451516973417686 0.38078706305466037
Ni 7.220507174322731 6.01954597596784 2.712469402331092 0.07525927485463169 -0.24411467519986987 -0.5701786356800373
Ni 4.900345204326754 4.63169477594488 11.197931691687106 0.7350526827800244 0.35977909334442554 0.007197546189703734
Ni 5.521464489271601 7.8714313752544385 12.352395596364495 0.2800864653087886 -0.6402543094512005 0.6274964955649
Ni 1.5826211809934279 6.544309271161099 0.4478346587664813 1.46160581272947 -0.36282533636991704 -0.07997750626590742
Ni 2.9875501826660362 1.5274522995543927 0.36503891289347085 -0.5677857099678286 0.6492665402521398 0.7216775470246991
Ni 0.583174431575505 -0.13111003821440131 4.442018348605964 0.2922485545926193 0.4430949199549466 0.5886029038234959
Ni 8.52675139510971 2.374202561156891 1.335269262533601 -0.18712797340218096 0.2628369341997215 0.4528522564520266
Ni 6.804881141151622 0.6670452124255096 4.702418718474212 -0.5260675042934359 0.30577384277256375 0.24910621487719034
Ni 0.5559230621460888 7.329346567711456 2.4872094075168865 -0.17753570172805552 0.2530194338886675 0.22362324011473744
Ni 7.796720506198337 3.7733366639610666 3.826785128384022 -0.29304893900672757 0.013509347340344476 0.04715994551525427
Ni 7.68668061195369 3.851703193518283 12.580271419359496 -0.11926447679098817 0.14427179746860314 -0.5981468387581892
Ni 7.994649699947547 8.762708484392729 6.896253698402801 -0.16680134602968694 -0.27959589882561525 -0.5281213014986711
Ni 6.818510887711331 0.7193671918347887 0.4037473931230453 0.34945071483522394 -0.33940798588724125 0.07924577030620546
Ni 1.8817444732068103 6.458107893912605 9.03664924023066 0.5264218023090612 0.5032764745408493 1.320833286663377
Ni 8.968454473188766 4.977827154305923 1.3194777118010106 0.11723201974199164 -0.6704922824001356 0.05179898694916241
Ni 6.26080151639692 2.0674881319523064 7.142465592365614 0.9885050904410523 -0.5163006547146591 -0.9520288498918895
Ni 3.413294723051341 4.285481160683813 0.34168059623968555 0.03830660888968242 0.537382672195939 -0.09828350366394686
Ni 6.018246185567444 5.452602677017281 4.901376010324846 -0.7200389829800116 0.44240123632203165 -0.6207648332680212
Ni 5.186633066336225 2.869558098541188 9.2897310680389 -0.41211621218524513 0.325869070860542 -0.15585873097525416
P 0.14815444247181794 5.689173556211601 12.360322512542465 -0.7537240339372825 -0.9873748334913512 -0.3958521849178989
P 3.9130460793591997 6.2340113920332 12.52989822291859 -0.38966096850552245 -0.9307162044570422 0.41437801163622834
P 2.2587558998994854 8.443194730273133 1.459953461956044 0.9083028697588487 -0.01836436143980063 1.1777868769614426
P 6.320420374692866 7.783587207361001 5.848600069877965 -0.42339435620222565 -0.3879072190392094 -0.04082063356078776
P 4.87986447919829 0.8669972049853356 12.73012281040961 -0.9278468533290471 1.385616344577033 -0.35538970602747827
P 4.064751476994322 6.133710899469299 8.144263698723142 -0.12779256886665732 0.6496321511216747 0.5693635959779098
P 4.603776361303039 0.9921733389690397 3.7246775661106817 2.243189292081182 0.8417208109632407 1.1487318685770151
P 0.22399360180604166 5.474004087012692 3.7212295110207423 -0.6114720951121856 0.4268679165731229 0.15872396833819116
Ni 1.4257707796900707 1.2419407012562693 2.3485344086457354 0.4105738073987897 -0.4636601457008079 0.6984440304180551
Ni 1.909401124504128 6.536447344503147 4.82452770816587 0.23066600589413178 0.2614971323423754 -0.08309959683465688
Ni 6.092072475045499 5.776647644893814 9.067299019977778 -0.5958436445463093 -0.8868567840699307 0.429867365521079
Ni 8.570158978689603 2.2860966299189287 10.066032689939929 0.7882608913718876 0.07044257019227868 0.35902755989038165
Ni 2.5135148183771254 5.136302293609774 6.971925870775863 -0.21692088839389742 0.3505740298063898 0.4199629619231735
Ni 0.7418255841627441 -0.0381091324338363 9.02164207689942 0.028460569333538084 0.2016436505198527 1.0957100649643452
Ni 1.596088453753088 1.0911650148103191 11.551482804284854 -0.49614629125397136 0.9722081530532417 -0.884603726369696
Ni 3.88600321797318 6.828385684225451 1.6592140382334368 0.43417550597812965 -0.1786045093122021 -1.0478834323993698
Ni 5.681275524264748 7.921798253269789 8.050506387140125 -0.605982275642208 0.07446737508095562 -0.41616184300952835
Ni 5.182643431912786 2.860910881849664 4.960996673885237 0.6245854925656921 -0.7887846250858416 -0.3765725107526805
Ni 0.9570428928694444 7.415042470915351 7.002720071678581 -0.5286522343014767 -0.12297329310114304 -0.27115368159553305
Ni 5.0538468400846455 4.527431727924217 7.047267679755491 0.48728369865701887 -0.021592381458795072 0.007166435841452173
Ni 8.08724171333132 7.407234702190749 9.004890125482092 -0.055160961442859834 -0.6982506834603264 0.46426024117865206
Ni 4.687540631550789 0.3893892223597807 10.374322212372771 -1.331094816490385 -0.8455697523956857 1.2083135847953899
Ni 8.07253783442684 7.100619562530639 4.733768940825988 0.3427437351286936 0.2289618787188315 0.28240740013248133
Ni 7.416459603504672 6.073360909073129 6.994133331345965 -1.0606759561783476 0.3972596067883868 -0.3738787659706012
Ni 2.060249021527878 5.28568792643308 2.7041065147896544 1.2459303667068995 -0.3638818026588895 -0.9177439605670904
Ni 2.2709233822587493 5.279586132608998 11.329869443649537 0.1868058141760718 -0.20683830734691475 0.9469313807643239
Ni 1.2523931823927883 3.1050999770018604 3.816506855266445 -0.01338104929259631 1.2924267104962257 0.6329127814844647
Ni 3.672214776074693 2.6333302195914183 2.6548300164990812 0.10610222837741728 0.14578232057585863 0.21904513382575178
Ni 0.9749691688082409 3.444986140383221 7.987344697370876 0.18816284242459852 -0.3296989861295935 1.0784507636632652
Ni 3.662944743149646 2.636868537903607 7.168610334690248 -0.23536186870790432 -0.12168182798322914 -0.28233360947175246
Ni 4.1688520512149365 6.931421152423519 5.9898647205954605 0.24747870657609639 -0.37001979723582723 -0.2956249272640199
Ni 0.9493253873670925 7.5493090140118255 11.49175653275443 -0.5974624110966549 -0.1633987481060412 -0.769702668753726
P 0.17652327059268583 5.562886281962002 8.12336415224344 0.05837406906351883 0.11002521758090728 0.1285638998150431
P 8.468730195847582 1.5208179527190373 7.882515698946706 -0.2598349141486041 0.742020115236793 1.8436650576283347
P 1.884244764463128 3.0842943042732975 10.52240444426679 -0.5568870607774538 0.6922679835143304 0.31876742681875425
P 3.9496929475925904 6.06305284909221 3.734942299744921 0.09833106907243065 -0.022078834176910363 1.0024021601381188
P 6.880296063341271 3.7964440488569977 10.240812977710972 0.1286621159558042 1.686762201659282 0.846072145953401
P 6.305481811410536 7.806044697056734 10.293049207059113 -0.19190688284806304 -0.3988328648127777 -1.1053342183176706
P 2.451955300802809 8.490916895876566 5.8061402501316906 -0.24414527132748923 -0.2846478594272259 0.00228031139374446
P 6.906734161138218 4.0878498355680275 1.6379182362080578 0.3850741204657884 -0.6683019596170362 -0.7835675996612763
Ni 5.438007113979499 2.9881098146439844 0.2087246751302772 0.17142444662399509 -0.11797069768022908 1.0382479661921344
Ni 1.5027382293024163 1.111672818905458 7.1121064601941395 0.21147014969197128 0.15508765713718453 -1.2103419280793284
Ni 6.720403791448098 0.7876314615578149 9.375311434318315 1.4645803219767615 -0.029743292700703614 -1.9109608546615153
Ni 2.797825915819327 1.547319234771558 9.243387221839221 -0.3609988246841396 0.2918664886628522 0.5564381461654934
Ni 6.274350026056604 2.1340753110059327 2.5199993282635464 -0.0816870327578464 -0.19521126463094768 0.49420330859498757
Ni 4.110009456630337 6.91448777192947 10.415117578300759 -0.060287998256780044 0.23284115916857961 -0.8578161738632066
Ni 7.993584593924999 7.349078108095248 0.11797042095150802 0.2263018153881651 -0.3782966925326388 0.28610336092682986
Ni 7.588889436968333 3.827639018466505 8.124355242423741 0.28978903730853317 0.038048984352921575 0.348633104029935
Ni 3.0095021983171706 8.300687154985258 12.595833701507573 1.243942132632277 -0.33315223478551653 -0.2319451297168715
Ni 0.15801931003149103 4.851052458656175 10.287077392275071 -0.5231228198428152 -0.9188346225281079 -0.5804185682404907
Ni 8.654591196782002 2.134228758483757 5.768528468052451 -0.05936471511156227 1.0984794001793663 0.06097679679368853
Ni 3.9137230535260725 2.586619002077182 11.584761049063884 -1.310398464483298 -0.4972549509371178 -0.8716067998893956
Ni 1.0584807020336917 3.273847070997732 12.763348702519735 0.6453193826789337 0.3896789662276515 -0.5146464069406879
Ni 3.083057698128476 8.443754362251081 8.03876133666099 0.6685066194286745 -0.8189184683567445 0.04679587730761618
Ni 5.679768128453179 7.63825439321671 3.6293875850138635 -0.2742510895739341 0.32982188486070296 0.12206389391299621
Ni 3.3167852858219287 8.305678711175668 3.572844897332187 -1.5196055291727055 -0.955555117877593 0.5952959995729554
Ni 3.215410660913256 4.310601415435913 9.312163284032403 0.43554898928688857 -0.04830537197360713 -0.7203701410671851
Ni 7.1752852999756165 6.044909941420014 11.203348387654312 0.5063620554447086 -0.3797473089362363 1.01174169237149
Ni 0.6429936742248465 9.159550741013671 0.3006676959460754 -1.2113366878924299 -0.36785595681528904 0.002219890469454241
Ni 4.602259939169243 0.21988572256145641 1.7598286468107667 0.5293616016636753 -0.3628317641278203 -1.5732474828678777
Ni 5.853921989461808 5.488735044883848 0.17783479521197437 0.12200424431965438 1.0361694863965512 0.44959106920225156
Ni 7.936790974485469 8.816794207164769 11.266734832846964 0.5908940138505179 0.40591111181579775 0.39123576919181
Ni 0.27690229215994383 5.033176562189457 5.953270205030975 -0.2294359901417726 -1.355820344261523 -0.7413336306927297
Ni 7.682311871996803 8.852962680320235 2.560450791314763 0.45395680237011493 0.20261784150766393 -0.0556965222313557
P 8.604422897855601 1.7141166431668355 3.608580107020855 -0.912070564331397 -1.5471417869197612 -0.9501372892961314
P 1.9477268886713637 3.371024456071792 1.6288819850286376 -1.3123229351995205 -0.6454965316867464 -0.7334945942642852
P 4.751194255881299 0.9812875943657222 8.245789965845194 -0.4078234983471622 0.08210843656598117 -0.11229498745169048
P 8.480193625073298 1.6401369062109563 12.372569426537309 -0.17911795861351087 0.4029420018851448 0.07704490600014473
P 6.241954555591176 7.547133670355606 1.3460223202002113 -0.1541538324690055 0.16621950538428792 0.6098147620144208
P 1.8479860280854112 3.1164460640386515 6.0336053754654575 -0.3197449602406751 -0.2985917232018277 -0.44678908097708214
P 6.967165388434412 3.8612530424323044 5.971831031422187 -0.051213546759337605 0.20336320431412072 -0.16674503887045478
P 2.513135712843676 8.553117282328854 10.36459905807203 0.05573483166845885 -0.251194979085419 -1.2775400231923804
