# total energy = -381162.24060962466 ev
CRYSTAL
PRIMVEC
9.31251413367126 0.00000000000000 0.00000000000000
0.00000000000000 9.31251413367126 0.00000000000000
0.00000000000000 0.00000000000000 13.62980575799103
PRIMCOORD
 96 1
Ni 5.019510211770191 8.888794574346246 7.480964101501529 -1.6041729688021404 -1.8882395018045997 -1.231777472245285
Ni 2.080629806374187 7.074865855258285 1.8145219262271821 -0.7531751034123481 0.933858863851082 2.2390850401048215
Ni 5.614058353000743 3.94068340710357 3.302515450486703 -0.967427958055779 -0.31362959137155666 -0.4360161587312943
Ni 5.409825609354868 7.733372342362709 4.649072375232075 3.6043359336516247 2.783337699947716 0.7238377879008115
Ni 8.986324533044128 1.0034233791365197 9.767350178805366 -0.1421776339437358 1.3435682663670474 -2.3534811330599146
Ni 0.7653675847897276 8.184265643253957 9.408300615588326 0.33587066215794414 0.564331175760325 0.014703624758761774
Ni 9.102488832174977 8.087666935952026 0.20080015100040177 0.45911289264975774 0.5945112988881309 0.6308659262577652
Ni 8.945442596761907 4.59530657588688 0.5386460511830473 0.27698185824153587 -0.736033558636055 0.6333928064446769
Ni 1.093121513594459 1.1186098643016205 -0.043896397050912424 -1.9672795838579025 -1.2415494640303844 0.5157956900537827
Ni 7.125181368181483 2.6230930570292346 8.55641046360085 1.1302988586828082 0.008490296859198282 -0.9302271806357658
Ni 1.4383364060732597 6.13064212736233 -0.025993088963766627 -0.8817780839954427 -1.0236790672390241 -0.3605324265706823
Ni 4.0406718694867605 2.6986547952966475 5.4696817928295784 -0.1850119555004427 -0.5990752641097296 1.130090599326744
Ni 3.8061548304445805 5.222187765584829 7.704547317903857 0.14018528610405534 -0.686734712400927 0.38145117900122044
Ni 6.302625635166444 5.0096296344591575 1.0456677362110163 -0.6242962434600474 -1.6696975328675114 2.3759086088254953
Ni 2.2290805914026346 8.868297731121379 11.153651050627106 -0.7993351469081782 -0.8449742849035319 0.4409094822678536
Ni 2.3365470024953074 4.9718301402975325 9.46534069484168 -0.04467317453765855 0.6930696534800193 0.47688281503866903
Ni 8.61068565745963 -0.09057723577571643 2.3119284405919633 1.7175169663436358 3.1798987380071817 0.11171288969597536
Ni 5.302750323848495 0.9429944760533004 9.296413554119077 -0.13797182339250433 1.0359362873398223 0.3515240524244849
Ni 0.8761809133994455 8.987935597959122 4.468490623289151 2.2697567581570652 -1.3787545844601932 -0.9389936139744861
Ni 4.387246389003649 8.838926062093105 11.017871803343356 0.7856627916274082 0.41654056650518584 -2.8023651488928123
Ni 7.675318130339162 8.220910385684604 10.10040851556143 0.09049023287177319 0.8808961956111216 0.9671330525231796
Ni 9.215701064380664 2.748560557605628 11.562395913337642 -0.03484127604890128 -1.5365897224355278 -0.32242045019030924
Ni 5.691110093501677 1.7475584320985789 6.95952850736704 -0.7022137818731325 0.03496726010380429 0.2560618202594171
Ni 6.621225362748984 2.3709101790058753 4.851161378164472 -0.40384960130107866 1.3247598754112926 -1.6392495007902996
P 7.335858371487335 8.198783852516822 12.261277735964889 -0.12721381354505187 1.0154816190298963 1.1270140172839491
Ni 5.545052624560821 4.096742516036932 6.80934186973654 1.4212955431461973 0.28287276980467413 -0.40261161512891946
P 8.602071582047088 1.2856298021653187 7.130323738389921 0.7585790480367388 2.1064423422347143 0.947422975688762
Ni -0.12620505168198554 6.533175543261875 5.979177812816587 0.33359266475704485 -1.1544145207840895 -1.3092862052557257
P 4.6110726620203195 8.768504831531338 1.286747303840459 0.8757971838216594 -0.40448209267875496 1.6164397019846353
P 5.645897838228286 7.683187204634942 9.42386555142024 -0.3573733121164103 1.1463875367145548 -0.46222289903364916
P 9.149293527335443 6.437200774395231 3.3559990806589246 1.2363779471317737 -0.5101886282796503 0.5389677572948718
Ni 1.0656030348441257 4.613568415761467 11.901055727240347 -0.1480099243547967 1.011622393184806 -1.47155109686764
Ni 9.460303556040987 6.012466325216229 9.258835697789687 0.10604874943166252 -2.0369168845400663 0.9476895990865871
Ni 1.4029767905690245 1.6163730479510507 6.077938885859915 0.18397760069865735 -0.27189313086471883 0.6423623569331388
Ni 6.797203939041724 5.935321459575701 3.680824223823392 0.741818026528316 -0.6951108522797641 1.304491869190876
Ni 2.322783106863161 2.283661235719286 12.249896912654979 2.398577511177921 -0.6403617815633422 -4.426983530033499
Ni 3.572308292407484 5.379485438874805 1.5460011737132695 0.1452722137086595 -1.6449465511750767 -0.15005549402991578
Ni 0.36050697165170176 3.8133347787073575 5.305865359767949 -0.5033968021687976 0.09439625279439871 -0.8313052720568715
Ni 6.2817562913831955 0.16096587253862485 2.9570137325779497 -0.954057450286144 0.0756786217802374 1.2387209934426537
Ni 0.545839968216764 3.383161821376005 7.604627768123966 -0.5021526453490514 -0.5999229568220056 1.300421041555612
Ni 7.318220470048034 0.4666742870470233 5.6338660701926075 -0.6073984392634442 -1.1597613869182994 0.44954684622787744
Ni 1.3132600310831661 4.40242578675764 2.590385645500666 -0.1349410069859805 1.3947352761591658 -0.27568602224824773
Ni 7.927361320653128 8.136119946083323 4.201918979946963 0.29519323904324 -1.2302661778070814 1.2056442654933428
Ni 7.827847796481873 4.668568123206295 11.935906879482394 1.174583025312164 -1.7133695198341656 -0.6125835830088096
Ni 3.575595609835189 8.504020122567475 3.3431189426015346 -0.4508784205551074 -0.7786058847806269 -0.519651316354447
Ni 2.26276395439416 8.237812598521103 13.402923966048133 -0.82590338431501 -0.9730938980923047 -0.6385524962687454
Ni 7.511864885321954 6.19705897692151 13.35277980338179 0.021645860404549817 3.775902562280439 1.0204163373273525
Ni 1.665617621768906 3.3920832097492095 0.23313785572477824 0.1295596880694091 2.2420847461630933 2.761550685979612
Ni 1.970639703998489 6.4412703429955345 4.404457777303604 -0.7288725221112415 1.3228456891077154 -1.436990842394267
Ni 3.602667087915466 7.099339141943861 9.07000864598702 -0.06753002453117403 1.4173928656576813 0.3923701399065694
Ni 5.380239752505525 3.8499050210263284 11.813988377975969 0.28291622144809986 -1.6059532006310149 1.3074944034626255
Ni 3.9465409783840983 6.952965047528382 6.233768906949874 -0.2541455770733107 -0.13961218720940471 -0.5368656233502045
Ni 9.11482791317132 1.553066578054345 4.251231535116722 -1.6780631312233873 1.128816617710327 -0.5354862265041745
Ni 3.281329481228832 4.432179268858254 4.277469543197624 0.1128922547160572 0.9298587415527535 -0.25218871045725605
Ni -0.017280300903254997 8.70314029604958 6.489068683395479 0.6992475001559569 0.4539753143128762 1.3859151067643745
Ni 5.402431473271022 1.1376167052929675 12.483361637619737 0.1597732355383119 0.24655002411423993 0.7198132401224506
P 1.452537989861503 3.150572472723441 9.887497440156693 -0.6811937279780397 -1.9430309957231826 -0.20002308419729423
Ni 2.793092999359974 2.7853356752317073 7.792650218720532 0.8208758491934315 0.6627905428805037 0.08941062665434923
P 5.302228823066763 5.608908532781137 12.933553706209834 0.037393867267425926 1.1830296134176206 0.475077129288498
Ni 1.8841078242867813 5.215734193410892 6.243036720842372 0.6357836752743568 -0.7618122102620558 1.8779856852870753
P 4.050375509032564 1.7927334373161312 10.826345053743827 -0.013392876367138226 0.24228713507282787 0.16928091791843103
P 7.544244496359148 4.306683830739983 5.056167060468986 -0.7443665039817826 0.6838761599062093 1.3281922981316094
P 7.679592574246574 4.131133630089379 9.99329132374224 -0.5001492417657774 -0.08036008641630676 -1.7880479824846625
Ni 8.171162936112934 7.330391925793107 8.072770638622403 0.7904972369015741 0.09420830515330872 -0.49390428929733005
Ni 6.779584662630342 6.791690930777698 6.468160227053601 -1.3986880901593266 -0.23805561348998358 -1.3122074926675789
Ni 6.444008222099628 2.2395944196629145 1.6380162616443332 -0.7301449610657619 -1.4093383707843212 2.606966450841407
Ni 1.6606074892586933 0.1747334931763551 2.1428914122046367 0.5177214463215858 -0.10315394438237073 -0.08690482951336
Ni 4.041882496301496 1.4710698926409151 3.4358827566549426 0.6661370907552334 0.3632307993384518 -1.3148133057215419
Ni 9.34836713824775 0.06549491067718927 11.694059960702688 -0.026817891523792523 -0.03669169899407875 0.5776813718149858
Ni 5.2864534244193635 3.933056458170737 9.66916089411915 -0.03305693045496888 -2.2887505256507485 -2.8046223203581055
Ni 3.2869728646882916 5.105110840085948 12.563259282386694 -0.5020968524104514 -0.6605503406960753 1.1122859670451555
Ni 7.683922893237744 7.3286318606547605 2.032667565728555 0.21483340973724938 -3.016525186712121 -0.6240386189232865
Ni 6.44622460042199 5.745988738265031 8.803763871884811 -1.0601578788913484 0.4924431313707713 0.032450921439853786
Ni 8.266839704532876 3.7230872059258076 3.1003715037219446 -0.44872100789247243 0.24081903516773367 -0.704144166126626
Ni 2.2865760525886105 0.9412064733730758 9.344049856776126 0.20024985549611965 1.2728752707268594 -0.05058311226419031
Ni 7.010833009272737 3.2012697987189793 13.56838964533199 0.7901519377470134 0.4940750105472394 -2.8547223223382905
Ni 4.3559563420997165 2.8657306082441028 0.20707119790073156 -0.45162969689883514 0.9603813356216429 1.0975933980299872
Ni 1.9494723597685373 2.5531933272492005 3.9315850809651347 -0.19908283177121197 -1.0805593253658359 -0.4465697658774244
Ni 6.496465613233512 6.400891282467127 11.109218252772127 -0.03944277937665465 0.72206732626395 0.811091773223474
Ni 0.4613857103694211 2.2237724584457177 1.8740298216798061 -1.034485928046541 -0.05549829017762055 0.7173910038342032
Ni 5.368301109609441 6.800305006190238 2.0295460110493297 -1.2826351783271008 1.9779722876850578 0.32671650646250183
Ni 7.1504089684977785 0.03652461100056932 8.137988967634994 0.7604441262699355 0.9673796213163468 -0.08196754011274271
Ni 6.830598614100504 9.004232497388253 0.8071230348813502 -1.8074862937149323 0.13609491808476562 -1.9738574941857363
Ni 3.3485844570443675 0.6867792794854761 0.2846062578761631 1.0251975607660797 2.2655332069940206 -0.04209538650815331
Ni 2.0605054637076994 7.471253011944559 7.453445622751196 -1.7618738951924557 0.11242559949228378 -0.4761359095703155
Ni 4.382962632582277 5.678584762226143 10.665963075830463 -0.9114581275583787 1.119385039983782 -0.338777551392094
Ni 8.056553826813323 5.025088407631934 7.473794397004108 0.7220020202436533 -1.7899079185115367 -1.2104396299994573
Ni 4.896221839460322 7.9066782271490705 12.82536091902832 1.0875632674874949 -1.5840008647296397 2.7779432684050223
P 5.024483094224567 0.5756744691888258 5.131812611362034 0.35687168988964346 -0.00933978934368714 0.364036840179515
Ni 7.887820386381076 1.1882488436907888 13.094808266681202 0.5538544445987171 -0.16730348247708607 -0.0522792690196906
P 3.404301228064078 3.2696609012375744 2.345758010052652 -0.08034388846639066 0.4763585671040828 -0.9880942281558789
Ni 9.144767645551124 7.04981519270722 11.707975650312376 1.115374376162492 -1.7872493978427668 -0.8270089586743627
P 2.09858433328811 6.654173037137707 11.291558207350604 0.025577334248472076 -0.310269159539756 -0.17636250735556078
P 2.7331576595166087 -0.11731346335345144 6.261082510393098 -0.5566502621762993 -0.7125133640269277 0.11452181989968019
P 4.259134134462757 6.301238070586478 4.0259720662016845 -1.61212590510063 -1.8506636004333548 -1.383232931946521
Ni 6.943494220831567 2.0417686856211783 10.857175993709555 0.2562538816655651 0.4569894185488517 0.47365453790935846
