# total energy = -381174.1495523155 ev
CRYSTAL
PRIMVEC
9.15465694299270 0.00000000000000 0.00000000000000
0.00000000000000 9.15465694299270 0.00000000000000
0.00000000000000 0.00000000000000 13.39876580297949
PRIMCOORD
 96 1
Ni 8.310963533091257 0.3835874392044305 1.7035461218364398 -1.371244392126077 -0.37242377869162957 0.11528466620763371
Ni 8.98302519031202 0.6534593948185297 7.999465353489489 -0.48024813196647614 0.5589693972277793 1.0709215451657557
Ni 6.23079666579453 6.2080107252831365 12.99207273024292 -1.0163411388167143 2.7539178520247023 1.561531222872214
Ni 3.517356421689568 6.687650653452473 13.422481661108872 1.9810696956634593 -0.8585628222212439 0.7845682730116489
Ni 1.2576209633398083 7.380520845338721 4.654449921393032 0.546040347870937 0.6613301562848932 -0.8709583676721193
Ni 4.521063826964278 5.574719039161513 11.117250305386884 -1.0494847154482185 0.714635295465937 0.7019785259338749
Ni 7.10797756090131 5.569354410338823 2.3663423510171917 0.5785622317580422 0.8847852462528826 1.324648803754725
Ni 8.553424615632148 3.1310299092022897 1.8778901503141998 -0.1856652728137254 -0.06736007461221304 -0.1740307738985906
Ni 1.4029969116407084 7.435457940159483 10.23602671388403 -2.2203843783715245 0.050751005300622265 -1.4307805998184973
Ni 3.9588763593850413 2.6545208736223054 9.12257603055852 -0.7632684830926081 -1.7794144751793808 0.3980203962138113
Ni 8.742340111169765 7.560785190300499 6.291511264454884 0.02951986383598787 -0.7380374764399612 -0.07964351996525638
Ni 7.147031326357962 1.8845593177157873 7.053217150954741 0.19880438129884473 -0.7607734845848962 -0.86327771119841
Ni 6.061847476506551 1.463170470090445 9.496924590227355 0.2797583925454085 0.10005087997701478 -1.1127143128318258
Ni 7.103738954851983 4.645210126391765 11.884517645828353 1.2733007883000522 -1.5994064006514326 -0.9461487369620285
Ni 6.039317866382589 3.21969275928379 5.247130634954351 -0.5014111391973365 -0.5559370381593587 0.8964192309473852
Ni 4.473111735201047 9.101761087633346 0.1575223468025144 0.15776263286618636 0.09906537613529391 0.18083108464987566
Ni 0.7347747174374161 3.204853060782797 11.953641712127826 -1.5400902793896185 0.8715114119621119 0.05390600598983619
Ni 8.360774020163374 2.3067812391002844 4.51425825517795 -0.40389253872387215 0.29322274558043043 0.595816905073432
Ni 6.413340520273117 1.6802731535889242 0.979407284546126 -0.4318412014179982 -0.5771987757516124 -0.1881823828086243
Ni 2.343381556562942 0.5648295015011283 9.689611804322904 -0.24355031805596764 0.24261777893936923 0.6841186149343186
Ni 4.308144821574962 0.9789074402906329 11.171529180391346 -0.03516960592259749 0.8587445992147469 0.32596908677351605
Ni 2.7399612845475128 0.4634544951343243 3.9049096581738447 -0.7063386026747835 -0.29489319130431796 0.6689660755635962
Ni 9.434697642281149 2.7780904296780706 6.977420255391006 -1.9708842704900251 0.8789719820052153 -0.07777947017332412
Ni 9.071706349706908 0.9464358729969747 11.257803580541378 1.5729708321677232 -2.249121341294901 0.08379122358504279
P 4.114789317540748 0.8457529586762379 2.2932387554528333 2.548889601303333 -0.3841780910140803 0.06050782757706999
Ni 3.7183377547498933 7.217311625797887 5.147952746194109 0.19854469987955484 -0.5799269733160529 -0.17075338869889944
P 5.210638342440682 6.3074760702635695 1.683862694478646 -1.097105659760291 0.11072532897172543 0.049846748318798026
Ni 2.179925161291369 5.286347353300156 9.676521560716138 -0.466963499042428 -1.2037017970549913 0.12336487211260688
P 3.292746919702 7.1193110258884955 9.18648835080209 0.3865540474454246 0.05378439281030737 -0.33892847514766145
P 0.8761628972824048 8.426797404240585 2.4824829031657667 1.2489424140603458 -0.558614842101838 1.3863971886071156
P 6.246936325546073 4.9271918618807025 9.868351898945129 0.412733791164586 -1.4592949052081061 -1.4193121941675815
Ni 3.451516130746239 7.642481346637855 2.560557477314973 0.7648587103978634 0.8114244739725445 -0.7324903213694869
Ni 4.96194293869117 5.225313257121183 3.780515267549949 0.06803678896426348 -0.23258173485960593 -0.7978233382493422
Ni 6.513529083132377 8.179548436248725 1.109779665991211 -1.6292299117707685 -0.7804887036256365 2.0383392188088894
Ni 6.548591418270441 1.5460475771413298 11.828015104712916 0.6445673350042577 -0.6946454826075714 1.070950598631478
Ni 4.583333801796943 0.40979630585371557 7.783329401737897 -0.4858351391359504 2.4636583028376537 -1.6509601043590083
Ni 6.342886282356005 0.8053644442735988 3.3734067689015954 0.11901225157086602 0.00873455165952044 -0.9801212372527314
Ni 3.95309977101112 3.9719308998307015 1.7887750601920158 0.3147994433099417 0.5491745226245445 -0.29792580748305464
Ni 1.704413983291032 6.437939082809925 1.4446148964373535 0.43561043865244337 -0.16444338732047162 -1.2385230184992349
Ni 1.897220207923605 2.6045913760131674 5.2728561357301915 1.1086506842854131 1.9080681064947527 -1.1960016001972564
Ni 8.637281270949293 6.720332777850093 12.029465156195974 -0.18497827404902983 2.389542654669162 1.1386552010673037
Ni 2.1042161504318955 1.468040747451659 7.567274010965214 0.4880360034420112 -1.8430580201719549 0.4357065979106754
Ni 1.6816280427796377 4.049946884177066 0.7610659759969471 -0.08159858680909818 0.18967747929691203 -0.7959088948354486
Ni 2.2422866826909744 1.0598071414956112 12.484862637973901 0.20507735879175004 1.4065350970075712 -2.6220917365186196
Ni 1.4981137946914864 8.315595789378428 7.583379798486988 1.3875115047172168 -0.9528937689953458 0.04719748362140904
Ni 0.2815734378003845 5.212121396825112 2.7152327258856497 -1.39364847085289 0.6349503807397839 0.39156255640360954
Ni 0.662527082273948 1.416390174384047 2.9173803622087915 1.2357932782728975 0.06876184005574609 1.1649046216821357
Ni 4.006883379088437 2.6126383192472034 3.9593350076854112 0.3882550892969313 -0.08565270227381376 -0.6763009186621126
Ni 0.6417396033188564 4.795694373127924 5.039288802167533 0.10873015291856758 0.0817687938383753 0.5360315574846832
Ni 6.607254458365665 6.272276415275097 7.861537633874837 1.6930634612869615 -2.1197693983609236 1.8906619952031634
Ni 2.504146482766475 1.8468238228230724 1.466039539498348 -0.6734482797046659 0.3240597855659451 -0.02264833352713519
Ni 8.869251116918846 5.210327084113087 10.579263172778266 1.2732411387067104 -1.3460090145980563 -3.106939057820004
Ni 8.756932633940021 7.215416611862227 1.255438493183956 -1.3736141779098343 0.5371913821207394 -0.5151081770684548
Ni 6.337896994457769 4.0990982359672135 0.8555914682252921 -0.8878901104304514 -0.5222165059784619 -1.4829192294952656
Ni 8.099298715669022 7.863905028095909 3.555322613930972 0.08704084087059204 -0.00019129007519967057 1.012076192892773
Ni 5.308840344797343 3.4078941915992744 11.287052708678745 -1.2387659877479762 -1.1682326576141042 -0.769508550465049
P 0.8668370485082155 2.4933622971809295 9.67211359351797 1.6612792268968293 -0.37785986210553635 -0.40786206489458143
Ni 1.7727992687952967 5.709887545248591 12.087736376984695 -0.1019522107647857 -0.3866802886106437 0.26560087009810385
P 1.1025502335999502 8.223664726857166 12.166159743553944 -0.6608509026556296 0.5105002459827982 0.0815016562199177
Ni 0.1793854979191523 1.5584979102451852 0.12146947781015892 0.8534995487657235 -0.38573515108855505 0.9758771172643969
P 2.8677419826825234 4.805471546477128 5.521416966026302 -0.24961220797933137 -0.10100218814669057 -0.4607655977618323
P 7.651828251122442 4.487795804538241 4.308400236496725 0.0013683411024363532 0.36986321705330494 -0.8629285553891074
P 8.906016218201996 7.064996447722927 8.47098052384289 -0.5185069183373586 1.528938376537857 0.8549967021365404
Ni 5.311540968522075 0.5308181209515374 5.38978765021713 -0.02272623795292215 -0.2050336500380082 0.5743764758114688
Ni 1.7497936165232462 3.552931417602496 3.063306505377002 0.5792209483879637 -1.2783100685891855 0.5582217204284774
Ni 0.3335187908135437 5.298687830523684 7.615657287058734 1.0381227534681796 -0.2800982923833305 0.11114956099333761
Ni 4.318434655699031 4.832459474411074 8.713967083678018 -0.06838491633230158 2.1718941440806208 0.10938527000406323
Ni 7.668608736842565 4.566782182494171 6.487735837897 -0.6209026443974662 -0.5303069962960802 -2.641483253671354
Ni 5.704651081619616 7.548591187584076 3.57351749411032 -0.2503146333629947 0.4044748935899034 -0.17563128561649108
Ni 6.600653950889283 6.93759109051237 10.396450171392877 -0.5825620969460548 -1.1039131696004276 1.319388069576418
Ni 4.91513517901469 5.176702030075982 6.118210866840241 -1.172235093905278 -0.9017285589754406 1.7580393519377142
Ni 4.741681898633257 7.32617880320307 7.492013578283746 -1.4270136765768973 -0.27869601271916516 -0.7500627830356114
Ni 8.019570810520877 2.5422206999568684 10.255696409256782 -1.3750223711112706 1.6059367455707827 0.06421998632133456
Ni 7.680015439083302 8.807924071725663 12.790045935388138 0.41399260327235154 0.05827662425370609 -1.2149069217421917
Ni 5.580861813803196 3.36034490473058 7.7021330896560345 1.536586122891102 0.06485504880217217 -0.34693309061969285
Ni 2.5415615646748995 5.705209515677951 3.402549703021311 0.4384407090123868 -0.9166679538940922 1.669262759322938
Ni 4.164251927658492 2.2603396656915646 13.210070739166074 0.8135821437454956 1.2059229730760261 0.11384099178257168
Ni 2.288572626935896 3.602421491690322 7.494840536270857 1.1438174619945334 3.1674641117882545 0.7142763694646215
Ni 2.1367060270389415 8.674183692082853 0.5623101399789364 -0.8231055098548986 -1.452640633116382 2.3383414492049988
Ni 6.672481387310496 6.39844589383196 5.54971492533316 0.4913745808969408 1.8282150416218512 -2.0814903002750667
Ni 2.7476145775437066 3.3036134971977913 11.080845897577477 1.392894109185369 -0.2801877667733433 -0.20972308509387752
Ni 7.852800429526073 3.893777595633927 8.460931457189874 -0.7570788093421283 -0.37659976444619014 2.637844885587818
Ni 8.629307564968808 5.168700860125417 0.32118197545269395 0.5994809841885804 -1.5012090289433888 -0.04339379360460269
Ni 6.376181768752125 3.1760158921966615 2.9936056957058077 -0.14806880261719013 0.11857310715091839 -0.20765488971093915
Ni 0.8099481808802902 0.8407856419540675 5.712777670366891 -1.5106133529764243 -3.195677083887361 -0.6842733953446279
Ni 4.892742888741139 8.565334823991057 9.621050749410115 1.1710541862232995 -1.7171886364699394 0.8574266517342717
Ni 3.4603686837693477 7.75258440269673 11.281760401643936 -1.8232553836237309 0.5220133888287203 0.9282934539481624
Ni 3.98514106944016 2.3039616048385287 6.468508312442568 0.47592687888330293 0.28812270534970374 -1.1422717147739683
P 5.429828287665397 8.043144051507955 11.876786538250261 1.5437294188041026 0.5104351970728177 0.6259836584647993
Ni 7.781824376177402 8.54363828762625 9.682912426554227 1.592221452867219 1.5797570018516214 0.6149487408068763
P 7.879797512116712 2.970704406520069 13.086373017916593 -0.9204870705298663 0.2592602725920567 -0.20626726533479317
Ni 2.535409635376524 6.099738600563064 7.4420364764597995 0.35939059965675524 -0.35393780407230013 -1.5850097656101283
P 7.436840293320278 -0.12586920581730077 5.498639264705932 0.10379209218700189 0.8775774156505338 -1.1984616317019747
P 3.6368887741432747 4.370369023124158 12.909965529820003 -0.4940166465054782 0.36973569033650516 -0.16255465493819102
P 3.256137447582649 -0.034675093159906765 5.967823659465038 -1.0252736654196535 0.45528323449102237 1.4616757467354569
Ni 6.8914424661178595 8.53920743378635 7.567917583330803 -0.960637417496507 1.1687710466160774 -0.4881722719095593
