# total energy = -340893.24768656865 ev
CRYSTAL
PRIMVEC
9.05695670173377 0.00000000000000 0.00000000000000

0.00000000000000 9.05695670173377 0.00000000000000

0.00000000000000 0.00000000000000 13.25577162420398

PRIMCOORD
 96 1
Ni 6.212782557782591 1.8407359046540563 11.44110923106475 0.2960324471150837 0.07752570229130519 0.27254002042009834
Ni 4.40896280913803 0.28162154392474686 6.009517275809795 0.3123008452578041 0.04111785308623241 -0.006627789729162779
Ni 2.6425845199986844 1.5207898479338773 4.576555455273093 0.7311615752557343 0.2506005400345297 0.999007275523957
Ni 3.105358785813503 4.153710595002696 4.805415697226957 0.6757974966631329 1.0672597800434522 0.10649432160951337
Ni 5.127433079972496 4.375986429346427 2.902232075280095 0.04380645566198907 0.37100967195292234 -0.4201249414223345
Ni 6.975505119652974 6.0103052310533736 2.7248434246455555 1.020465445397733 -0.48133005217674524 -0.8990828938224774
Ni 5.124906189018952 4.818056491864458 11.390592242994542 0.4315635222765793 -0.3211981477474339 -0.7383686345271349
Ni 5.466851593861571 7.814387631445794 12.393417447322859 0.41131531355050455 0.326003025335245 0.5396951223791996
Ni 2.0332596358350803 6.428473984516189 0.484042717521663 -0.33970803362616336 0.4817422000134993 -0.24469291630084308
Ni 2.772579021275498 1.3117009427240587 0.47272242718891794 0.8374340106624288 0.2027111725524186 -1.0625276646751056
Ni 0.5676257492560186 0.35558880460039743 4.751080296160281 -0.4689216512100634 -1.7586600162408486 0.860258464756112
Ni 8.782739341019708 2.5224349307881906 1.4889944953119598 -0.23739201176405564 -0.08318624301119222 0.17316045547849532
Ni 6.903882705098732 0.9059130492379321 4.6421577106272585 -0.4003433879200331 0.10537974838909593 0.4303180799052524
Ni 0.7058358160667416 7.443287882590768 2.5260993755186725 0.3060530645758794 -0.5154763590411509 -0.3387585252287005
Ni 7.275625497888171 3.5205568574384576 3.924079606023217 1.2091800465607432 0.5007197695572667 0.11004115842050727
Ni 7.904839459234517 4.018444944855046 12.729543757406867 0.4936659480342789 -0.15358536156004518 -1.0177452182530924
Ni 8.03991491328889 9.071538523226478 7.048385545509896 -0.6135839992488659 -1.629473138129826 -2.095425679409236
Ni 7.077305314340592 0.8249692147217236 0.44681771928451164 -1.1054172649497802 -0.8257169793358168 -0.8241254664789807
Ni 1.7960217088201798 6.64391181645875 9.389739304366914 -0.5507542084068386 -0.9131113468910854 -0.7966210904111248
Ni 0.08084239659979388 5.109391621981595 1.4736438591930945 -0.35968936184409667 -0.2443481313669147 -0.5445755903999525
Ni 6.477046443956552 1.960396418196122 6.878433562122509 -0.8525094169383124 -0.2320186632672843 1.0346059985641731
Ni 3.5200949526404983 4.287835068590681 0.6030900750868289 0.3809279595078988 0.024867709775957172 -0.04994213624608173
Ni 5.993332493967555 5.6965541327999505 4.956545512945321 0.2445723315625788 -0.0015560316332102237 -0.1664820150170552
Ni 5.236460726204663 2.9417176899402024 9.216937096667412 1.0235859933045854 0.013766971877105324 0.3924570431934209
P 0.28454965806553933 5.809865719609273 12.423123360005771 0.381232378122195 -0.7354190649805077 0.6497429656679261
P 3.9853598815815703 6.0949515495187185 12.674996423550539 0.08082211365438985 0.8304750628460922 0.7052710806422176
P 2.4575237212396 8.383508684273247 1.409831258507102 0.24008858475961228 -0.8611069287993363 0.509200039114136
P 6.396249332140872 8.07261958437581 5.673880947089898 0.3148837754936319 -1.3968916603805361 1.8494099305319116
P 4.802895146143187 1.1916419230817925 12.980675056187852 0.6876531104501383 -0.5886106171329799 -0.10956653277693387
P 4.143376607267948 6.123852298740088 8.063856978649808 0.09446695813133409 -0.4318414585283143 1.0246023503842419
P 4.7349589130158005 0.9481909236864912 3.925034209272334 0.04358559790043461 0.4326539271272806 -1.3579404759283193
P 0.040223756641161165 5.467530865623276 3.6714511922794313 -0.4160661979719286 0.7017273291550172 -0.4765406012079018
Ni 1.4852412924046154 1.0038821511895308 2.4756611829728232 -0.36558258740008004 0.36180846506962855 0.7698181112856678
Ni 1.5135895672597974 6.560506301078119 4.855469874803521 1.1980826510960012 0.45904527263661593 -0.3266586566413729
Ni 6.169064627199216 5.4747764310814695 8.909256876572272 -0.6216688331395294 0.903125182212651 1.0444420108179884
Ni 8.217974684423993 2.177084110180221 10.305778937028355 1.5001551337575778 0.3716915285112954 -0.25410958162905267
Ni 2.2357279056074746 5.38938744215666 7.175057955024127 0.08255863672952234 -0.5156635353512925 -0.7304120986842195
Ni 0.7069851438875476 9.28691295647128 9.306519456601151 -0.5586125281089929 -0.6236164437842034 -0.4261171544500274
Ni 1.6102182396016305 1.192466106152662 11.355623332701937 -0.5398018231603928 0.2644950386284348 0.7308818392317863
Ni 4.1892863214024265 6.688943005781422 1.795586974892688 0.5023015122220897 0.03633765808876968 -1.0348229996709855
Ni 5.476796132452941 7.975746374199763 7.973996570141609 1.098121245508999 -0.5495177648965762 -0.16271046378976495
Ni 5.10921048284514 2.860576413765258 4.991221883532553 0.36167322504334487 -0.3757680125735141 -0.8705318216576621
Ni 0.6625526194108583 7.453114680743443 6.980542599037784 0.7277155256886628 -0.18630933415562753 0.16071760172945224
Ni 4.881735955285156 4.482387558099998 6.825065444044503 0.30649195188551087 0.8540052847575484 0.6291754259292196
Ni 8.050411926246447 7.344793477143451 8.799539090230212 0.18448590779364357 0.19425712824779448 1.6835236401173264
Ni 4.627914740327815 0.16462558707993202 10.513735722635332 0.7893361267139374 0.2718028851437577 -0.4217575919297511
Ni 8.085969538732531 7.401743621644851 4.409532491722181 0.4126201484048571 -0.21698465175229728 0.9111513949512372
Ni 7.558284063369122 6.210409635095033 6.8652837665115705 -0.5637069119127647 -0.7699037290209385 -0.7310880417053215
Ni 2.275841167375398 5.2674717463657315 2.6570267433482284 0.055922265088916595 -0.2530495157956545 0.2726426074362337
Ni 2.264628654828844 5.122297785454002 11.620526640027583 0.49168362749692734 0.5555081781520562 0.04470145667243269
Ni 1.0473555439386917 3.4380751516537478 3.8018079718291546 -0.8654142979254387 -0.7450295914870781 -0.7109370206787433
Ni 3.840530085029105 2.5077898316058174 2.53783085169117 -0.06552327851379038 -0.6936694918475472 0.27950642443560253
Ni 1.2510102750548653 3.1078585058965795 8.399413606149665 -0.6429007459351122 0.9452254538168109 0.10455570982590381
Ni 3.6623163456280134 2.5840584650101266 6.969486771844261 -1.096289334506583 -0.25168991644396654 0.18778720425273465
Ni 4.1049569964258765 6.878767763829268 6.030620890902466 -0.24012149488007678 0.09998300285355684 -1.3860385197161162
Ni 0.7070702792816813 7.574097509981629 11.205925421857247 0.05630870189405787 0.5078000734428157 1.020279811749488
P 0.332329633783914 5.515750103747553 8.264628880409301 -1.076926870819571 -0.19146722420748316 -0.524152289548594
P 8.495063221458958 1.6369453191855419 8.129711923099327 0.7618124673723718 1.4861863302823115 0.609623471939221
P 2.135820614895809 3.2647974537210507 10.649063865785058 -1.5426012187369302 -0.4333476107601956 -0.3986927396904876
P 4.020165766651368 6.044757894807083 3.8329195242109555 -0.16060267341814274 -0.04769602052438237 1.0681416684277734
P 6.9528083858551835 3.929052781014584 10.656752316431882 -0.24092804994177217 0.544712630198449 -1.2794020161017836
P 6.1784476344675765 7.567947836298988 10.16509541530934 -0.16000900569820184 0.5311572601115175 -0.5187771412796097
P 2.3130109181759306 8.433946876819096 5.821537419866741 -0.0019753785588159526 0.14288057354803135 0.14347758370208194
P 7.0491562925355105 4.013934580357321 1.5508589445853802 0.28509240316381224 0.7237172031625471 1.5316868858172716
Ni 5.671149368912158 3.2679221038248967 0.21749557253268764 -1.09491610830814 -1.4343577756467942 -0.790251182329039
Ni 1.4946242996729762 1.0938267893961804 7.088934446900993 0.21150331692275187 -0.6275461178559127 -0.6187753136418181
Ni 6.796421912396899 0.587892501538268 9.077949942961297 -1.1357817361742504 0.541997288149815 0.1399032360872623
Ni 3.00582283033157 1.729806297489114 9.400688259469929 0.28853151075234823 -0.9474150052689618 -1.0292766159314595
Ni 6.275628781175597 1.9645807322482285 2.3440980167743097 0.10871498340991599 0.2762714624380726 0.7654683189574043
Ni 3.8272707002406112 6.755901087571952 10.542236154365135 1.5285596530421997 -0.08701667250087594 -0.7776592045966414
Ni 8.033638442210728 7.440806276421337 13.217661199803082 -0.1355526724280504 0.21887955478216495 0.8557047839471584
Ni 7.768079411211114 3.7043677961560038 8.349214517263935 0.25788473240076876 0.6251053696249042 -0.3644541302225917
Ni 2.9649850120178267 8.305944906043285 12.225626453833378 0.2451001790415908 -0.17339005499079818 1.8069432767272686
Ni 0.19664011805696 4.648075526215238 10.405727889741405 -0.22604239107919133 -0.5367316688755015 -0.3399864840985306
Ni 8.641776865030554 2.51014464037973 5.950913330992562 0.02057422460692586 -0.8565733025950409 -0.3188486736786509
Ni 3.9680339231796653 2.75249974799948 11.65316247824265 -0.651916062059845 -0.23208242662568415 0.22333321967814437
Ni 1.2344632149397161 3.1046342292676834 12.90965040078391 -0.2130513781361621 0.5600585165269 -1.2886451319666066
Ni 3.122865883351863 8.078868884583501 8.008872193778942 -0.7614849088296239 1.2075993323371845 -0.18713517249103254
Ni 5.666919770075938 7.862561584785958 3.6342289111293264 -0.7459960691654055 0.2980996140567576 -0.19862311852597403
Ni 3.0283565389065514 8.220284208413792 3.5866137720251254 0.3282889931559443 -0.13402569426056274 0.8047771438593558
Ni 3.32048868122409 4.386909119274653 9.163702115854699 0.49763984508036224 0.5598811104087712 0.27814579664265004
Ni 7.549661840473871 6.278210013870078 11.197044169996866 -0.8342874946136469 -1.1035858681679962 -0.24406839534296676
Ni 0.7240339594106768 8.99418305500344 0.31353191989831325 -1.0641803697871801 0.24883110683893273 -0.7955383988699074
Ni 4.539156563464945 0.06645904346959752 1.7778244711719267 0.6400180250706784 0.8951377931318003 -0.9971632803366828
Ni 6.138424942267879 5.649620982544501 0.30865565434494907 -0.38565544689055514 1.0136458513727382 0.15783513797533463
Ni 7.779934967692084 8.915903777184482 11.087564581619244 0.2510016321276903 -0.1754957884798913 0.9948978813412737
Ni 0.26106315763280513 4.781919234141717 5.7756059690358885 -0.3787090974797091 0.21143106892391977 0.6515249972690135
Ni 7.966444879542807 -0.0644737585340525 2.5136261345823923 -0.042620148663371764 -0.3378247005605214 -0.41168760928825876
P 8.624450906628649 1.704301907076273 3.5450577370353393 -0.6246050329497178 1.2247743014545744 -0.24342716221454208
P 2.053366079981567 3.063089968321766 1.6031402278446578 -1.6551828841911043 0.9668430320865865 1.2982242910146091
P 4.749205506097974 1.130815401060258 8.08126173257607 0.6886933787891946 -1.05872988819557 1.1484873566663771
P 8.551931853348956 1.6517806144611928 12.433476367349847 1.0973360306035425 -0.22967458851513994 -0.02129336216113752
P 6.382980890395556 7.780967460769876 1.3686845979657036 -0.17127557975095664 -0.5392377231268068 0.19363543550339554
P 1.7465888384816546 3.069058502867953 6.056443180499786 -0.28413209613307194 0.16251377439792655 0.18818675368399848
P 6.866785409952781 3.9493313073407035 6.127281262593178 0.5543866629531032 1.216709779278885 -0.24013049374114126
P 2.614390213409489 8.583767056580893 10.16129149344379 -1.3007506569808889 0.5918512355574646 -0.5636657742621841
