# total energy = -340863.88830544974 ev
CRYSTAL
PRIMVEC
9.35648486556751 0.00000000000000 0.00000000000000

0.00000000000000 9.35648486556751 0.00000000000000

0.00000000000000 0.00000000000000 13.69416136874351

PRIMCOORD
 96 1
Ni 2.201796091716838 7.739319390882284 6.584248233209757 0.06714770149109081 0.7874160268730891 -0.5020235759703547
Ni 3.067766836933704 8.701764851710001 12.893190319624319 -0.1271950444919745 -1.7706729815413245 0.5336023792179004
Ni 5.559295839484178 6.721464826587641 10.945140226590748 1.826798878000615 -0.5926403071176632 2.095116889919566
Ni 3.3874592123571894 8.164159943401565 3.672253770470487 -0.14801583789206765 -2.31915407764327 -2.159497570188481
Ni 3.77201074097769 8.9957643196495 7.82639083918745 0.4173568917588941 0.892587773016437 0.32710705703270115
Ni 1.7128636177608072 7.43399857623644 1.1522389496989642 -0.6486381626395216 -0.1564850517053434 -0.18826285833757253
Ni 8.709409099858004 8.418272716292178 0.8521680587200055 -0.22453495329572942 0.6699441232061494 -2.015796043401051
Ni 7.112603320564562 3.3858592534424914 0.17567548883388792 0.9833510570439388 -1.4379038411268397 -1.856790539266699
Ni 5.8745719540437005 3.769652906787608 1.9110882351585736 -0.5122568236625887 -0.23487001667315036 2.0333165687833175
Ni 3.2724305872267654 1.6064616716909206 13.299714617340012 0.4614330561425021 0.8358175581049283 -0.6489268975245339
Ni 1.8928636739068216 6.209768024915463 10.560129294562575 1.4813122900194617 -0.7219889076175308 0.7736279719500612
Ni 5.564086359743392 7.808529309549092 6.2229419556283005 2.044614767404956 1.4195446218933616 1.2092795482530851
Ni 0.9186692750136844 3.9298078585004337 7.120593758653172 0.15398619654288964 0.0420035981252954 -0.355321057573072
Ni 4.582450748424175 6.3456335418764915 4.675364385889211 0.1507059831297211 -1.0016280009762557 1.0137219560263122
Ni 0.3173476403122376 6.278715962005595 6.019501097909223 -1.40130187363309 0.18685852179087817 -1.5400049187646638
Ni 3.733340388963371 9.319479983571933 10.785302459715398 1.7246193817163717 -0.7229217038444453 -0.9039708180423981
Ni 8.168070954081939 4.671683544736917 12.146570895553028 1.7141657904832155 1.4766670779379665 -0.705095731406618
Ni 3.8106717365071288 6.199653664758802 12.608118809558537 -1.6832904410605978 0.4096075868307784 -0.24368504386161904
Ni 1.6316493289913192 4.557309873548182 4.791943380564463 -1.132453443131966 1.8802986496909682 0.3903561948003342
Ni 6.111730776329439 7.578546911167294 8.820532328198983 0.0952773698477714 1.324068505771223 -0.544888493654681
Ni 8.427573062264166 7.973933249280313 7.665073812052371 0.021972647616349254 1.011691555859845 -0.2197755842338731
Ni -0.05492818014402702 7.374715888028667 10.632612111640855 0.06687387900441387 -0.5937042296058034 -0.13427277727436232
Ni 0.9023309811139979 2.2609103631967487 3.951491512212794 -0.4462211242887541 0.6628224245597036 -0.08257920555481263
Ni 1.138150890413225 4.81211502632001 2.2499230430006647 1.6328078589300137 1.9234710713133838 2.7775113230739263
P 2.729314709323257 5.918837484017024 3.501295821313739 -0.025218408247156567 0.17937275493679433 -1.1633208221347837
P 1.2964251886649132 1.1527095808884926 8.034254507309909 1.8860260390930486 -0.04269471065504905 -1.161204032902097
P 7.425923929783897 9.36237946675259 6.059488842994827 -0.1036473390790215 -0.9579105054836469 -0.6181572204418451
P 6.691177885026947 9.247547327804673 1.5506034569496947 -0.06741612466112906 0.606766204996084 0.8735222717445538
P 2.8091442383303153 0.02633756929230771 1.868335648790553 0.46444356083405175 0.6282135762365826 -1.2169185528555817
P 5.865084478374086 5.245105077170883 6.365977346953853 0.5230521145058797 0.5532726039533181 -0.13285867053565506
P 8.719841580500628 9.486633585975955 9.653220185396169 -0.4369271005813378 -1.8335873616773581 -0.3058854286497635
P 8.919331194654342 2.0941310201879793 0.27454733587132235 -1.0475844131017118 -0.8207354669608251 -0.48049495786995966
Ni 5.160934139178912 1.4787924354858908 6.174820618235404 -0.7355067395983075 -2.433366593832648 -0.8522813600879063
Ni 4.684576780903318 5.667007693437443 2.4430521187320875 -0.6282981655305889 0.9370717143614249 -0.5245556956345998
Ni 1.7590472271347923 8.847754085312571 9.502228039327578 -0.9181962176131605 -0.20603560893996128 -0.31434564360197476
Ni 5.80946017575489 3.2889447830422203 4.7976265094813515 0.5697443763560962 0.9813594805352066 -0.45781371422236
Ni 5.833337925171911 5.490656666395127 -0.06880197592598512 0.6008292706863588 -0.1559515477993766 0.937539655136779
Ni 5.828528691942934 8.019602251985829 3.1637896343247895 -0.4131927330788755 0.1107430695835383 0.07164533225112822
Ni 7.377214069491968 8.438417228241567 10.930460837460512 -2.9549655208317693 1.6188249143873603 -1.5147204331662623
Ni 8.902938633142345 0.23307565228354846 12.15343107026798 0.9485555466313083 0.24617747126616954 0.4635161639237759
Ni 0.3470348311920426 4.56879028049751 9.667899574526404 -0.6456366568090365 0.280599143279149 0.5573624577519756
Ni 2.6922536727085173 4.3547981147778145 8.595975755399838 -0.02165434504498206 1.1846326962386824 0.1545893773445273
Ni 0.19680430299278853 2.038740629690817 9.673582703443293 0.7520718430458402 1.0078166462854707 0.07476073795165834
Ni 2.1501576516570684 2.0869452397991584 1.6902564789906647 0.4824734217525691 1.26921324849424 1.2159556747216802
Ni 3.478572662131069 2.017042941251135 7.990488613629246 -0.8428945195563677 -0.9071692703750376 1.2593844353292762
Ni 8.246927408661344 9.324186295467216 4.003501404722351 1.0076161002388906 -2.409772351452476 3.1360439456057607
Ni 7.679634373824615 5.713079024992853 8.121856468307845 0.3636131223785351 -0.14290988412407002 -0.14934844066056213
Ni 7.321982739237787 6.957210819656306 5.039286736643472 0.39849656451928145 0.04932661414926989 0.127903897633541
Ni 3.733200041690152 4.154775180985866 0.7665309595471379 -0.9589960252383419 -0.006690524646298155 0.6572832399090294
Ni 3.348480096341788 3.8221708564262182 12.11158232033949 0.6633240467864706 1.15832748268525 -1.1075872760179053
Ni 8.159350710172587 2.4556375265458934 11.466546252624228 -0.704454241167877 -0.6029707425093938 1.2793832470487063
Ni 3.633300852612753 1.3413269596101636 3.689782209247072 0.7175563257674739 -0.6620222972559114 0.5534926903839241
Ni 5.400572429958188 1.9554304883079234 11.396951782428797 -0.8737904378042758 -1.945062938551547 -0.6282837673528857
Ni 4.957430593011128 1.5517355916203293 1.5212568421195682 -0.11816044509353199 -0.40380383566480776 -0.4119773726145356
Ni 5.437362128511371 5.164648663676779 8.830241552560285 -0.3394745774591186 -0.8096090180303606 0.40348758997596956
Ni 6.608915669950756 2.955919416662914 9.578490876297893 0.42310253599341974 -0.6833639961564811 -0.5625306322164764
P 7.473903984255088 5.686085566110368 10.228648683837168 -0.08471167851678314 0.4869286293104452 1.1213059111555785
P 8.501695135493646 3.446376997654593 8.25347133418731 -1.5487582394772617 -0.5565466467188996 -0.7796147856611153
P 4.231517069982104 3.473183326839453 9.714131837621773 1.5395310644520388 -0.7092195237670044 0.7577059014031661
P 8.133255473838705 2.752443939949775 4.221033128672633 -1.2148254177719788 0.42187432001327346 -0.3047423161842558
P 0.4724379267588271 8.448119903063452 5.439225004651234 0.05176504838743344 -0.3287368793266403 -0.410696449019583
P 1.4251797771161714 3.708190157602497 11.414658930066615 -2.321789201273272 0.7058387802202295 -0.6128214100512284
P 5.430878084488645 7.586771261377938 13.076089014786552 0.7211540704210613 0.7330580209474988 -0.8669729006618101
P 3.8556109333919033 6.990435697469723 9.936469987855569 -2.0093885972128107 0.7393417970736815 -1.8835670360295946
Ni 8.585183050089285 5.3029562231918215 3.9428638975037678 -1.1608196529794848 -1.9956187971222277 -0.5314691349249815
Ni 7.981568140943437 7.344700284529528 2.5321735728747425 1.2898982876474174 1.2630767965791991 1.334114320042999
Ni 4.159135302940542 6.702536657672818 7.515341984497289 -0.6670752862987867 -1.8850215090879343 1.2331938929768373
Ni 6.324628233318023 1.1822947860830917 3.635690498851431 -0.9233628494157646 0.57747388378987 -0.15874428005316532
Ni 6.059858424147636 4.097092451692792 11.494467874806935 -0.6258407051290319 2.341797011853767 -0.37198309160978515
Ni 8.467029359008514 3.6013016743187842 2.11014745100775 -0.5686930522734464 -0.9558042577739216 1.7869547494204838
Ni 0.6341469906104322 6.967521665995474 3.622064649918827 1.9923043880370142 1.1337325669547054 0.014406148123000995
Ni 8.391934211351382 1.204666141434226 2.330089405463449 0.6845245921234857 1.4959755484585913 -2.9426671630803902
Ni 4.33857396999368 3.6633351690816536 6.770228954491883 -2.0434338597229775 2.2698099799925036 -1.5091987320170848
Ni 2.6442361922978015 2.0343711512512606 10.53483590898302 -0.5106221162726432 0.3501436271371905 -0.44955198843419997
Ni 7.618901430460244 7.085656644106483 12.625017556902609 0.3376989736159345 -0.7723863862334762 1.1977034133797113
Ni 8.397155129915133 5.475976341616403 0.7724807482831422 -0.20770014112657778 1.7681967520866904 -0.0545958329680092
Ni 4.127248402465148 7.866923131693144 1.08836409871146 1.2021629918129617 -0.5248991950169476 1.1025232312314368
Ni 7.063631478695956 0.8653457320267965 7.952939168503703 2.1316900610579093 -0.4488153673784915 0.19520586531430897
Ni 6.315009766860071 2.9521300402859967 7.333127248379876 2.31798062616046 1.587707881267582 0.04988531486621731
Ni 0.9183333772064466 6.43051557271944 8.100945660246678 0.31834499456935494 -0.27000954068876076 3.203078518557755
Ni 3.45030672130473 3.634863385587926 3.2588543276640323 0.4318324596672498 1.1758197259327428 -0.6340474093095403
Ni 8.851215984718644 2.08322135881641 6.224543785839976 -0.016666919132719685 -0.8351830098447228 0.19179118320580518
Ni 0.7036684802237876 3.8117851582080005 0.5015141391758847 1.3635508801365614 -0.8754778528090277 -4.258520222920357
Ni 1.5501169197358682 0.05070840546257092 3.5748742827716162 -3.0646595803255026 0.13831866520896177 -0.34380174407956277
Ni 6.581585377612544 0.5077174886521716 13.06980332824331 -0.29146308257684644 -0.5206705016475807 0.5393878755514259
Ni 2.1996160307395005 0.6732786173293986 5.793972386330913 -0.12599485353628626 0.9945705799088418 0.6274998379990097
Ni 7.943477890991756 4.416738044691871 6.192116080538445 -0.21524504335337122 -0.33354252824539976 -1.247417235665071
Ni 1.0655726371891563 0.5911464573930577 0.37849694725382593 0.2107672100876757 -0.8549136555044309 -0.6703894382736841
P 5.396015821821005 0.6257401889446046 9.054155334848087 -2.1461504594576137 -0.3587295690339886 1.735488463220392
P 2.6714448503325565 2.8609510951179487 5.13665218961502 1.8211553065615926 -2.1810413577975276 1.3107455634100715
P 4.2995012891294655 9.03422882899643 5.207136461522659 -0.2245112991466456 1.700398561495794 1.2808837428536326
P 5.060698116645788 3.137818839239828 13.15662402275366 0.6320555756904921 -1.2787831515708623 1.8034175229621974
P 2.4314323001580287 5.639705470553876 6.700183501725177 -0.24214341040611198 -1.2092378963818722 -0.027336483031423886
P 6.844409037927627 5.786546144280643 2.3859335854773533 -1.385324267257911 -2.8829954582513704 -0.13030993597187235
P 1.691268850654819 0.5629815666034366 11.826702618213773 0.29033025452398387 0.04595358391197892 -0.3846437177965892
P 1.0179200596888105 6.884389297825325 12.700362522706074 -0.2209742325276646 0.08872439922060205 -0.12853278946679153
