# total energy = -340888.49003039015 ev
CRYSTAL
PRIMVEC
9.11588674549462 0.00000000000000 0.00000000000000
0.00000000000000 9.11588674549462 0.00000000000000
0.00000000000000 0.00000000000000 13.34202169998400
PRIMCOORD
 96 1
Ni 6.576346393926343 1.9621398793681895 11.389990273896853 1.326122560086774 0.3325775932289692 0.4131384828021724
Ni 4.6597494836412565 0.6031498972163334 5.784353614617986 -0.38343221398699123 -0.706875191904544 0.18684206673064596
Ni 2.4566220280759263 1.6567759125255568 4.846996174002606 0.5518083607029658 -0.45674490663821343 0.9069383853111541
Ni 3.698761841973591 4.287556952677682 5.12304253818948 -0.48781488857014055 0.4168956358517594 -0.7043192582519096
Ni 5.199975150935665 4.910445478988419 2.9009558618277045 -0.42877747489101 -1.5459526517076667 -1.4416221705186911
Ni 7.536887357154243 6.2648383195652935 2.4819760432702487 0.33648258471033016 0.22673504627084176 0.7686824550193276
Ni 5.564838509132464 4.303537101757482 11.852078208246361 -0.4322384368564169 0.688694150120143 0.015326345944425217
Ni 5.732023868016394 7.821886433498146 12.497271485708527 -0.6920018743371372 -0.08552774666017529 0.3265506703085989
Ni 1.9248650193640244 6.5738942204508914 0.48274544480571596 0.0445693019699426 0.8140205168344947 -0.041076715435651834
Ni 3.085554387153296 1.8770066151033575 0.34854592131554296 -1.314563137383949 -0.3828362322742052 0.541151652320068
Ni 0.4882833458701646 9.02540223618582 4.7895724700103735 0.3604676347710179 0.06641750819328562 0.1631238971780997
Ni 8.526507998399577 2.198122833862644 1.1938055603603484 0.23801704694256431 0.8673912191461514 0.8299341027409577
Ni 7.048430809440088 0.5395857320602944 4.686572068154892 -0.8929274157440428 -0.11536308485405293 0.7570520698692511
Ni 0.7368471353589325 7.706342571783107 2.3121324918753836 0.3885911324801114 -1.218876705023217 0.863907631472925
Ni 7.614764375744506 4.104756080174986 3.7877866781963045 0.6149513119100377 -0.3595574642519227 -0.2772363974545032
Ni 7.759451726682659 3.9961949875387415 12.820708609177291 -0.08538479332440778 -0.766905565624563 -0.027394589962868948
Ni 8.102263755373448 8.794670032330252 6.836411697444765 -0.2920660062681679 0.08919285421658833 0.23461676301176368
Ni 7.023243614969188 0.5196438186963639 0.2288424805787628 -0.5420265987258536 0.46511976096547 -0.00276702122217588
Ni 1.6658462196187689 6.593611883006287 9.36967462989805 1.464669282146142 0.601535552724764 -0.15030643369845728
Ni 9.507413852126207 4.823644007489358 1.1827406972952823 -1.2259043012939597 0.02491707495665386 1.1677546895364213
Ni 6.443755824407981 1.8610173501370317 6.858439325645808 -0.2480263515494502 -0.07364050830428608 0.6229577271542819
Ni 3.4911292945745025 4.4850252866004565 0.9112158128252252 0.24552955326952555 -1.3531127155223728 -1.334753753399211
Ni 6.160543461823144 5.614210150556421 4.717124873434902 -0.3928725334642847 1.2750792203567138 3.1086151599708463
Ni 5.2629750427157544 3.064560500484284 9.634019842140354 0.2946551071515829 -1.5213343389383542 -1.1781098075185001
P 0.16689912004701846 5.6090414428962685 12.455404042072642 0.009721855273454226 0.2117061769621773 0.7488206830983942
P 4.335406241051823 5.994825760669873 12.645287958405918 -0.38141904021170436 -0.14093939066126052 0.26253765779174787
P 2.5724484822732663 8.623528378694106 1.3260971288006629 -1.1943424673272787 -0.26141254304836914 0.2706248056752565
P 6.376626436031685 7.806845220730509 5.881069524302553 -0.9095760800443173 0.16579964423804994 -0.5122408828229887
P 4.837892138129249 0.8782181267789849 12.364758401225632 0.2831059688614027 0.2898342887241718 1.5535726301467696
P 3.7956363680837066 6.375441370783327 8.284408284046284 0.0025993852960600394 0.25313153398649957 1.3885810836323116
P 4.515435884050663 0.9330018700333335 3.5351954900404197 -0.4404855073565575 0.11670597203519255 1.0599431917773812
P 0.29039750434450634 5.714019992127858 3.539571115572824 -0.20488324050307297 -0.09080519300903071 -0.3912997896605261
Ni 1.4049677790222421 0.9777882205347919 2.7594371930459336 -0.19925535279333426 1.0621512551722931 -1.3881743351121962
Ni 1.8412632240355336 6.4627351001547835 4.995119302572349 -0.005066101668997727 0.27900917308420986 -0.6623046043830206
Ni 5.931962607187672 5.311024880593465 9.328621234928923 0.23641422123181866 1.6715746952855661 -0.19042901275095592
Ni 8.77963793544914 2.094074105056691 9.950893527310514 -0.08448773543143515 -0.13486670210461937 1.8420190373844791
Ni 2.397077057289131 5.169983884265648 7.1089229208369185 -0.9479878470532964 0.7833763095860766 0.6967730704735355
Ni 0.41395696508171737 8.885482493900682 9.022888986270647 -0.8122677958094463 -0.07853948826780022 0.810841861996197
Ni 1.656146916355274 1.3881216207224873 11.504638043966402 -1.1851309760313395 -0.5537953092260075 1.2585753091644196
Ni 4.09126456811674 6.5729370523656785 1.6802538782728613 0.8821359815554937 2.6498771341620038 -0.4504094513384888
Ni 5.548630462889519 7.791484951934466 8.155950857478738 1.1553334330539329 -0.3939482830269667 -0.5626725571109794
Ni 5.50985148160859 2.809880862725329 4.6851308464951575 0.2086195676170536 0.11811210835409983 0.5625365457537473
Ni 0.7921687159183057 7.296109446347197 7.025855316458841 0.10378900686320836 0.37063917598738105 -0.38438917858362187
Ni 4.951074985234094 5.0630454194310035 7.0672022429741 0.21089833634890132 -0.6136811869483625 -0.3088424543955584
Ni 8.043685068558391 7.095860767034041 9.040714190783277 -0.06806609954030214 0.25860001330023846 0.7311901145008245
Ni 4.972515550342873 0.5005888810913978 10.284964332411674 -0.39985924919476296 -1.0830867197733798 -0.37492469073661233
Ni 8.238892662622758 6.981456391134731 4.875107744870995 0.015694527917121354 1.2669632761177985 -0.5256232176671657
Ni 7.389091488910778 6.2060681991331945 6.986109139617521 -0.3479607605532588 -1.5816886716566954 0.13812968912660728
Ni 2.223856981525094 5.508657300473705 2.6310864223507404 -0.039576990961673775 -0.5332030868969527 1.2320376678852072
Ni 2.326447168486912 5.390123427978189 11.854986176048104 2.1050878850893486 0.15926441422269344 -0.9223454638948438
Ni 0.9419263229421322 3.3183923607963357 3.666321136594079 -0.07826000935416845 0.2891794287489923 -0.01571149719798584
Ni 3.6533738429614266 2.8691523569163495 2.9052786152182586 -0.35818655204632505 -0.011516999500664036 -0.5858883331058103
Ni 0.9923371754300346 3.14350407779807 8.344700757528198 0.9525710955486046 2.1374213071147317 -0.2896221727133657
Ni 3.311409591717541 2.82327210003179 7.312388596505044 0.8057402791035736 0.019559410189166314 -0.06395850512983178
Ni 3.8226649716328263 7.212206826763353 6.090472376864959 1.3798632441433398 0.40019246416446563 0.47352264031718444
Ni 0.9470950306022842 7.466211888919395 11.711119254897277 -0.8451789447151703 0.6460588319481196 -0.4092072660685662
P 0.2551217582554582 5.5277915462914455 8.089761317003257 -0.5193052458689379 -1.3727749698379907 0.23284398738205708
P 8.587347425073043 1.5988900330864646 7.71409016374142 -1.3118945894128502 0.15685246234709116 0.3754728499305985
P 2.130428260521746 3.321865513562681 10.521104080154373 -0.7639799073373358 -0.5007207979985312 -0.3160212315321848
P 3.8430936733372363 6.289104809497084 4.053559438268556 0.5047833981036791 -1.1683576132277427 -0.4791883232433941
P 7.275516658685321 3.9473611834198095 10.403187353176657 -0.479452118427742 -0.16506122341012863 1.5787499007433456
P 6.28137453772317 7.64958706227322 10.2721154903535 -0.12004557793138682 0.05289401978555407 -0.5406484874314044
P 2.3084979879175305 8.754924767077583 6.1457082680909885 -0.09982847955356355 -0.007342042187368001 -1.2647302730222219
P 7.087774975685619 3.9340702208651326 1.767270484693932 -0.8905008085804211 -0.13485101837533547 -1.5818226261313983
Ni 5.40469973053301 2.567753800712458 0.39759668353378996 0.6213438456999428 1.1038362936159054 -0.042440171442081745
Ni 1.4693441696677334 1.0610618439483523 7.483206636169522 1.1585635099554563 -0.17553332658604606 -2.2249074630528582
Ni 7.00263259553426 0.6456217241288806 8.97975443440767 -0.02976951795294873 -0.22239039614890088 0.3864578881871925
Ni 2.7160601586013704 1.388823543984977 9.458212677780283 0.5535824218842531 2.352062655445833 -0.2662066220029028
Ni 6.250362291762258 1.828592141764614 2.584509711735607 0.9274182504320608 0.4172617609419266 -0.4807806074311784
Ni 4.061565009815549 7.253501792725415 10.721822227623608 -0.26307296146992754 -0.9434657908132268 -1.1669797590436095
Ni 8.139082821051321 7.364660913021523 0.11680641199886778 -0.03481325102444327 -0.9300415469875208 0.2821425765068689
Ni 7.698794617739711 3.5961078438060916 8.411730782741362 -0.24099027063827527 0.6684348856504746 -2.1913185713538197
Ni 2.9888074834545426 8.586946326065906 12.473935727791025 0.5313274671407946 0.2611369207894793 0.39859555199099095
Ni 0.5309794235912476 4.755812695850572 10.39810433484985 -1.6812518133640142 -0.47368384848539713 -0.7306113591792192
Ni 8.303597225183179 2.7133253926436183 5.556952355698959 0.6908443636939263 -1.2676245638508814 0.7537605436021728
Ni 3.8891106685196832 2.684409800583649 11.576058280130411 -0.09578593405307374 0.2802942104442205 -0.15631895844112434
Ni 1.1267235745939874 3.5420141731617494 12.630264977411331 0.014222571357285182 -1.3619262000489447 0.23982684645779345
Ni 3.38745431711611 8.586618154150974 8.435959897538396 -0.8780340435719781 -1.17032759246992 -1.2385566999506474
Ni 5.426596089968081 7.857438390948928 3.6294300554126515 0.16566594687366307 0.6305728204973785 0.1791017606635948
Ni 2.84267070655878 8.21025966304509 3.623439094787869 0.7290818099085702 1.1804916774871155 -0.11998489989678048
Ni 3.6090706344458376 4.6671789311598175 9.726573438037223 -0.6243224687122926 0.8882040421264445 -0.3384268529208945
Ni 7.419866721822019 6.01971213088542 11.256716924477706 0.4617151061592951 -0.04103249246127772 0.7061033467355258
Ni 0.4845166615576869 9.166935490386035 0.4294494142323847 0.7832472402073801 0.7165232565172691 -0.8240146519327293
Ni 4.642985368320235 0.3282275218380952 1.247134408125173 0.21856253776237844 -1.225753120428076 0.6406515448896193
Ni 6.239888138144066 5.633626988856463 0.6713622529118988 -1.0572851853292438 0.15124540057295888 -1.5733567547522322
Ni 7.783289769947735 8.776009812611855 11.366975395185062 0.9165928776817828 0.39249972350589823 -0.5526475687748095
Ni 9.287447510257657 4.945131427219246 5.637604250147687 -0.7899295373235621 -0.2816720646283536 1.0229936111362254
Ni 7.9317693296806375 8.919876733762681 2.5446040068800837 -0.4119169516902454 -0.262643844352309 -0.4167064026590888
P 8.385986607603733 1.7187821726743295 3.470673245210515 0.8764512724658906 0.0175637199153762 0.5270123847052085
P 1.7509612521105495 3.1088181295672435 1.5727310851119103 0.4853875100755705 0.049880686880527 0.00013678268818040958
P 4.662383974847225 1.3191872868140753 8.238924568225597 0.7440134915177381 0.07133242899639972 -0.632369250276169
P 8.699317859269952 1.7107146130989601 12.359434723494543 -0.25304000271395777 -0.6128476353034735 -0.2515235660694314
P 6.2644189887851045 7.872379328964782 1.4518252589423717 0.7485170358150462 -0.8560302856073774 -0.06006148406827075
P 1.7274513807604048 3.5260340240819494 5.918574104647169 0.5412586102115775 -1.8368084397178173 -0.6103827187027487
P 6.7066853394728225 3.9920016797368545 6.34982846441167 -0.16069317624942 0.8630625098638104 -0.9789398153501205
P 2.097118811156322 8.62882470876562 10.27861329426912 0.7359214585382229 -0.1967816944418611 0.9744275293020639
