# total energy = -340892.942956485 ev
CRYSTAL
PRIMVEC
9.07083005230382 0.00000000000000 0.00000000000000
0.00000000000000 9.07083005230382 0.00000000000000
0.00000000000000 0.00000000000000 13.27607667510178
PRIMCOORD
 96 1
Ni 6.527333172935861 1.612086095754433 11.41767809980008 -0.3169411722432929 1.4771090505713915 -0.20952022505445206
Ni 4.718881743678023 0.2732134074797916 6.034269145322321 -0.5641398856851252 0.22900995834794752 -0.3325709083607499
Ni 2.7172034881873004 1.4749351421988404 4.740435850545669 -0.24199351509180902 -0.5460452329669435 1.7215517985346418
Ni 3.509594936520789 4.431944170012411 4.927787500018108 -0.8276910723430521 1.4843994135852177 0.7193663823930192
Ni 5.080381542094097 4.461723705761287 2.862374869860212 1.5611488998321308 0.6559655495388703 -0.7682073151551221
Ni 7.037458525188468 6.069464873820408 2.4800112547594013 0.2731118337631684 0.1135093194747658 0.5448694674912874
Ni 5.056507116845531 4.676493753865505 11.416085262006142 -0.18195208562819631 0.3053074446591065 -0.25384835754786605
Ni 5.485276192481729 7.842875685777632 12.497925996904684 1.544697439144327 1.2200221314815698 0.46099288328128996
Ni 1.907949366397473 6.470413713044237 0.6181607548344733 0.20851878037313124 0.2481659624511081 -2.3555233603009236
Ni 2.6661709971354646 1.5534794614341496 0.6020845223618161 0.10508844240092226 0.41095690176982125 -1.05534220267026
Ni 0.33358250411990636 -0.016970616336452263 4.566492702365947 1.299919419328845 -0.06053816659437316 0.32652624482856674
Ni 8.771783129548401 2.6092152539227946 1.466448473406075 -0.5525516666268936 -0.5342693233779379 -0.19565606547785014
Ni 6.951630329253083 0.7783180551825957 4.786251707114051 -0.5988664905330331 -0.21044299397903757 -0.4468942390963788
Ni 0.9135686697983801 7.215791048131784 2.5841888332310035 -1.1442324380447648 0.5578239707694264 1.5030041731705985
Ni 7.511763168737964 3.836398809186192 3.7858189525644104 0.691051594608726 -0.17755087123670713 -0.2399590011602835
Ni 7.7303792488731045 4.082136671803557 12.816870902231424 0.6074688874900634 -0.8143701868644297 -0.4837301769778056
Ni 8.157207166833318 8.944119833688791 6.669981049629991 -0.6453816033754369 -0.6495781579552877 0.5800275034496591
Ni 6.87913625380227 0.7853633690467906 0.32759757031329395 -0.49374745200449155 -0.6568818907055527 0.7123575551753538
Ni 1.8130049860491668 6.584606395207687 9.006145263934677 -0.06811315072815367 -0.08795538226506143 0.5824111731904873
Ni 0.22444953107638485 5.063555151958805 1.5446580790047308 -0.7713324910476651 -0.6903987915160755 0.3303548745460375
Ni 6.36213521221136 1.7503709030927272 7.05575711107522 0.4705000514407768 0.782683140173794 -0.21196431571957047
Ni 3.5594482196386155 4.516393599748031 0.4239052964499205 -0.48459226786778475 -0.8285863304638117 -0.09302045549279464
Ni 6.071796077197642 5.657250063411654 4.973815614014612 -0.13002660040349864 0.4413177734498658 -0.9463053171445509
Ni 5.5203712347639105 3.1019155412428425 9.343994686609646 0.0400503310536665 -0.303827003458838 0.09603995904540878
P 0.2016191583909304 5.637294236836105 12.487464608363966 0.8551283426183983 0.13575990334285007 0.30192747244328
P 4.075596603184934 6.314195874278734 12.619349037869664 -1.7492261245214584 -1.3487025022698191 -0.8211532712245341
P 2.1082877235554633 8.515686378772275 1.3530975642909033 1.83088358959295 1.0230794859818122 1.1471485832502955
P 6.380349439376679 7.825332700051673 5.832831403536623 -0.05230189472750993 0.17573438685325862 -0.2578065708646657
P 4.4771078338849835 1.2060666624143614 12.373741795208067 0.36585229612169895 0.5208602490608836 1.2743508268311214
P 3.9047112318864015 6.128561332974818 8.274075743923943 0.4888021921840743 0.2575445754525307 0.17431050992253852
P 4.524221726263803 1.0297478637891229 3.6257759446775846 1.128868811104501 0.09248360915271815 0.7562894806716136
P 0.21192724990022774 5.4397496953986915 3.8078574417680255 0.8687688162199683 0.01057726129521404 -0.8464629536339164
Ni 1.4763955458709601 1.3036687960293203 2.7212635918123986 0.09025600537378003 -0.9359728248702913 -1.0591844592344855
Ni 2.0560125287577864 6.634804369875455 4.90852377779152 -0.16315937840172545 -0.7875453533621017 -0.5663016692231344
Ni 6.0926589867993535 5.581309072461428 9.252323968902758 -0.4364661017845193 0.3577857170634806 0.14131914259818243
Ni 8.6188489313376 2.361563446120229 10.138528665050927 -0.18429975992476647 0.014299961562439888 0.7253177148804476
Ni 2.239769408197548 5.159025640462284 7.053898497954615 -0.3494815680731594 -0.2621651049436775 -0.25700232979581544
Ni 0.44763821674640547 -0.21338311815721664 8.96452466636229 1.1818831585180032 0.8028218199051981 0.4918072975589852
Ni 1.6208938719384594 1.34926785975445 11.479425055556936 -0.8553024063024173 -0.5879395592078842 0.2359334249406582
Ni 4.209355066222683 6.913142796453057 1.4057909243636408 0.19122425495874162 0.767311285703414 1.1228051214089243
Ni 5.821776782696795 7.998639983030055 8.030526672648705 -0.899585801600825 -0.2375550197044812 0.27140487837439065
Ni 4.95321757265654 2.7717101072293344 4.86272152746853 1.9582095032358338 -1.1614454594889416 0.7766734436446043
Ni 0.7224898161714445 7.325539023467043 6.77058653514457 0.13727248333263456 -0.4391377350794114 0.5851936210316309
Ni 5.238830805103958 4.693946031288848 7.038856340131781 -0.3719057014046305 0.17853560374747962 0.7810965124129644
Ni 8.11983534615547 7.131777018248722 9.258377841019357 -0.5649500402912463 -0.6371571585831156 -0.23015975568167457
Ni 4.742357052395079 0.24657691441656424 10.369199878603752 -0.9388943693924605 0.31265462905279706 -0.48668308895854256
Ni 8.148072840759871 7.018119515070708 4.590110423118109 -0.2481109408434566 0.9229468449242685 0.3951230200613582
Ni 7.366031209754885 6.269694381015259 7.0404500850087475 -0.1881196478914889 -0.09832258443199841 -0.1336924792908601
Ni 2.6268308062908474 5.265027362899497 2.605443602700016 -0.4471721753481138 0.5866606924954606 0.9821086999964054
Ni 2.250291571301019 5.2722023896364325 11.443381204429388 0.11875077037936321 0.1636481451126859 0.15246513191267289
Ni 1.4606848678578461 3.4122649278136787 3.931922815588215 -1.875909519484337 1.0750080565303035 0.703888341362078
Ni 3.545669628471225 2.901667892387468 2.903517434677811 -0.6255257449917743 -1.4974259077518726 -1.3320224705109769
Ni 1.043517384126252 3.006463194399886 8.306005066444822 -0.6192815638542754 1.218108973619257 -0.969793115853846
Ni 3.7371457844636193 2.89785814367759 7.3474586847942325 -0.5750521617222547 -0.7550203841512029 -1.1194889125514977
Ni 4.226127031376406 6.890574570762164 6.269069400810234 -0.13664024906527436 0.030417178839276644 -0.6615229890219897
Ni 0.685012773862563 7.315869518408164 11.15408158656365 0.8379158353948537 -0.37212013140828176 0.07508726805314164
P 0.04901785965073193 5.395901301914053 8.025521388510347 1.2933417661113273 1.3479188300262592 -0.2000210273147652
P 8.496528785259747 1.5228019134893735 7.983078066633232 0.023111389206482775 0.5124722821075044 0.39859992286636514
P 1.5501232542373526 3.3760995275606267 10.349166949970979 1.681051010207118 -0.3826146031817023 1.168474341311265
P 4.265947976224888 6.2399874119084755 3.773844549536055 -0.6544609399688859 0.2264979905593712 0.4350213989181927
P 6.999007275709489 3.8350472554772117 10.797619727274878 -0.2869117157607381 0.636800289464329 -1.371836002963489
P 6.296571251080419 7.8171961653070055 10.366664581545631 -0.8421576413903431 -1.5068148051659405 -1.2813205732807351
P 2.556468375951513 8.555008427956368 5.902557061591592 -0.5889299481456115 -0.5159833805845565 -0.862171622618425
P 6.974706521438627 4.014132657332242 1.553486718098359 -0.46890056816414083 -0.8680329664952082 1.2206024294650721
Ni 5.209169190148483 2.8018071220373675 0.748813365590646 -0.09429572266079245 -0.4327156336031516 -0.687018819300249
Ni 1.4554147154758488 0.9946709631674644 7.016287207357862 -0.07584240105161132 0.5189663744722804 -0.686012746633238
Ni 7.006826331394999 0.6232340701997936 9.22958158327084 -0.48595726653611154 0.25770706917232394 0.07474274022952934
Ni 2.6631322689978236 1.5023381204191741 9.291833784273264 0.5878220597934134 0.18279695012699487 0.12020447210675426
Ni 6.450911427981769 1.7553507889063529 2.5782011781753127 0.15593740673198953 1.044385189438124 0.3885011438694664
Ni 3.995628163598551 6.931130252861837 10.436961701907082 0.5514337509723665 -0.5152434170947384 -0.6758741155373392
Ni 8.145823274854992 7.026881937103426 0.4711479946184547 -0.40001865759076266 0.734086205101697 0.16095080078618088
Ni 7.5940355992107955 3.8626497919633005 7.831199713064883 0.19093192052930344 -0.6672349518051025 1.247747108200664
Ni 3.1680691063407878 8.43491970612287 12.365842916216254 -0.9461325390121125 0.33132418043784234 0.566443079897005
Ni 0.041010130695779745 5.058148937122883 10.220083592850067 -0.7746497283463563 -1.1168913270276506 0.07339316818017039
Ni 8.600562137530188 2.2928428360582473 5.862131092364661 0.3554514125033491 0.2565672991409259 -0.1740729399904357
Ni 3.4551427424603247 3.0291584117144423 11.580987513664112 -0.07022299798230486 -0.8620039866923089 0.0681702292183342
Ni 1.1502538438146552 3.4292364512331575 12.811149022502399 -0.4050824452669153 0.1851237984879586 -0.4967985801259895
Ni 3.0980785800421797 8.56920427731579 8.049537318710993 1.0544749695739584 -0.8378618422284667 0.3088504248153584
Ni 5.676942835909617 8.046134850279863 3.5828282846379236 0.36877178376133907 -0.08751083852847509 0.6319522173434085
Ni 3.251702161352862 8.250772780981858 3.578301033254353 -0.9017025908335117 0.4009080021742515 -0.3825549535883605
Ni 3.325448011379778 4.26398867688838 9.207981215168859 -0.11393586548922313 0.20674446208152783 1.0047248947340246
Ni 7.149637483033839 6.172037822418731 11.56051555684668 0.5103236111956179 -0.554993957519799 -0.3674471514126446
Ni 0.6537637636113054 -0.3190564765389589 -0.115680298326354 -0.49542612525849516 0.44719120151150726 -0.17480801838424734
Ni 4.552005679355124 0.39388356953305903 1.6133351490814574 0.042003341014979274 -0.5123023321885435 -1.1950986287670127
Ni 5.899876631249286 5.424891675430169 0.3581390558041458 -0.16515584000646397 0.7915871275316432 0.05528283173270479
Ni 7.922227308906225 -0.42799170548277726 11.307234391783755 0.7975477159904523 1.1190767647147437 1.1960095706170566
Ni -0.060623079887439944 4.684240242908922 5.835792122534015 0.3140425105392592 0.3750244495392702 0.055459209409569006
Ni 8.124924081932235 9.036243185825736 2.3116965567570102 0.2993170314036265 -0.6051271267307643 0.29674104314633415
P 8.664375428420637 1.831083150760562 3.626917962207521 -0.878379856947171 -0.8812654060250822 -0.20266437847488322
P 1.8496511403060847 3.5094770157273882 1.6006704558701927 0.2726660044750014 -1.365045719514533 -0.344016174083214
P 4.742738027266066 1.2626051474349973 8.36975667568949 -0.4031129802453703 -1.1538735606789547 -0.12252720670265997
P 8.576578862318483 1.434461097571522 12.442870592631822 0.7307232021667351 0.9076459529011401 0.03079770210714696
P 6.241592948864781 7.9313525641494085 1.4694491040566169 1.1743274576579323 -0.04652385459315213 -0.9128287826536603
P 1.7841869583080217 3.1436867145975715 6.192068936885451 0.7344590150600835 -0.21931998475369324 -1.0054784850705973
P 6.744189512000249 3.723403476617275 5.8726459988039235 0.16533813122059912 -0.47046071356240915 -0.4960529602092167
P 2.383469501202025 8.442140087011113 10.249596446189251 -0.8042233282384149 1.2274415638740925 -0.2020023194108521
