# total energy = -381169.55621235055 ev
CRYSTAL
PRIMVEC
9.25818503233348 0.00000000000000 0.00000000000000

0.00000000000000 9.25818503233348 0.00000000000000

0.00000000000000 0.00000000000000 13.55028962650175

PRIMCOORD
 96 1
Ni 7.345166172403059 0.34191495321178594 12.694588934412584 0.49326305616890537 1.5406890893158822 -0.7149877937093493
Ni 8.656801005006836 4.086951668802641 13.164770484822323 0.37383351455496266 -0.8567998167835502 0.7974389583267298
Ni 8.141194170272133 6.843391065943398 5.231630875233515 0.10009176051727924 -1.0735543548029125 -0.9117985416169329
Ni 6.509753855871313 8.393933360486573 3.689581113720256 0.16715975781037018 0.34369607173963385 1.616615051220235
Ni 3.8040770866636597 3.8978162090095783 13.484096392640351 -0.9642565023063328 0.8991037197580838 -0.22534973588754093
Ni 4.719443088190895 2.916383799871432 8.66985504574834 0.9319444204371885 -0.8548488637047664 -0.005728674953661102
Ni 9.114183114760454 9.11541445335522 11.446159730278495 1.5899807364621585 -1.0024877778733898 -2.2039128630790623
Ni 4.655154252085211 7.8961114989890575 10.466636358871481 -0.4904052750051361 -1.304703985201682 0.5789671805059449
Ni 3.411289333118187 5.532265433510389 11.57888506933539 0.9272279887981257 0.9358185586806141 -0.055769541561136206
Ni 1.5850845824910889 8.320219692129221 9.371122743474483 0.09186834416622243 0.8444888606266812 -0.40755224696364645
Ni 2.866880285087864 2.1707943934631535 12.26463790076748 0.33993969002099517 0.0009878178345660406 -0.7742357807373892
Ni 2.027579530888437 0.1084633396475425 12.938507851850833 0.0630475632797882 -0.9564254362976883 -1.2226731959511716
Ni 1.7166156156929118 1.6022862900781225 8.345799131253125 -0.384245453916906 -0.3509028739007182 -0.350000673801423
Ni 4.474554838791204 4.52356766977385 5.471782637226571 0.7673251696604849 -0.2615436693095947 -1.8027310384181339
Ni 3.872985757045948 1.373803544362082 7.026082829030016 -0.6957973368238275 0.12784244826798627 -0.4314316246844054
Ni 4.470222008247214 2.6849939840895525 1.7324045242606874 -0.592100118343477 -0.5420998751659503 0.3659566829100471
Ni 6.245599323646747 7.6248281643737394 12.956340041831124 -1.0367546694760597 -0.18459260857483692 1.7783325549691116
Ni 5.342361544368713 2.256793673213399 4.062797064338393 -1.5611566131416146 0.3597765222412643 0.5506781037532645
Ni 5.903546423479609 0.44615285726044673 6.9009454983360525 0.32481260457156963 0.9671389660604505 -1.6006073629380693
Ni 9.177138772237218 4.7877962674778 9.908702954305562 -0.3442827974810393 1.9776871523444712 -0.2136347614434579
Ni 5.587360891987481 2.6486185755268745 12.969049678093493 2.5197250639242346 -1.303076734010904 3.512114062800726
Ni 6.978912376847057 2.0140440645309328 8.242125976484772 0.3610327632458685 -1.0044230472228894 2.3082711121821795
Ni 4.9633777445435125 0.4049928187295349 12.093674406341389 -0.044338931126691385 0.41918700298909745 -0.363472997256245
Ni 3.4846326740786173 6.716581707052332 6.260166151804681 0.028143809424067655 -0.22323654619928007 0.3920402673709764
P 8.985355471556163 4.871758746544973 4.337651280878533 0.03930445402657747 -0.07631137026822986 -0.3195485279591529
Ni 5.661130109454373 7.2246338628898235 1.9766215552534576 0.1092194338501603 -0.342530590676623 -0.7855450351026214
P 8.027883244998879 2.031569808590273 0.7688515218459425 -0.45230795391278233 0.20153437863549808 0.351618154800188
Ni 3.8133352715867135 8.63737733303827 8.337669519072191 -0.19641505513106172 -0.5721923236759564 -0.7246674828909584
P 2.4956270696734135 6.859028140278435 1.408742082624702 0.02318055188152137 -0.22685254568531252 0.2081014903300545
P 6.67849353427889 1.467709314036615 10.700337943428648 -0.21565102054253826 0.05619377358274838 0.43535769921168893
P 8.24642270010756 5.932191247631536 11.518613359667821 0.7341042028238259 0.3831509353011466 0.45623274288848525
Ni 1.7547871121306622 1.5373864137675166 5.875811678905617 -0.36042058358316637 1.7171945500072103 -1.5063409508533154
Ni 2.917087421925584 3.4790777631247853 6.640983072244645 0.041338967958103 -1.7818999606053958 0.48630307991130445
Ni 6.108754092299092 3.1935645982827343 6.6105764155018605 -1.1456450021215754 -0.5324181291018122 -0.6098926664402078
Ni 6.05114040752293 9.213319758916512 9.153518365043032 0.4921482258381717 0.4949844097353862 0.9402994772701032
Ni 3.081633142563016 6.335172262777292 9.248099982216948 0.690189760829063 0.5456467119769441 0.4182966299643441
Ni 1.135053471566375 4.547083459478406 6.022222466915771 -1.0450318218831873 -0.1180210913021903 -1.419475202108007
Ni 2.615002106071267 3.014335396357339 3.8801117819812223 -0.4171805140820299 -1.03678320872115 -0.505289134095504
Ni 7.877743260101718 5.99862798263937 0.34271671202612236 -1.0090718588488106 0.4393081992190047 1.2281434750371236
Ni 1.2720653502426456 5.634522085985516 0.13695447792974774 0.4926423918657709 0.013234753522719142 -0.26547128649877505
Ni 0.28759440481275333 2.6426933371761203 10.038203667553761 -0.10483955961490976 -1.608068704312121 -0.2700581345385091
Ni 8.721386103030058 7.163927944349361 8.882051718366238 1.6159406508610297 -0.45331865456548387 1.4111304296877376
Ni 9.143568593706226 7.581842411776002 13.140651061460785 0.9394867515608206 1.4759772509597935 -0.16158226372259268
Ni 8.648366798541932 0.14780229320408966 9.00082034365163 -0.04723065085218962 1.483894448924341 0.33053793709112106
Ni 6.727478590706766 3.201461830022099 2.4973592760725167 1.8834981304648724 -1.6971335175912772 -0.04367507229044737
Ni 7.756248099356485 0.6264828573731931 2.6276043473885276 1.569075610878375 1.199200566750528 -0.19035907874496893
Ni 6.5196693719239045 6.739051321860583 9.05319204412436 -1.8850037684761214 -0.639165447262396 -1.2731676051562977
Ni 7.168501487701349 7.811852758004346 10.926370973414048 1.0082046257525088 0.29416248378588045 -0.1685466108555678
Ni 6.452279043868997 5.59323983941362 6.693301075244821 0.14806803128624177 0.9470259973606593 0.22673041828515145
Ni 1.455979193739106 2.9870885581287925 0.5323826658152759 -0.08135381778814377 1.3707355708104587 0.020480122231222794
Ni 6.965737979701552 4.4079514564547555 8.701047722391094 -0.17333837581725633 -0.5973942768628808 0.4857760037632408
Ni 1.9264894097136145 8.756576463922585 6.575399941886718 -0.18674307925893646 -1.6632373790644646 0.9675521423384692
Ni 4.93068709358021 3.0974553805965144 11.098459337308292 -0.6687187354394806 1.0587010918401638 -3.171029717652326
Ni 8.865082391220772 1.1595321125029288 6.618733802237563 -0.8232811162008143 -0.779829729885399 2.663661589540606
Ni 1.4071700428247673 0.6829975955989893 3.291663399908918 0.5300439724426808 0.5600166075453711 0.16976865618812698
Ni 4.117327773535179 8.48187685907066 0.6014903871734097 -1.3257669765195683 -0.43709267962492465 -0.15371854470379978
P 7.907378710040413 7.962770430435043 1.5358847361729975 -0.27258270073257573 -0.3294318485111359 0.10497762785467082
Ni 4.494774714663153 6.046696478759864 0.20855820594313682 -1.2562029522775011 1.1637417117222861 0.07044976928113028
P 6.866999437497184 1.287313580810915 5.087618882936923 1.5806440324422648 -0.8586492112874631 0.12620337000266652
Ni 8.769547180999782 2.42512599148436 4.81097598506965 0.1603090534371239 1.2059108888911683 -1.3774368940900343
P 5.0780033320758395 5.147087907971666 10.08996525364006 -0.04668069188599057 -0.12062124792919873 -0.8038710871053187
P 5.425176008505428 7.634012283817409 7.210569754173212 0.11489025898269245 -1.1166632701772445 -0.5142345162142499
P 3.3364554243851443 7.8738455642491125 12.202144226718376 0.8749690314934093 -1.4780415896879897 -0.7953147128948754
Ni 2.7459035826983222 3.304885013797531 9.77084302589034 0.17317099700145658 0.0005641000335861253 1.4984265811022452
Ni 6.20913133323484 5.408363144685162 12.11193987937608 -0.8020654013551477 -0.8835847981868783 -0.5059517073801674
Ni 3.545857050974771 6.9866707358125755 3.243153288367594 0.04620683757336558 0.5387443284301561 0.3051794037216744
Ni 0.009727574898652449 1.9133520453078015 12.447986994983635 0.20432993910276423 0.2965662081313667 0.034222154407663644
Ni 1.5201384152558677 7.058005050644703 4.84817166881651 -0.3668491128173295 0.19969603987517867 1.644117370405562
Ni 7.6890799677397315 8.254403255511232 7.083454875179686 0.13714624216741544 -0.7624087061954741 -0.09675215462108498
Ni 4.451279761894647 8.617712948261703 5.150207916290735 -0.31895177491541843 0.5609766574657952 -0.1336829662091633
Ni 6.177820151825073 4.656126361502132 1.0573847066098936 -0.9994788158437368 0.3758983675037913 -1.7990451049261145
Ni 7.608376369765473 3.516638219357614 11.247512411295485 -1.0911329871166242 -0.8987190827251553 -0.9129123435064019
Ni 2.5201334851647363 5.114008413241595 4.283273331732977 0.6175296141601752 1.7542935117420368 0.8433807151641668
Ni 1.1875010891554738 6.700583563505296 11.052320246925763 -0.0968143753175881 -0.39177570085568014 0.8108948267213195
Ni 0.10505447595887416 2.7265910089488323 2.489960134682012 -0.13736555726707309 -0.9540970452748277 0.04035140723385308
Ni 4.314527112396222 4.851649968892102 7.6521333291673015 0.8277095842858131 1.677856671639536 1.9684376087217452
Ni 4.3826951279846655 0.2839207570352857 2.683052542711188 -0.3457087312942885 0.18343278393878085 0.7198371513818506
Ni 7.371227962961455 5.848719452365286 2.8974850669880023 0.21411350085208933 0.5030427612634885 0.5662453620639022
Ni 4.996559079307737 4.8892567160495455 3.0532864319656103 -0.7529583594158517 -0.394954612804294 0.0794126349013729
Ni 0.14672556629753852 4.9264005539608355 2.1314609948175605 0.46826961944836126 0.5430267578555938 0.15221624912666043
Ni 1.7467880403571436 4.633101255598497 8.387385046290497 -1.1095724247687342 0.12912234342167442 -1.0340393274274255
Ni 5.543940004698359 6.467425434403113 4.688901261948233 0.4324320409244617 0.4275716275083669 -0.10944851914183086
Ni 0.5669101406673122 7.690376113628959 3.021958585822982 -0.952147891968257 0.08239228635498713 -2.4008079431703364
Ni 3.5860005408011313 1.1132226715178146 10.001685682943267 0.37029361972250424 -0.7667230173001118 0.14875323027872447
Ni 8.917492976070179 9.101767888778639 4.885136823758787 -0.1715152065655885 -0.8165584527650002 -1.2643677474764803
Ni 1.6147015160599376 4.155295589904623 11.724577422195518 -1.2301826169543395 -0.44317668103547553 0.27607117350180843
Ni 6.900264095925715 4.1461577613855685 4.670838543163357 0.22296838013955794 0.9115026076430689 -0.39610106770391135
Ni 6.031438990006672 0.5927145536848472 0.9125061482045042 -0.25948395856708856 0.5490120289047513 0.9678467907607525
P 8.872368582755216 2.8060817846981707 7.87320582367093 1.5760461286589373 2.1170280881703603 0.9783718586617924
Ni 0.5743250209721859 0.4614742274896082 0.975817319982314 -2.060188967694129 0.24091647997754637 1.5160324671094665
P 1.6526230415047651 6.720414595610476 7.578527981573548 -0.6566432923321852 0.3804001120288868 0.05859081306001522
Ni 2.6237881235632448 4.589291524542608 2.1065277770012845 0.20390879240494558 0.4457241300476775 -1.7543127950157467
P 2.6332407303696823 1.3731462132325454 1.1235103666043118 1.331968734454906 -0.969817284223562 0.9270444120324098
P 1.5505330363582526 1.0034761474399367 10.82982476939946 0.44351452399086844 0.3198614312138814 -0.8725971888271229
P 3.2966730037707825 1.1585137121613929 4.421906318589275 0.932419303191078 -1.5959094432417675 0.6860785668741668
Ni 8.88278404079365 5.434665648051557 7.382387779067703 -1.1508172903511342 -0.0025816446842471664 0.399583369825557
