# total energy = -340861.66952009423 ev
CRYSTAL
PRIMVEC
9.38078519113801 0.00000000000000 0.00000000000000

0.00000000000000 9.38078519113801 0.00000000000000

0.00000000000000 0.00000000000000 13.72972735152670

PRIMCOORD
 96 1
Ni 7.340895956922644 1.1044842719432661 6.5593358356633065 1.1515878499685714 0.24080206588686914 0.3465224854448355
Ni 7.982541666508419 5.752794683342171 8.359482254691423 -0.21824397808069512 -0.5742142392019917 0.48078472119623644
Ni 4.7149984135837775 9.203432102344227 1.6609815320942578 0.35393780407230013 0.7424078375935149 -0.8033532669286358
Ni 3.0790269929855225 5.935344763876369 8.560224492018014 -0.0033444909922006917 -0.5847310795729156 -0.6634492595104251
Ni 3.884339262441808 3.930896099527688 5.954692633408835 -0.9486619903021856 -0.21071475958318547 0.2957552821942971
Ni 2.4208992437543952 3.7547906184450315 13.413998489948693 1.2343920270499966 1.8400056064988761 0.3953533909046094
Ni 0.639626026526215 8.712910842779312 13.294989158155419 0.333139122159394 -0.1977026635942337 0.1855547153777901
Ni 5.102612459199042 7.002643603176391 1.4711951138352866 -0.0946461640216757 -1.1302847176154212 0.09238282190879574
Ni 0.830927441599486 6.569776649621916 9.80216071951253 0.30209845080350556 -0.5741373632174692 -1.2079603152210294
Ni 9.211630908633378 4.63095595872736 4.20773620470122 0.3324654931311371 0.5379974229618024 -0.3780943467138456
Ni 1.3401858815785315 1.8415231865111708 13.492093526970645 -0.4606200733229035 -1.4709489445072668 0.08731106381284319
Ni 7.1930547817315365 3.35272078279363 8.0059823726358 -0.3825305281083283 0.1779517062195516 0.5261978592237131
Ni 2.7407746392392682 5.161748929275486 10.774664847927959 -2.2032271498659473 -1.7424538387946316 0.3971127967978774
Ni 4.303022468731753 3.1705553144537744 3.8655908250854023 -0.9952388096204601 0.661303673922332 -0.16566568976334697
Ni 9.146087362246305 4.187226055879022 6.661087336872882 -0.5924850124867216 0.18662455140320117 -0.6468178216013313
Ni 9.177034572713023 2.1683872669908006 8.099990035639776 0.45871462877007446 -0.6830078983686431 0.9820266818055603
Ni 6.7701689836595085 4.15129764845631 4.2812581089245905 2.1520948499665065 -1.668399125771062 2.595290042944743
Ni 7.522873809557943 0.34879729442089474 13.033616091665586 0.02507236958759553 1.0022378666461127 2.298464924725035
Ni 3.088717344125904 9.011022816535545 11.211462350492907 -1.8515115502559467 -3.345950350355037 0.12898633206444238
Ni 0.9535474376269637 6.012670576509637 13.073940335046075 0.09681797486201389 0.6670171793673416 -0.8435318960300504
Ni 7.927232556804943 6.857973133392299 5.433003714924348 1.545659288836964 -2.7683669375704967 -1.4490233480787689
Ni 5.655103185979215 1.7864392156531639 0.8986576490231736 0.46064089925850993 1.2400199147597353 -0.8719078760695823
Ni 5.493256498442908 4.860728912098616 2.889531379068615 -2.5363523880682703 2.101400923156065 -3.1881882317094834
Ni 5.796537284859693 1.479640634775931 4.309486767832273 0.9774902273877876 0.16874895667436102 -1.4613816125338057
P 0.9170580592476254 0.058201205789225385 8.521959330995042 -0.9147496538254569 0.05990336122385167 -0.2785458602945461
P 4.428462328798727 4.154571542500834 0.5729774236392997 1.160528604101627 -0.3658607807621312 0.020895612502086595
P 2.697791881325203 8.035899572884498 0.5125182628457279 0.5743451083529012 0.026376690221315866 0.7402787070656541
P 4.532016816929097 8.221413981550702 7.216592109946766 -0.4303368489583298 0.2468567567213813 0.564781375923866
P 6.655610834456856 2.234071525156292 12.334319828383462 -0.9626837585025743 0.3662914405416466 -0.06242741319728602
P 7.188627051103986 0.9573091325033364 8.74904937979113 -0.4279809471316436 0.5026694370844697 0.2286536034497933
P 6.779380914753269 4.970868711458946 6.305253515452568 0.08263499849341252 0.4842443976100628 1.1345977431684782
P 4.035519997174036 6.636746075363625 10.886479117451461 3.0069367716927378 2.6676809951126446 -1.2212130664658776
Ni 6.006685635534262 5.786537367806791 12.077437343782206 -0.7222676152002142 0.3816126442797492 -0.4567585334849682
Ni 3.4884795066112515 6.423708442838874 12.914387249497981 -0.5007740198339699 -0.7723102815799022 1.2944236863215965
Ni 5.303849063907142 7.889493657833253 12.75542515341924 0.060463861713012004 1.9247067434926979 0.21298787188807836
Ni 3.3109950501000993 2.526067226943958 1.548699161387884 1.6112067357204702 -0.35533262753729766 -0.5768046256369872
Ni 5.722307131351618 2.840295389721658 6.296205748100294 1.312791904416139 1.0722510626104567 -0.2779869024672826
Ni 7.612319596705609 0.1919242992124009 10.779730471951003 -0.7977935134526712 -0.3880895102533445 -1.2259043012939597
Ni 1.6083168657465166 0.1756608318628562 2.020315324483087 0.7222107938203498 -1.3382054593932373 -3.0542643531341076
Ni 5.201636028064356 8.774317462880898 9.381563833036102 -0.27756961242420586 -0.5990256418187166 -1.5405263384857726
Ni 7.643229284031415 0.9741288804168934 2.379993391689779 -0.7579275304956689 0.4223062653443695 1.0027299757911827
Ni 8.905648456070969 8.455577142408597 6.7407330176930005 0.020189587573997487 2.1604810171476725 -0.9259617204911924
Ni 2.480129521683117 1.289989299824241 9.651215442489523 1.1161889016439874 1.2076463835250364 -1.3258492518207294
Ni 4.632278649444488 6.185877394956885 6.313258139487502 0.2829393613765514 0.006790797669588304 1.2937634270297782
Ni 6.504533288362135 7.078928148649364 9.996065302486532 -1.9790943171046431 -0.13478288414156142 -0.9298392011687276
Ni 7.244592815773411 9.03952164205779 4.692614921951575 0.0035352668467681053 0.02768949549546844 -0.22412794766529787
Ni 0.8386797225117911 0.4852445678742414 10.940409251726441 -1.013689817236796 -1.2782378205903535 -0.060082824224509425
Ni 1.3207957985125405 2.7828943649123694 4.965836858262721 0.046839071840725784 1.6952545554010092 -0.04331897450260926
Ni 4.935475008794222 0.6200417612060072 11.191512234548812 3.3232341397044443 1.3663968342257886 1.615737276600972
Ni 2.0171408667619786 3.4274387371335524 7.495992231408981 0.02009471386734604 -1.1912972527430516 1.5503052722494075
Ni 8.433794959109502 8.224612829313402 1.4164685508944612 -0.10760838060929855 0.7881734738644038 -0.7059688780401907
Ni 2.0107619328070325 7.166751059952611 2.7089709630812466 -0.7035132174108465 0.3078757196069149 -0.027814708219423067
Ni 5.838919672519174 2.5156451745558033 10.18703182352717 0.728839611990777 1.1629328426677457 -0.06039521325860566
Ni 4.264148494747492 3.896947037788055 12.058572584688976 1.61382540429024 -0.5658902927173286 -0.3237605091579715
Ni 1.4014424091164717 2.665756499772054 2.494608763682322 -2.2718388374970746 0.2022907971855484 0.25846065950889685
Ni 4.007752872899563 8.356300292342132 3.595005827501809 -0.8597707264864161 -0.20106155276413762 1.6647990671246296
P 9.24238112261031 0.8103431845739878 1.0052880966297604 -0.22381915817562742 1.7274475951937862 -0.23055673400977714
P 8.014511382564972 4.163211245695695 2.372991573595703 -0.7436450524347258 0.10890087416847696 0.2648516506369052
P 3.0009882406749373 1.852461182086858 6.396172085881009 1.3397229244790283 -0.36703243247272915 -0.8440008652466691
P 0.7560828466589874 6.559026269750786 5.174253515984226 -0.25910034997542475 0.024403368545028937 -0.4271692498636256
P 6.564748548739782 8.423719995774777 2.6390043764592366 -0.8493305049896985 0.03379380862099341 0.5406901393026171
P 7.450810617437506 7.702065568980567 13.177215275776653 -0.8508857652919605 -2.2780166841730125 -0.9526587701664045
P 9.299360012084344 6.327658582890794 1.4070221001700043 2.0730920489090425 -0.6297472392722897 -0.07927739487508927
P 0.623930096682956 4.732287200758726 8.585871558830988 -0.3470644739912345 0.39807336093893375 0.019403087116960132
Ni 4.980052500197023 0.7621934901564168 6.248481003253545 -1.705902779143475 -2.6447590962091487 -0.7775468473884932
Ni 4.705111065953611 1.4300350424909956 8.344406394751724 -0.13821530686187808 1.5123509044928212 0.4583083944705913
Ni 6.703283984984852 7.419234894360521 7.091651307653915 -2.1919101821912315 0.958252205093782 1.6918077345029894
Ni 5.86618961517657 6.923985719040765 4.340392702843988 -0.8186521020692353 -0.09704243216799417 -0.5081877957995377
Ni 1.0260515266531105 0.9985283027945628 6.404038812373093 -0.3865273079725472 -0.7707604205942791 1.341124175701929
Ni 8.758238797000343 1.9905181982853057 11.822929135922124 0.3057105936347961 1.8067435020116367 0.296960872466624
Ni 0.21963326261846022 4.2645518685122905 0.735995771250566 1.8501905174516782 1.0996929608714932 0.6815289998302715
Ni 8.405915265412295 8.129238385901727 8.974010928419014 0.5309292032611115 0.8432686150663349 0.1311182908057806
Ni 7.684879970443124 6.553529129607259 2.8205253848539384 -0.3703365571452977 -1.8586363342261862 0.8086037166942976
Ni 1.797743061852738 0.7380951909845617 4.005716304426594 1.2289410312377544 0.08777900458819721 2.1653697126985416
Ni 8.30031576610225 6.984088409995678 11.1507630415975 1.5036310081213202 0.03809809242330213 2.3157450519617218
Ni 2.0998137269751282 5.207883631026112 6.124282221072218 -0.36972206348975034 1.471517415416227 -1.264858313959654
Ni 2.8022750671931327 8.347998297415474 8.699649226702684 0.2074977953077846 -0.32718367590690745 0.028131211018577358
Ni 3.7695841167493698 0.6032201371354046 13.495114139814017 -1.016808565371436 -0.13384083194326626 -0.7261139855294979
Ni 1.2503836245922069 3.359324855594045 10.079225963531531 -0.3077083407911152 -0.7472859916214226 0.44117893387915635
Ni 5.473772607524639 5.107190282390239 8.595674479394106 0.48048338790573375 0.18021916209748962 -0.44131623078796905
Ni 2.9570580234528583 5.383257410860996 1.442473025624618 -0.23281416258538615 0.45420979892118546 -0.6323355688247562
Ni 6.301420526608464 5.128672280562044 0.5593809135300363 1.1321618800334758 -0.5934404344214553 0.574954459802126
Ni 8.01992409564145 4.639999035687019 12.060165442020669 1.3244922235722028 -1.4317231662374246 1.1649539868628325
Ni 8.042306649195128 2.7832039308248886 0.6956002339023459 -1.8051951836879103 -1.9630118097204838 -0.874330883688778
Ni 2.1726180011285665 4.792605649773881 3.48154335401377 0.4975843092520785 -0.07925759738074738 1.6151261253795346
Ni 2.398854398468919 8.472819025657408 5.7311044317383075 0.5979527204695121 -1.2961488965428194 0.30828401078892714
Ni 0.6532159700858189 6.639288268160375 7.354108792916088 0.8841944067464191 -0.26154649752307213 0.7650985943228114
Ni 0.1285308287995538 8.315615826808893 4.202669642599652 0.3231064205137403 0.4477203345420999 -0.9077343988498884
P 1.191631766710106 7.660433644139315 11.503411148354433 0.30560312152265434 0.49393771363842676 0.6197780438747197
P 3.623647240959518 6.279084876980923 4.4488026854083005 -0.342348556572804 -0.29055136939585446 -1.2094644105703816
P 6.956096146875738 4.985493355629183 10.278637067434289 0.020858588616564075 -0.9252988900962128 -1.0167345176003908
P 3.2842410506302357 1.8271236811864022 11.706158059484219 -1.016542713304559 1.2380805316451775 0.34360582601867273
P 8.999906586040527 1.1746994493738148 4.700646750263671 -0.2994345308180972 -0.24234729888680195 -0.1794858834758909
P 3.9690383722641758 1.2144927403104062 3.1415949542983177 -0.589105040270895 -0.6947413847554874 0.325369248405988
P 3.9813272009126752 3.590223503192645 8.611038329440298 -0.21602563027313762 -0.48305474817733585 0.24552055440846104
P 0.7293626180159447 3.683393462075772 12.26961210996019 -1.6215122314115364 0.6849943326710525 -1.4689745943897152
