# total energy = -381176.05296126945 ev
CRYSTAL
PRIMVEC
9.11261087870649 0.00000000000000 0.00000000000000

0.00000000000000 9.11261087870649 0.00000000000000

0.00000000000000 0.00000000000000 13.33722713782237

PRIMCOORD
 96 1
Ni 5.260655607827934 2.6752620883551694 5.355683737012631 -1.8790390662522543 -1.093699976512852 0.5424803984338206
Ni 7.22536185978019 7.946998631060511 6.705931191007464 -0.7778682352836539 1.5342515612206544 0.6632762242676706
Ni 1.1492551512616371 7.473716957764479 4.99593881693872 -1.6174668576975693 -0.42414229011184373 -0.03478316911745623
Ni 5.639220803232694 7.118963014690862 4.823875408828735 -0.3563595261399153 1.001900537911352 2.0758158755981087
Ni 8.03176413782832 1.416136187244094 6.841917772489439 0.19334027286047992 0.9086443122586674 -1.141249701267357
Ni 7.505474406816922 7.873195595228165 3.3887895471787424 -1.186227551529628 -0.15895202518859722 1.61873595421798
Ni 5.438971178289392 5.747742886666132 12.865636080835111 -2.268376847090403 2.412693381754013 1.3719236775812889
Ni 4.456604383396885 3.933959696753055 3.6637233974302506 -0.23249277469022542 1.183024214100982 -1.8136919083050118
Ni 3.5212859986787706 1.5388648311001305 3.5861003551006925 2.4954782755617284 -0.6488243105083987 -0.014688198139794056
Ni 6.018004701299509 4.587798642796599 1.7124864956772523 -1.238769330182086 0.03342665508956179 -0.9338022995815337
Ni 2.812142616968291 7.8884409932955215 6.745622990387011 -0.40019914903268494 -0.7084255671107993 -1.5640221076148677
Ni 2.8853259952581505 4.369004854633292 9.797234087171457 1.5026082232837605 0.2840799027388978 0.8648877359980072
Ni 8.586366750964809 1.7189482480798595 4.108186438695193 -0.08465768535039615 -0.19463276641965835 -0.33954682545795073
Ni 3.0283210857978684 7.29084508184356 12.849284411802198 -0.734006243793381 0.1066285331945325 0.1961854556187589
Ni 3.2115027904900306 2.324645270638741 11.019083942057593 1.4413763730564724 0.15303771658669127 1.3643389232554957
Ni 0.8220705012621241 5.034116100383542 9.01744610057313 0.31500924532790264 0.3249401312883694 -1.6316493198455382
Ni 2.974611357041744 3.700239451904553 5.425931032064415 0.417322696086849 -0.36861854601292643 -0.22277580451277762
Ni 1.1341737801908218 4.391440102715676 1.8719735894580343 -0.66829373208692 -0.9024482107502846 -1.111565543939363
Ni 5.558155016497967 3.311914650205628 10.923416107586386 -1.1510327487960499 -0.5989030001979234 -1.6294592541727548
Ni 6.150611415391656 2.3127350881677105 2.8803341069967647 0.7906499604293545 1.1018280049366251 0.9575358957530478
Ni 0.9282469986450311 3.4836326903617865 10.842925326600643 0.23114525952339549 -0.783534946651128 0.012256191659533731
Ni 7.839041529504048 2.5602244881147027 11.170634862989086 -0.25729903510062785 -1.4841600438809022 0.4252257529840096
Ni -0.09659458700166099 6.323951500291383 3.1212715396930526 1.236906308831418 -1.113200765549941 -0.025488116968775457
Ni 8.048011923096757 9.223238015477321 8.663956076633967 1.262447133415 -0.09217507677336383 0.6247796108543692
P 8.036657609891781 3.8473716678014616 2.334388474233252 0.699239529736157 -0.535687029661071 1.385258447016982
Ni 1.528121062826722 5.338568431184713 6.033201802528994 -1.4161361104324448 0.2773086454533353 -0.7504160526099721
P 6.6069709702112505 7.003688486566503 1.5601755829951205 1.026318047523768 0.14820609952600283 -0.6105791509842711
Ni 4.238849432878334 2.7313410959502127 8.726561536169141 0.5959256627371543 -0.4143520434942993 -0.23334766649135297
P 8.677966715921809 4.630491224951747 7.0925109277154155 -0.8913868107298004 0.7182376681052147 -0.10083069556583281
P 4.039556632081518 6.110597940846671 11.19148087172721 -0.14534831836223355 -1.7965189960701509 0.9004072690608558
P 2.0296609425823298 7.211528916405268 1.6885595131874396 -0.11721453624049491 -0.5343845087995636 -0.2269096241754931
Ni 1.0431114592780382 5.899413182800663 12.978216009910744 0.43809361008561326 0.45880795981482914 2.426880728997988
Ni 6.241254556202169 8.060906267547033 9.11258084730558 -0.23787357938616452 -0.7027930514153703 -0.5563808105649967
Ni 0.1009185208826893 3.5003907818416837 13.083432949363889 0.7259512346993885 0.3916576872205771 -0.12342734991942614
Ni 2.6551049930025146 9.070875160912951 10.97161635178093 0.5183151140415267 -0.8953655928718903 -0.6999247287286398
Ni 5.74345084692332 1.3927987906807362 7.3487056048732535 -0.94006524977211 -1.265926093102536 0.4044059880251809
Ni 7.307284231941296 7.165829172646875 12.429375300658291 1.6496578406078173 -0.5978707022786671 0.9282440887674659
Ni 4.133899492925114 7.344563923210603 9.554829524117224 -0.8961922025382436 -0.09249569333757618 -1.1872462226021296
Ni 4.822220558685858 3.628304501310586 13.15017280047298 0.5247783531683672 -1.7786670554903947 1.0151661446720066
Ni 2.2037026985228136 5.646911846848265 3.3675161569885197 1.4850612155389329 1.0101735765534214 1.1129752798026962
Ni 7.269375770518581 3.477144511387514 5.084618190096206 0.8981884070326661 0.17976690505141943 0.5837031525290335
Ni 6.75519669941843 5.265649318611502 3.70622917106156 0.1316278834523475 0.015219645163231854 0.09165391416257118
Ni 7.2331258042831115 2.7174261390770194 0.6740516283228046 -0.874904496804061 -0.8923648583723534 -0.38381582257865515
Ni 2.40417102612817 0.28643214270900363 1.3920059935307898 1.4818756187220994 0.03771088428721247 -0.7307319439174834
Ni 0.6516747009503007 8.148186854928463 12.107228101974757 0.09440010944914065 -0.15315238778768464 -0.6591382908398971
Ni 0.751706564790579 8.660534291233912 2.79940409816473 -0.2885219976706515 0.07785326083405301 1.3456346619777728
Ni 8.454206554807689 7.004535959381963 9.84168631449505 0.9235973340240738 0.361807436628364 0.8794070126601049
Ni 6.956403148508219 4.50152044261625 12.166685154437445 3.501274548983061 -0.7799037776564439 0.434684070183432
Ni 6.502549561691327 0.7442087085264903 5.156945894220778 -0.6290556125219038 -0.7878693123604238 -1.5836301116537823
Ni 5.116202499541188 5.031127164002136 8.918016580314593 -0.1705196754215386 -0.14105689007573124 -0.5091812700610585
Ni 4.94237033365184 0.5448566757587016 10.167941478180833 0.06328641876347164 1.319750080901527 0.12590229382247992
Ni 0.3050683432992902 4.063568361852877 4.292853498967139 -1.451526831226913 2.1378110863539828 -0.5481144567911463
Ni 8.88836778942879 7.926741296987749 0.7923433419224181 -0.17745856863321693 -0.17678802492875362 0.8702436009932819
Ni 1.06869967073837 0.5636550808233449 7.330113144815377 -0.08449853406471254 -0.9979446385873976 0.5096610379109545
Ni 0.3977463301279987 1.742258306810461 1.7447897901237372 0.7355571332202687 1.247257313048439 -0.8889555755804884
Ni 3.5381352162678565 0.19671939947331218 8.234204434436531 0.6525871199849406 -0.7102037420571445 2.963427792666509
P 4.379939987735997 0.32746258463254 5.3301693377007435 -0.3060227255585762 0.06959359192842207 -0.16286370153817759
Ni 4.869123167085547 7.988242308079551 0.8565152592745559 -0.21502290004023616 0.8508302294636766 0.4549662174712358
P 3.3582431641174253 6.330676607149547 5.11980106959307 1.033314276335943 -0.3862419155216445 0.9813869913390324
Ni 5.455993535485937 9.283016743105446 2.8810813410921168 -0.4830280087044584 -1.5119912071605572 0.85475964642507
P 8.450242569057957 9.011014419786555 5.2975862860990475 2.390259735340845 -0.9629053875950772 -0.1917816701241084
P 6.3815887643535625 1.9654170356039324 9.343354073782903 1.1288821808409397 0.4354608004484565 0.20006216496534576
P 1.5362221739336435 8.156588682195709 9.081184257645528 -0.1342745770465752 0.6474487703171108 -0.7518157611709761
Ni 5.028028876289702 6.8625797064870016 7.133336335893276 0.5031646315533334 1.3467713466853772 1.1430286475446507
Ni 1.5597964983808934 1.454545842267349 12.479990386746348 0.05799174602343561 0.6581291328490924 2.2563322572210436
Ni 3.701205388661959 5.546235721416018 1.2297094818037042 -1.2617778752621172 -0.738419028149096 -0.06469538329585632
Ni 6.732387834288368 3.5914439901435484 7.432356639325678 -0.2099141180587611 -0.037260169903039056 0.2160359146857828
Ni 2.7287075513946446 4.185522433780805 12.547983221856791 -1.2352011532148535 0.22190959985774042 -0.34718480161918275
Ni 4.753292769695135 1.5016580407181737 1.0821371267994118 -1.1605304038738402 0.7402627662260541 0.3903507954836955
Ni 5.2362429231761425 7.973133599175978 11.857181703403915 -0.39467976187635256 -0.1373825265479376 -1.6177705049809172
Ni 0.45371416386983143 0.8173756841166957 10.674783074969069 -0.9684083196911772 0.15522906781105525 -2.052440691207278
Ni 2.000682839860159 1.8983117687969937 9.228854117586652 0.10524785079692196 0.28628333814811985 -1.5409873372825913
Ni 7.214964370721701 6.053006239839086 8.182576026014289 -1.0089481887867526 0.12548320400719035 -1.7479801679294993
Ni 4.924846782854753 6.785997324324384 2.8192896377120014 -0.7530277792012063 -1.401228082972361 -0.40456848174497423
Ni 5.042162535824949 4.868549072597656 6.082215802878598 0.20514189348109832 0.2925424316839542 -0.6851105465339427
Ni 6.244699123129522 6.095808173325262 10.657765274077985 0.01666409091924227 0.08060022745157086 -1.4081919158847038
Ni 1.9485404801820894 6.566237599403671 10.588691683312558 0.12278354568784015 0.5167505977678842 0.10899909030923809
Ni 8.839460406626937 2.3513725584639387 8.929753623178163 -0.301065638663617 -0.40941552542463044 -0.9265628444103011
Ni 3.142374524059091 1.5811837962076025 6.693887964417017 0.21332802883631646 1.5517314631729728 -1.9304701283390366
Ni 1.657520137875409 0.6186642678965073 4.836718722657863 -0.7770228565642231 0.9778545527057417 1.0531050858096251
Ni 3.027838117419165 5.717197414865907 7.745634533801825 0.35722058858863 -0.31858642115619973 0.8798027054366268
Ni 7.828206635121449 6.159651125423226 5.507781414599261 1.2121818095015444 -1.2795747942342222 0.3940922648039987
Ni 0.2991888867344019 6.914102408622584 7.338608831975089 0.4515952441164739 0.9710349586807471 1.0084979886232117
Ni 1.6963854234446094 2.6102344968377444 3.6001848065369777 -0.07726807775454435 0.31784928587985906 -1.1465158347623028
Ni 7.853229864704807 4.313126324478464 9.421710681291433 -1.483776178178922 0.2294532165329532 2.4006215381911433
Ni 8.13604885718446 5.6108623580530095 1.0446031936854656 0.07889944271038025 -0.48360367870227033 -1.2509332192381295
Ni 7.69088870118422 0.46635244395328385 2.0534530584305424 -1.1890351961817522 1.2290189356635413 -1.4329644948436935
Ni 0.7877305382752599 2.9495972400693042 6.342932157574404 -0.5925960841432891 -0.9820516215062247 -0.0010027302329014987
P 9.273813006077336 5.463392975552102 11.251871966809087 -2.229088076793109 -0.6369612405222256 -1.2918626104626396
Ni 6.004189983146424 1.049298922091986 12.424627630369534 0.24498962160565546 1.3831450002184051 0.24916766424274503
P 8.463993498934611 1.072071336778371 13.08818153091374 0.18797360923192788 -0.4324250989459262 -0.4037729824268724
Ni 3.139112209350117 8.219411021870753 3.835386761920896 0.873596833736231 -0.48035997495399213 -0.6667963216057871
P 2.371074023270647 3.5737199619062454 7.595497890084948 1.1238415330932388 0.4091617575426114 1.177065682524702
P 3.9080160934668853 0.3031720089670626 12.761979220371286 -0.8622662392147602 1.2280246900710723 -0.10983341328507536
P 2.884770125992096 3.2007954726602974 1.2471409952305093 0.686302767069831 -0.2069663482843468 -0.16659154401172602
Ni 7.461469608689448 9.028619984081912 11.022791863440503 -0.2096534081982067 0.07984252334993991 0.09467624592866276
