# total energy = -381176.9637011169 ev
CRYSTAL
PRIMVEC
9.19348080072286 0.00000000000000 0.00000000000000
0.00000000000000 9.19348080072286 0.00000000000000
0.00000000000000 0.00000000000000 13.45558844313958
PRIMCOORD
 96 1
Ni 3.6854182440744454 3.8640108028384184 12.77118366408963 0.26213553725732275 0.5192237418987251 0.09511230502481685
Ni 5.844764636402483 8.873262707179302 12.434228801146268 0.6011534867949969 -0.21514605588166172 -0.5663062972088246
Ni 4.679012879149868 7.274387680674741 10.059990310312484 -0.18272110258373694 1.1555542908154872 -0.36526865570408706
Ni 0.10967179096381469 6.722447865069166 1.759842763153513 0.19603016098781725 1.3186779308832708 -0.47781149750052543
Ni 9.198721122334424 4.306934322663946 7.313879196963556 -1.383056811379973 0.3271139990112366 -1.2891030454396315
Ni 0.5613015371431711 5.79204921727592 5.144852069312834 0.3838453902650099 -1.1716661087756854 0.5119030398675958
Ni 1.209503532561879 0.19276155143189416 11.363244363722487 0.9210624834173622 -1.1832155041761816 -0.44890612732008495
Ni 4.395007869094445 5.249974006609794 11.126412942544324 -1.1134694458302954 0.14433298972384176 -0.07043511399311095
Ni 5.988035841785875 4.6884270035282425 12.895997117994053 0.5269167396676087 0.8039299653677123 -0.07277276098735208
Ni 2.055846185050945 3.6435603258178633 5.309965146471755 -1.057995838243023 -0.29243804489560604 -1.7955579177084626
Ni 4.623585383176019 5.724136974323719 1.3821442318311647 -2.6253027872567496 -0.025331022565620892 -1.1501323484689676
Ni 6.852480458045468 2.8552009569756818 0.7083825209859358 2.3548325048814864 0.7338784599662651 1.0924751029668154
Ni 6.851662238250864 7.08549842337192 0.6307454140030263 -0.011611616096999356 -0.2158528521406992 -0.6716806462812819
Ni 2.7664562864439906 7.305452452427209 1.5113181536971732 -0.6489531227767792 -0.5335504429340423 -0.6979431795222367
Ni 3.5991190394457306 7.710011576714693 3.6528016127564786 0.6310834415852099 0.16698492279540272 0.24121395661330713
Ni 0.2852920973727794 7.254244764158121 10.064390310241674 -0.2531076227270996 -0.7769693776184683 0.6232114950363009
Ni 2.726786416626913 5.957375583190289 9.413018402629936 -1.6353411668748288 -1.249418582365816 1.4013692365359154
Ni 4.334386056446981 8.463518459699044 5.991181850928726 0.8408183537536295 0.7948755684749278 0.03348244802816169
Ni 3.9651942529442707 0.35840693113135047 11.1027176650318 -0.8144370355466232 -0.17440692629108673 0.6623395713860142
Ni 5.785071365319683 3.2479464583860045 3.4625940103014523 -0.5395436844029997 -0.7445513662990789 -1.3546389223589121
Ni 6.31490085950925 4.4737224520315975 10.439181862922966 0.4507958881436301 -0.2239628828423433 -0.9880559187187758
Ni 8.184027448735204 2.0172795329344586 2.769173879379779 0.6621953324986659 1.650939535533718 -1.3582402665569255
Ni 3.2719230564121777 4.246910086270969 3.224268648487074 -0.21048798828436008 -0.18058760118050188 -0.3311604011664684
Ni 2.0930338150416934 8.321322891573727 9.144243312931168 0.14153408682246593 1.4254733286729708 0.2997934568194127
P 8.483321217424647 7.711105600934445 7.987856035260401 -0.46389205920595594 0.18091670238514648 0.00645089783166631
Ni 7.827853614099467 5.726260668397356 8.863398102239852 0.025820046386897468 0.21933798247582223 -0.5796770620887759
P 2.0018344851261873 6.076642610104993 3.1732714909291815 0.6877986348890671 -1.7770020090831462 -0.07178494315278605
Ni 8.575274412768891 8.185360503456751 5.665300535655043 0.18022970362045088 -0.03340145827858119 0.7688272081273082
P 2.730004134920303 0.30015152045165355 7.041995791393374 -0.10743148871180208 -0.5046715551161631 1.0456404020014638
P 6.147607088695494 6.851478368634098 11.698544400114962 0.41609550854796723 -1.0717126736084834 0.1325560516935717
P 9.010512182613637 2.8737809817497983 4.999787215817898 -0.31019793998218836 0.34652968453368704 -0.7480256980009247
Ni 1.831396543865748 0.27289193041813886 2.2619116226038805 -1.2078554142120488 -0.32880938443578855 0.33806587003705
Ni 6.0394090127100535 0.8785391417327245 2.3922687454537725 0.2301643836673649 1.8174765721584247 0.6298192301608057
Ni 2.745053863052529 9.188084265004562 0.23472335602194885 0.5673920740738357 0.6974994071165987 -2.1603164665453507
Ni 3.217516036811375 2.444445426603214 6.96427594308292 0.5373160806240617 -1.4752491145445175 1.2525126479101074
Ni 2.37422561996061 4.565326295103986 7.290964445974201 0.547024051940445 0.31384299293394335 2.2259222774706178
Ni 8.309518462177406 7.588777144900602 12.364179073899171 0.4853134623045255 0.09538921283528734 -0.6875803482306739
Ni 5.020274887865954 8.390779639306757 1.4392100060903914 -2.1775076336126564 0.2793619284379383 -1.8505635845203807
Ni 4.755925539842723 0.2371936443231884 8.265848508847604 -0.20942380868590382 -0.3888117331313497 0.7810582029758613
Ni 3.411489289017751 7.204094326185431 7.7876909737094575 1.7907432699286383 -0.10628066293681052 -2.634311161402947
Ni 7.549272757738613 0.5743792636355911 0.30093848241140836 0.3568817171919725 0.17202042833678116 -0.23387911351479077
Ni 1.8472736852734173 5.049381448199874 1.1694512139419302 0.38216543145942566 -0.4899046812196337 0.7260255395807497
Ni 3.8909477016945107 1.6646911558256408 2.289562854921105 -0.0377893029336317 -0.08140138319662756 1.7245368493048945
Ni 0.6103928861232938 2.5574149191437114 10.63699247403123 0.6743733626220967 -0.437917232408749 1.6749451544196958
Ni 3.248571615083006 5.7422113576517315 5.544173667566761 -0.2372745123495849 0.9341900219382555 -0.9338398376876885
Ni 1.019731701098586 2.6340885493347717 8.403485949173312 0.5309513147482985 -1.842545856422227 -1.5783992022721463
Ni 8.935254348471666 0.36263685166503234 9.263701564247308 0.146632841501612 0.8674827504186932 -0.9915400206126344
Ni 2.6830714152410033 1.4022908257401203 9.44547322868515 0.219219454620087 -1.1499965942220516 -0.5392240962800521
Ni 0.5125089762902917 1.6499264255994006 13.026677851369453 -0.644146188306439 -0.9376296437474239 0.860794282654924
Ni 6.664253131363003 4.007392329991869 7.452323824906863 -0.23585732028708412 0.6596977628877929 -0.1256079025105127
Ni 7.981982320352839 3.1425799744987453 9.226672062126978 -0.6847958435070013 -0.8965799248949655 0.12297817819714948
Ni 4.612369336553346 3.6730530123469904 5.576251560907607 0.11982703416267751 1.4307674871923746 -0.755570343117402
Ni 8.024860714982468 0.7589485042925148 11.42783132465549 -0.7494326056507803 -0.24611782167282772 -0.6102315378368652
Ni 8.798740351504394 4.584301639554148 3.0489287432436765 0.6155413800855528 -0.9642156217660683 0.03563240449162895
Ni 8.42377504203526 5.0939698302654195 0.39954867723063264 -0.19288698737314522 -0.6305710207251657 -1.0317081081910875
Ni 1.04001251982778 6.4479397207196625 7.47254764405486 -0.6091190214989768 1.3658761858356283 0.34050841804027165
P 2.5624529466430763 7.313027880637933 11.148103121886022 -0.9639371712937013 0.7481879346104018 -0.7071068482993758
Ni 5.129107314029236 1.576249870161612 13.626070737669773 -1.5835869171206727 -1.3551202328707048 -0.9916078977360923
P 4.931999084857014 1.2336915806473323 4.291148196716575 -0.4645906279348773 -0.3616079190230482 0.5145394490491784
Ni 4.632962733631041 4.83282900705474 8.409015827897523 0.019741701403301486 0.9980474827138488 -0.14794924632019038
P 6.042828987581884 7.104087641626875 2.630648348805096 0.4680122520219165 -0.010864967738961933 2.050899829082719
P 6.625410674821368 1.298101107400158 9.61046587124509 0.45617335040545953 -0.5549646469437604 0.16440739187621364
P 0.10278771251212812 3.2246593714227 1.2464677609682575 0.06262153148596313 -0.08094578371644769 0.629108063026394
Ni 0.8846417743131594 7.647330424359459 3.8554967202341093 -0.7167374294106043 1.322469022494587 -1.8618496989571611
Ni 4.047420745561638 7.256487973482655 12.600754916310029 0.10402297725088537 -0.4595204125008215 1.3130230465903387
Ni 7.180991108838892 4.163231023681157 5.088432596756537 0.9049375528310415 -0.20346322022709476 -0.19454174936774882
Ni 8.555848587757655 5.012423655230083 10.935275879176551 1.6972001091631546 -0.02250538019136769 0.9578117751222537
Ni 1.2245348737324286 6.123759199401057 12.461462649433436 0.18688680392565232 1.1400919335138302 -0.022601539449599785
Ni 2.9324353894978756 3.580621755999158 9.811155880551896 1.1731519492925924 0.5177394440437147 0.8402393413217077
Ni 5.680532294707867 2.0386176019600524 6.671321079431454 -0.42122717334757775 -1.6080597054510566 -1.147993190638778
Ni 5.075941414341597 2.560439574339498 8.735502993558447 -0.486054454235608 0.28968362207892046 1.2674391873129527
Ni 6.119245200309473 8.15604249306355 4.681320442840271 0.8421527562943366 0.4333334696928085 -0.9936629804929081
Ni 2.7265841600484717 0.9719164072588133 4.323899972202865 1.085506642068782 -0.7791974956180386 1.523369881311144
Ni 0.06887388104788329 0.5392371831313552 4.127555721288302 0.6814593229346005 1.17873741380017 0.19351150833102157
Ni 7.024040003968175 1.4376857269674082 4.666869210310615 0.22248629829681685 -0.5703257027808629 1.236284101866387
Ni 6.617678957436394 5.128298287715468 1.9814700057213652 2.1823857876405643 -1.5484821029977398 1.0286484954291573
Ni 6.966617522652424 9.188819743471623 7.131529262580988 -1.3430509604109966 -2.7212517292502487 0.5304481498596348
Ni 7.092200470903009 8.072280689146195 9.953152869491104 -0.20916926947293651 0.3132706653702411 0.674074343324439
Ni 7.967962262074497 1.7830020607331651 6.898074606914718 2.6787961311891992 3.2796873654617453 -0.07804249402672365
Ni 1.1346685985384701 1.5442013959594496 6.106375246483998 -0.2510258004974064 -0.8095575959671348 0.700003147375059
Ni 7.838968532432919 8.865200024484151 2.338661558685898 1.9045508373701134 -2.436236202070959 1.1324511291391206
Ni 5.012092689919905 5.551823562972275 3.8409250531054724 1.413506900339714 1.1098573029990049 1.319637980803695
Ni 7.707409821637466 2.993149136953722 11.931312302762613 0.11652882302737995 0.6256427301856128 0.3047276608962365
Ni 1.0282816382781645 3.830647660876385 12.842134352458876 0.0595745171295232 0.3600236052550638 -1.7317014853741337
Ni 5.965180848421969 7.134646771933241 8.080605386045237 -0.4756276024753292 -0.5266359752023962 -1.2503452079451434
Ni 7.573047099186345 6.167529361671997 6.388794381094821 -0.5480728049199336 -0.09070594842700508 0.17870658210770513
Ni 5.433209273197088 2.3522348137955005 11.171475708221122 -0.09394399574832854 -0.10149506862270909 0.61376834734553
Ni 7.8434733380436645 6.641370557556582 3.8897957585454774 -0.5901231971227643 -0.14539665510166574 -0.36963027510689245
P 1.0286309905500184 4.437279493988749 9.481614640556502 -1.4115960564702463 1.6931786467085872 0.00720165995476179
Ni 1.624322581464856 2.546070163789303 3.174011566136661 -1.9167525216426278 0.40330169921740866 -1.1486951018018088
P 4.851602094926459 3.3855360926113534 1.2437106360648644 -0.6059730196708273 2.027516160051457 0.8281165899162447
Ni 2.6117575843786462 2.3722582150612235 0.6807266919282922 -1.7479004637314994 0.5098068194601995 0.8894983354578357
P 5.182328374601902 5.81825983114579 6.397055642976079 1.145162406058202 -0.3208775311832216 0.4992642680576627
P 0.46887211949150664 8.646330826167777 0.42038845959479276 -0.17919226349487205 -0.12875853232435244 0.3989197680996291
P 2.7524086477231346 2.05444877596353 12.042092827515523 -0.48233921016755 -0.9670646611790894 -1.7370720056574278
Ni 2.1912753512793035 7.840080943614347 5.563428493834406 -1.0562130353109875 0.7810036955888421 2.1297969578002545
