# total energy = -340862.95349277946 ev
CRYSTAL
PRIMVEC
9.38795841375368 0.00000000000000 0.00000000000000
0.00000000000000 9.38795841375368 0.00000000000000
0.00000000000000 0.00000000000000 13.74022608790876
PRIMCOORD
 96 1
Ni 0.852840615780584 7.964039661156464 6.50588696892851 -1.3861719599701867 0.3305268813475275 -0.002699144098717932
Ni 1.9442085965483267 0.9825155439456011 13.366546756768445 1.851975634376559 1.467886760642175 -1.4060399025387076
Ni 4.075115518315665 5.495222571041304 7.058903424083955 0.7151608289521039 -0.5973112302307714 1.6329341000952327
Ni 6.43715397158057 7.7617385493676325 9.239835020048611 -0.37565951202010783 0.302975196981504 -0.8157529261445692
Ni 5.273601041225585 7.855449148368798 6.868065948083576 -1.2813547689527804 -0.12081433777661128 0.3602334072730248
Ni 6.614464338574661 5.939366874662337 7.57010872969307 0.4455462097089165 -0.3346190491390301 0.5933702433051523
Ni 6.092587740851279 9.343975640637664 5.266312230459755 -0.11516459569000166 0.3434569591456343 -0.4348547914333414
Ni 8.532921765712029 3.5035860095406743 7.851536247380651 0.29909745919365266 -0.31525761389328283 -0.7417722608920451
Ni 7.89478469333122 0.3279270135714402 10.367921183025667 -1.2238708158036986 -1.014487116327111 1.5572909595386213
Ni 9.376842882383114 6.6400465247375715 4.4585657332167585 0.054537983146880256 1.1959486354721338 -0.27632365583224666
Ni 0.26744321511573893 6.221737882151523 8.082138298034332 -1.615984873835404 -1.0779848797704403 -1.5579990413492395
Ni 3.898011686402523 1.1046059406607043 1.2815464221007333 -0.6950650866434932 0.3953148243571902 1.510520793262618
Ni 3.534087485813444 7.6216796006100305 11.696490949079209 -0.47162927994921355 -1.8438365502091925 0.12022144138761877
Ni 4.961714293077244 2.0978331449409406 4.574176561165022 0.43518106442450855 -1.0865415110911996 0.9293092968071865
Ni 0.619405279334623 8.797408712782739 9.164661883358376 -0.4916957116817854 -0.15343083826005188 -0.19593194484705612
Ni 7.682954803944092 7.515623836543093 6.152652836370149 -0.47060803777355076 -0.9438167463947422 -1.5173663554295413
Ni 4.141760633754383 8.534930788772161 3.0884317209181993 -0.016449146694958765 -0.4939382278590591 -0.32832370304862163
Ni 5.903664469532961 8.387361473434622 0.9956389707482188 -2.054105737614527 -0.6121662929657329 0.5939238018157771
Ni 1.279071756312644 0.061158792652073087 1.5918052982928712 -1.978045821235471 1.7508184087092429 2.6182523081678717
Ni 1.5116584213350721 9.255756997198077 4.593714779822727 0.9986192960569188 0.7379287187762389 0.4061911049500617
Ni 1.0063327939622269 5.76387777156388 10.227179729705112 0.6939775100062694 0.29032382676608065 -0.11854353946456357
Ni 5.693881155038866 4.607957251245756 0.9031666434369203 -0.15323903396421995 0.29714702033550117 -0.19282605222822274
Ni 3.2125029768187607 4.881109283758069 11.102693203394702 0.8833035195010337 -0.26369465421432653 -0.3398905819506146
Ni 1.2254759028065674 0.8296786452480579 6.985462365686218 0.07825075338278781 1.6025855697103626 0.49586115591338464
P 3.046514487443925 8.394177131105915 6.2250095855929075 -0.19065398427756844 -0.06537466875106805 0.4671270212034858
P 9.046771659153102 8.360915595115017 2.743675853432765 1.339638592295338 -0.4350501952735991 1.0200797799235402
P 8.53794432336236 5.153003329868244 5.9107157649556985 0.37698491569975073 -0.10515631952438019 0.30011690159710247
P 5.994812155938723 6.136025823557991 2.885434022629078 -1.1997608101293724 -1.001066986266463 -0.5239211473743945
P 4.093422036854262 2.3331892576397206 13.166241524898231 0.5138359952242505 -0.4826104615510656 0.14150349069484663
P 5.670692898223311 1.9768599152546034 9.592999681716107 0.9789495855421334 -1.0094405550421388 0.994774468389532
P 0.8341285374466707 2.678243662196708 12.965813310775271 -1.1792189814222789 -0.24290934203785905 1.263850698630746
P 1.1756727844233594 7.667398957165397 11.224870908121298 0.14405891012684868 0.7335406170108721 0.5023976714803219
Ni 0.5250562991741626 6.549696814780928 1.4136077692465254 -0.06666510542771746 0.25757928534520796 -0.9424471197407253
Ni 8.389623971366827 7.359042081309629 10.427636107702746 0.3305785605210694 -0.8924257935172759 -0.5724705170380076
Ni 3.110193008083567 3.2669155826904057 2.4780088400131812 1.8629563017577784 -0.32970721365970956 1.7920720160423909
Ni 5.870590692706562 4.4833696576428235 11.151251478517286 -0.03177986351475818 -0.165821755725237 0.9547750451784589
Ni 7.766545183978793 4.823946006126523 3.6569890021191807 1.1722605478265744 -1.4687640210408062 -1.524391380597123
Ni 7.615295789017084 6.307365449121032 1.2652498654180921 -1.1183427147621965 -0.4117436593371747 -0.5047222058484405
Ni 6.470068153117145 1.3366293281896373 0.631346762196723 -1.8551997977408112 -1.0658495299594868 -1.1738644019785849
Ni 1.8785210528485514 7.554518147468942 2.985146343323436 0.3498682619886168 0.3934345766153418 -0.4849064566740939
Ni 2.0351497478731404 6.090850968579669 6.0215302850468495 -0.09448675562567599 -0.5324510392222765 0.16830158472429724
Ni 8.096409872127857 2.667118931700176 10.629562639958404 -0.815880195751053 2.2223145055147016 -0.632707093231562
Ni 1.4549176018236472 3.634726397984602 6.818298503941622 -0.18917405729793227 0.9169546318965756 1.5156773977628928
Ni 6.185312604238828 4.05196481333301 8.86419089241154 1.9648375500753132 -0.6594982452824771 -0.4035824636826211
Ni 6.443584722964641 5.74428510274847 5.154040699252097 0.4798591240581736 2.2021519145238977 0.9289169464647744
Ni 1.1054226930262725 3.8677167452107013 11.435811757864526 -0.40114737187856725 -0.360779766694798 -1.3067148449841237
Ni 0.8633757825005909 4.441489976001449 4.214718212303537 -0.9873195547733835 -1.4726106484804056 -0.2008628064897702
Ni 8.994884414043963 6.69402728453087 12.59585734702668 -1.3989022630526617 -0.46978014255561673 0.7691542524494237
Ni 3.1814100591778214 4.119173206265222 4.996715417727219 0.29761007601484873 -2.2403196838428703 0.6532466079458105
Ni 8.541014185701911 1.6768770981354644 1.7150138008325624 -0.1429260820739861 0.4451942256861364 0.2546538841682969
Ni 3.4287358186133763 2.0535876978268863 11.019468953730776 0.3940763239643987 0.4195256172754388 0.8467429467681804
Ni 6.854354835096078 3.6711892277301965 6.028785299163069 -0.4428506651546244 -1.6089896734644933 0.37959278563624305
Ni 3.5130396834731705 0.30051793073795957 8.194451136258179 -0.3448404697567222 -1.1196794312957492 0.6192540530504497
Ni 4.781531210866327 5.897092898775516 9.557083231139202 0.06922412440414528 -0.9396489881702978 -0.5632651963896558
Ni 5.365678135495613 4.070261943913382 3.883908156761224 0.6699778046575622 1.6004741797943145 -2.1284859522983153
Ni 4.35172231945475 6.139396100560737 4.89299068368753 -1.1307876253937688 2.093156937979718 -1.3780254196036525
P 8.495980150096962 4.864717908697356 9.42462665095214 -1.0801019261134432 -0.19573576967585 1.3031556668779556
P 7.071085238676614 9.254912080957835 12.320516981452137 -1.4549052607808428 -0.16604801280343015 0.6300012642646248
P 2.880591713776664 8.336826094309869 0.9289328335810397 3.1221731011609393 -0.49369037351431105 0.1272392674663486
P 7.150488589342999 5.385486727350198 12.652838498268665 0.6180993706207162 -0.18496156187848145 0.9088116910744671
P 3.9582072745407193 5.485355826946911 13.117119972282152 -0.5259073245664878 -0.0002514538891737605 0.16881503402560605
P 2.0291696184838655 1.9344451199944084 9.20450813324823 0.8878255757411032 -0.8046681290853175 -1.3458025550142048
P 4.802926367660923 3.3627478602504035 6.861854874921968 0.40422421103167805 0.46078385259427734 -0.8982701681131949
P 2.5002573622104225 4.838168762837279 8.54826168945155 -0.9753970923041847 1.3541768951208293 0.4580209451371595
Ni 6.99755874985903 7.8726760517115295 3.4537566048744366 -0.5386674524456336 -0.22678338301027395 -0.5097427989914834
Ni 8.417543759127744 0.9917720707553738 8.383612861715411 -0.34911801408615356 1.1373735061414023 -2.442506865571019
Ni 5.559051299012545 6.937682352300481 12.91704850057174 0.5598808532984552 -0.24418589475743754 -0.33749894178998646
Ni 8.784641089596846 1.0581918751966928 13.063835798989142 0.05563610130706547 -0.1256320708802288 -0.4936209537289563
Ni 0.7463163925982232 1.8182691369610058 3.3789965383460974 -0.020819507848512532 -0.28618692177957167 0.08916148675802064
Ni 0.5874627514743278 1.45099343528563 10.614599173343702 0.6515620211545359 -0.20544631209539457 1.0603286001412577
Ni 1.174762152475542 8.302926177159678 13.412082109342604 -0.8269829905324338 -2.0605275819804705 -1.88872029809576
Ni 7.588155201788836 3.124237393588049 13.592545891504445 0.6424299769462807 2.599656547443555 -0.662281464454569
Ni 1.701642531932807 5.738182929902271 12.810177861730878 -0.13705908177024784 1.2240237964417953 -2.035092429736818
Ni 3.5461134602995688 1.6762668808508443 6.393491516672283 -1.8461695692177431 0.5423680412256724 -1.1235669392756134
Ni 6.0877904941983445 2.091120754810122 11.844322188451224 -0.7925497485552286 -0.9341799946359266 0.17556880780967182
Ni 7.54051131379736 1.974503537740148 4.1157747653878 -0.089428110155846 1.0106746845595562 -0.8252279555145401
Ni 2.5425782778883685 9.290877348917508 10.450677912369994 0.15081654056565638 -0.028821295107066495 0.05343189456689507
Ni 8.376950227763183 9.126738287312984 4.720303886119212 1.93389278086734 1.5742389002468695 0.19839326190335507
Ni 2.3063490850746704 5.001491072076237 0.9588832367060065 0.7209165004889584 -0.9430135337671566 1.920439997796544
Ni 4.050875810178919 6.456399285941659 1.6494314022649066 0.21850314527935272 0.28954066874315293 -0.18869531788930083
Ni 1.341313919343873 2.7989352531362974 1.388161708477876 -2.218563780223018 0.5082446171794022 -1.9170649106767241
Ni 4.400051528396646 0.137154314482812 12.998184868326446 0.11640746695816727 -0.5777811306176437 -0.06677823396681402
Ni 2.26218812958464 7.318382834237494 8.322248472778211 1.9895425090211607 -0.36433200282243067 -0.04323361387765457
Ni 8.006858138620332 8.881806457224782 1.0176227525235173 1.7830808682873742 -0.7760147270146829 -0.9829733619895459
Ni 5.10690845498388 9.248284182451041 10.800998961491162 0.8385578398542267 0.5337975259478419 -1.1204265938744187
Ni 5.877265531004482 0.6639661618450351 2.792549563951706 0.5196389750592728 0.6932203201252706 0.4823939746648853
Ni 5.631009998806568 1.1761234064181556 7.345896123407272 1.2594584831003215 0.5931550419705526 0.7865595924100648
Ni 4.034531374909331 3.2760125142103544 9.003722237916902 -1.6896603491426838 0.09589212061363485 -0.2779912733426567
P 3.34937001977989 1.0091116295968037 3.7971117889927126 -0.11458018394144137 0.4654768871945725 -1.0575878041713271
P 4.11876952406155 7.796980944543988 9.30875577656105 0.5101084098610182 2.2784488866144246 0.9625752579491682
P 7.639385289822232 1.363535216462262 6.193145916581702 -0.19543572193692796 0.12791623892871518 0.7602800898882455
P 6.772247752460915 3.004953996382198 2.0321240089372483 -0.3776361761305045 -0.4890636733755771 0.9421740685849967
P 1.3519129241798091 2.3366346383082672 5.240040968163134 0.843196881288135 -0.48069781790938504 0.8365480085130497
P 2.4514587553572813 5.805635409748331 3.874675099847013 0.4684958765265544 -0.5071089609130621 -0.5034505382248684
P 9.197607983952915 4.580178282858213 1.9788539175815767 1.0896476608203491 -0.23196287032868437 0.1673477054514602
P 8.291782670746697 8.100409142331674 7.945216804915497 0.36750063035839936 0.7764425585807209 2.56763140068721
