# total energy = -381165.2365744167 ev
CRYSTAL
PRIMVEC
9.30248172830018 0.00000000000000 0.00000000000000

0.00000000000000 9.30248172830018 0.00000000000000

0.00000000000000 0.00000000000000 13.61512231863532

PRIMCOORD
 96 1
Ni 4.809066815517828 7.282708360702572 10.322740813857317 0.6179098803177294 -0.5073442168523198 -2.9780805095826777
Ni 7.021029547162579 7.516312284115879 0.18438263161797055 1.1485002121821832 -0.18016722581363165 0.43789075004618777
Ni 7.886523153026336 4.223010460984603 6.9712287107499815 1.5473503033861418 0.6954414961463055 -0.31372523640915645
Ni 8.485044833195664 6.3049337992957035 2.5655379723200995 1.4619595965244627 -0.08019142204892642 -1.6614193520191194
Ni 7.086732976243026 7.386477545382225 3.835366741147238 -1.078008019698892 1.425107717803436 2.4022945550181922
Ni 7.531047415315572 0.8826380798543086 8.720539951162568 -1.765665243914088 -2.5440366440864057 -1.9326892474775423
Ni 9.028802802902499 4.037435251197566 2.65008822956379 1.4281084523029728 0.09864191544463012 -1.6458163553745397
Ni 1.2209972510199754 4.401115777871795 11.873108247862236 0.961091731425106 0.724750529523068 -0.3532549190726626
Ni 3.698583048495547 0.2669365762635206 0.7215404904749432 0.6173378098643433 1.8802346292222523 -0.9941152375389782
Ni 8.92043819220476 1.6789026160286016 2.08831507356824 -0.3125579555739327 2.2309937784562544 0.5229341008707769
Ni 8.541529502794486 8.593753635720669 6.583565455700798 -0.45647648346817515 -0.174229520172958 0.13754990536373732
Ni 1.3679764637441807 2.245460968671324 4.154205584466039 1.5844124983457615 1.7049234459493412 0.06540989286437766
Ni 8.165206903329612 1.8133792931894317 13.091729645025898 -0.20580446676576167 0.1756153447768911 -0.07367316131443441
Ni 7.088658589979349 5.021870389586115 0.8121736405794155 0.6352925945705511 0.005043475961178411 -0.24152274610297758
Ni 2.198306688335945 -0.23658257809142672 12.141557407669362 0.13429051788617516 -0.1159284704392197 0.8331739498344941
Ni 6.7481133355864555 0.480276903532705 0.9484754646729349 -0.47094870894242113 -0.8289732814895854 0.1770891011089402
Ni 4.260304110592916 6.86759441205669 7.875149938755664 -0.2145063654151338 0.40837911374031605 0.8682959903486077
Ni 3.7754680607212148 8.971071600740068 6.491867171428167 -0.11637584238928343 -0.8156169147873372 1.1122270887827619
Ni 1.0837205268319308 4.6578549735664385 5.021569919423393 -0.15125671342686853 1.208901081867744 0.19195187715338555
Ni 8.994160360612314 8.795524466352822 12.796240961318428 -0.7141169610686218 0.38254081252097344 -0.03678400159756891
Ni 8.647763845155906 8.0816799190859 8.724624670928847 1.5306345332933575 -0.9781137199043993 1.654106363297474
Ni 5.3804438537422685 4.218126658030159 5.071238660594175 0.6091892126152798 -0.015761633709630917 0.7740581175089443
Ni 1.3497249944172889 9.107883200837213 7.23002468517458 1.0213856432191573 -1.0071489307944848 -0.430825101448658
Ni 3.0697259751177604 8.277059944709096 2.84223843349978 1.112217318590749 0.5964496535614244 -3.3499587001834823
P 8.233794101773634 0.04118580800095873 3.5527712972394982 0.20002256997666198 -0.525259920790476 -0.208494354893099
Ni 3.38472661443846 3.1279502088165456 5.305568177589286 -1.0150854120327422 -0.2594258516356435 0.6082672150216427
P 5.38473229786036 4.045984231988297 13.564732938025118 -0.2532906852721831 0.6519875387277287 -0.9340918057974944
Ni 3.785793815539181 2.976533712265159 0.8286957785363435 -1.433937143169608 -1.0629858352584467 -0.21764259705127034
P 1.779239184917417 1.6631442118289306 6.298655554316744 1.0691703668026038 1.0020054389203323 -0.20696531984308228
P 2.560443003028388 7.505121398488841 4.735993030092989 1.0816060214627952 0.14087511308222836 2.9617344641244863
P 1.4992530871596232 3.220472692978251 1.3351749826057744 0.41607879637741885 0.09626595901328582 0.5232182077700989
Ni 0.5876675443841004 7.902737378835089 10.886979127534632 -0.01825534666576211 0.08283065944398638 -1.6520708209246837
Ni 6.7576762868953475 1.730810464572973 3.7063627140399293 -0.13947951828628236 -0.47731630303166184 -0.21604285666431824
Ni 0.7064072130534408 1.881333922869832 11.212325987133298 0.43596807910217816 -0.8506952465477091 0.5653146227195168
Ni 3.865925393919327 5.235111180299846 1.3122676211289799 0.9208259419265239 0.7196345484527413 0.35648782418766345
Ni 7.250521773612336 6.423819516929586 6.237564295721655 1.6827661931260118 -0.08640629261038668 -0.08896196915270485
Ni 3.624395755997095 4.041630670497479 7.697268811680285 0.43600613142896527 0.2799977622497242 0.7678352765276841
Ni 5.113360298266024 4.832685816853699 9.995297174856876 -1.9079197538423465 0.5996223948624513 -0.3412077581001414
Ni -0.10407895732419176 1.0152635631333593 5.252687289446753 -0.7667124757771505 -2.7632352727708867 -1.190082149389028
Ni 2.9216490695390323 5.70245856435373 6.215357411125755 -0.5884694635694252 0.5819913120442493 -0.5066091384585082
Ni 6.429112629084021 7.951119586770442 8.424887543775101 -1.214911549727882 -0.3700015424033821 0.20188199178290392
Ni 3.305022950221941 0.6476973898037568 4.4954680602070995 0.290472436528803 2.415717256182001 0.49172707914035313
Ni 4.194396026912473 0.7745944047792905 11.129572969376843 1.0429697971478362 0.2734645891168968 -0.660917751337823
Ni 9.209624444480543 8.936261713777158 1.5315782812289487 -0.13797979381230432 -2.577636334418722 0.060606815048779496
Ni 8.677922491209822 1.9944986141856524 6.9854019720478675 -0.14785385839290663 1.0796846360703662 2.329412522146485
Ni 1.3137988096362205 1.2805610421005504 0.07799293781019065 -0.6521865421124122 0.4059784747186234 0.6475672981728461
Ni 1.5081555622594374 3.6357354813332217 9.614577292236639 1.891880955211929 -2.529619440219811 2.568509432416789
Ni 0.2321211078115198 7.480432611743901 4.825117317646584 -1.16300560488721 -0.5667847795071399 1.093547767205704
Ni 4.818815816463079 8.240482586200768 4.324407512800669 1.4774173258404297 1.0055049674331586 -0.34943425977499176
Ni 8.746444572281119 3.1096615295623815 4.6631518067136 -3.1619316120057994 0.579855496648169 1.388123427269603
Ni 8.307125565944832 2.7687348734149504 9.26348395371033 0.9606129920164747 2.8243277692068327 1.0804027451833134
Ni 2.9262724030025717 1.8860781885970057 8.207999249940537 -0.2006946563430221 -1.1207790921178309 0.1832947156990198
Ni 1.2386254540650619 4.1984705139487515 7.670229287779941 -0.4654735447604628 -0.2699277796082319 -3.5197798068760995
Ni 1.5111881713321016 6.655246659597485 3.2177163676155813 -0.5748439023661905 -2.441092758832312 -2.0693541791331653
Ni 6.226485970124614 2.780074598751077 10.735578445202338 0.0717332639792442 -0.22546029332347625 0.7418637921645869
Ni 4.287783641883252 7.89209533963531 12.226080687715779 -1.6291715477290072 1.1962610245062302 2.7439818238579132
P 1.9260695579325349 8.394513080143007 0.9068636030047122 -0.5298408552929391 -0.661313444114345 -0.8843347889790254
Ni 1.463066432887651 5.637536543745995 1.0952890932207804 0.07949208198905665 -1.5749904337009133 0.9477975854193613
P 4.991879188204923 0.6319361948595403 2.726673701874919 -0.6257273194796192 0.3539365185207195 -0.44027262001480305
Ni 0.5876721956250094 0.8002850688160272 9.07133374977434 -0.5155252100012153 0.9925008418640069 0.770126643665022
P 3.6377076074786348 3.489230695181733 10.574566438655697 -0.7899863587034266 -0.37840390753446446 -0.29228377870592887
P 6.230309290151806 6.434275506493004 2.1565124980240897 -1.4813657689652167 0.18601340018176352 -0.4778330947670803
P 4.41847420894416 9.123176480945984 8.62979517127628 0.3156659050752951 -0.09462122432101122 0.47866433241912404
Ni 2.4616413436395406 6.372376792476115 10.883329763917438 0.45601471334040816 0.4961830580291777 -0.16103950384524524
Ni 4.006495196670939 6.055804033728175 3.4551091918733547 0.8418390817086598 -0.4333571238418924 0.9067730633778834
Ni 2.424775608194855 4.1347020010864455 3.118298883930383 -0.30052287878626954 0.6009118030978361 -0.6280333419049765
Ni 5.542381457229798 2.2279443954080533 8.624485314654573 -1.4277081315407605 -0.2908241634412669 0.0405187860496528
Ni 0.49848651169141595 5.625787509209876 9.675968090746268 -1.6853609504363811 0.7309687425186379 0.6376446397424953
Ni 5.733045124571274 5.033768263831321 7.745683578302002 0.8485941410443063 -0.162402702741359 -0.619590610454262
Ni 7.202632597213334 4.985125586405063 10.571815694782117 1.5360114813345547 0.10353138232644751 -1.0866736657936897
Ni 6.422098557793259 8.759142459962671 6.210674541778579 -1.0550375269456476 -0.7691077154822045 -0.4354404887334823
Ni 5.101974060520806 6.591450239289725 5.764125646573353 -0.504353509655112 -0.6040552338228242 0.05915491309360134
Ni 7.5055214052070145 7.307676221902051 10.979330446030886 0.12264187790365329 0.7487440642241878 -0.5847858440702509
Ni 5.749631449652746 6.154326618662483 12.413955471008222 0.049582181803501706 -2.0933891085951815 -0.2590412146027152
Ni 6.679963353787877 4.141362578068125 3.025621048322317 -0.4689123952386828 1.6258134298900515 1.3738669173505886
Ni 2.904225521093941 2.4660507200212667 12.300718220334224 -0.02329136642777279 -0.1849548770102621 -0.5125422161134915
Ni 2.065690507538712 6.988498768245075 8.535197303420981 1.374795342702129 0.824771841813728 0.9233199119929711
Ni 9.238350508334491 3.8325759966018413 0.09224247945898421 -0.49487488074071545 -0.5726157843666203 0.9227833227632108
Ni 8.34966581529849 5.527013757266483 12.470281068167957 0.29412648834162247 1.1142670020309262 -0.08809242206355795
Ni 4.4615726072068975 2.9719661936925275 2.9918958307393844 1.2608425079320413 -0.9674444131160113 1.502727008249812
Ni 1.2789703177096745 9.334110256168856 3.788176181132768 -1.6867151504714306 -1.759412321025841 -1.5537469509411048
Ni 3.3768102024113524 5.145677120101713 12.683739536956228 0.6188961554903986 -0.32634086829063796 -0.4327243753538999
Ni 2.42128717751311 1.494806500850625 2.317402642058914 0.7092835442357204 0.08599748720774222 -0.7601263379192006
Ni 4.72205140059237 7.6199698390137165 1.0240590596922667 0.5700783626567473 -1.5720629756414732 0.7737051050448998
Ni 0.42485550760567975 6.319315436186312 7.351811846887494 -1.906469651659381 -0.016599299119577866 -2.163114855226094
Ni 5.37285302857879 1.3256966838814268 5.707295854899083 -0.763614039357485 1.3084873635035144 -0.7630401691318859
Ni 5.3405176017794656 1.9437070634594393 12.83926493972662 0.6127424771841771 -0.22224255771712692 0.38809388112871873
Ni 2.5191399837565225 9.072059343356143 9.816122072560615 0.35572266388686474 -0.7671493062042529 -0.8399050979107405
P 6.5163978159822005 2.6490398398629025 6.833321278294678 0.25617520590882975 0.46865194248844444 -0.43089812077843853
Ni 7.74426029858385 0.8736751386226775 10.93735485732358 -0.40531564432364386 -1.0663107858666214 1.037315427075536
P 6.29718483194132 8.699355409318466 12.079609390498836 0.04210361403826943 1.0812977461937572 0.17103183917126674
Ni 6.558863645481313 2.701459324907263 1.3515213036563425 -0.04401882878311129 -0.06194481713391267 -1.247339331239284
P 8.662238506864695 3.5111845522721845 11.389076862667793 -1.5394454467167682 -0.33101230562437833 0.2519999914852176
P 8.082321790331342 5.1751752899465515 4.435344259721081 0.2259266914369335 0.7099330048942611 1.2664845367091673
P 7.798540279991808 5.924099496149106 8.487258823868345 -0.4141203870994675 0.26864865578549213 0.39314918416443906
Ni 1.0584642886960942 6.746997037768297 12.884943846445665 0.6613797785759061 1.1110068432224156 -0.5015386659141362
