# total energy = -340855.05870023783 ev
CRYSTAL
PRIMVEC
9.41548713796014 0.00000000000000 0.00000000000000

0.00000000000000 9.41548713796014 0.00000000000000

0.00000000000000 0.00000000000000 13.78051715842989

PRIMCOORD
 96 1
Ni 8.892277880013934 4.99917169697856 11.386028009610005 -0.6343613410055333 -2.0890822536897122 -0.17370115847331374
Ni 4.153792773865139 0.37988948192963407 1.74458618587266 -1.039856705440151 1.1060844662201337 -0.7741691891655119
Ni 2.1972922202456844 1.0084834058289196 11.53726897860262 1.812328709408898 -1.4591750918007902 -0.2925447456767994
Ni 3.991686332780296 8.258662676854003 6.8901065647562065 -1.6759278300479394 -1.7143532239036734 -0.22833170133400033
Ni 8.56306537420389 1.5043688639584114 0.5234747183761552 0.34221048833304285 1.2140759412004638 -1.3954150758350097
Ni 6.230566759465647 2.0303179723396254 1.0588826250795993 -0.7723866433437924 -0.6178808268520068 -1.2411272888913012
Ni 5.936370450112275 5.123550281327215 3.6090070420283675 -3.1609399375164915 0.20244326360301265 -1.4647520716679354
Ni 2.734012645848311 0.7648925148933146 7.928826865799151 -0.3894254554559487 -1.2477959591607284 -0.30601398380782785
Ni 4.8571673208130495 7.856687286876932 3.287314685750439 0.09481868504379799 -0.47338920006311375 0.865277258126942
Ni 2.397587876933718 8.076651896078541 13.12275885461044 0.21136344891077793 0.6857893177685221 -2.035550600320159
Ni 4.439468067409615 8.545147702287501 11.613765103397519 -0.05264616544080611 -0.09169402337188724 -0.16724974642101517
Ni 0.47547738988000576 4.95984320743849 3.9110483352181746 1.7248677502817518 -0.5425436475715882 0.3836988373848166
Ni 5.743861401240769 0.1516091145375071 7.078293905057232 0.3024794882920081 -0.04981126709517228 -0.003137774298033306
Ni 3.7398879617556124 3.841443405418337 12.181315599900316 -1.308542899331798 -0.5845269339819095 -1.2474648010735547
Ni 8.624266040234641 3.1587546835888216 2.487259092801978 2.0086488908333084 1.1736096056553016 -0.7592765883243956
Ni 7.208308599972966 8.333845341201013 8.562014605845576 -0.1307789051884909 1.0326771569725763 0.1269623596558781
Ni 1.1120161017787913 6.172539112581411 0.8341594287069215 -1.5716258881040546 -0.6990322988213574 2.456274865889389
Ni 2.7077905143259033 2.9583177945945636 8.80168488796038 2.8399058261507477 -1.054644405272287 -0.46787495511310384
Ni 4.5132760706427035 3.7076587494751094 1.319002403587049 -1.4202028243026508 0.9300613444818626 -0.13612242888859136
Ni 1.3873814369688557 6.078412488226113 10.40367069733526 0.10597804409472715 0.9464510986937958 -0.49569789086264304
Ni 5.26506505216448 0.689856732144778 10.040939057514525 -2.766035204113527 -0.4749935684357562 -0.3118092503333662
Ni 4.626629119618741 4.9992564363622956 8.357222112527344 0.348402990297 -0.7350956202028178 0.5939176311681901
Ni 3.72616018159056 0.35765669228372354 5.086692415597371 0.5181770458017656 0.6493009930345012 1.0748442772589295
Ni 6.432152337883868 7.025083221363971 1.021625542697493 -0.831340239059865 -0.8340419542617442 0.4985014217497092
P 1.9788435044642207 4.484709482836965 6.390824940436362 0.6607033213341719 -0.9997562378748395 -2.459429609468287
P 0.6225312917674085 8.836349886748907 12.363631442457223 1.1833574290706845 0.20780427080460986 -1.7526719169782137
P 1.5772729804316612 4.421964676924819 11.995499079246452 -0.1844149453463921 0.012015022183005115 -0.6132476989553697
P 3.7213582831789163 0.8045448971889939 13.362719133727358 -0.865091110258065 -0.7826998523443424 -0.8126575750486972
P 0.13298810573611922 6.008427172748176 8.640810934134525 0.8209254714844443 0.7350642527442501 -0.7031537771888987
P 4.624614205383267 2.861121721450645 10.221133590831935 -1.377320166006512 -0.7570065613432962 -0.9011981403932672
P 5.310513608307626 6.031109081127881 12.478919374028541 -0.08507806071726637 0.5471533784294577 -0.1497402767823421
P 6.750960730468686 3.9726388024141093 8.1203491716245 -0.785800088536221 -0.6010071910251198 -0.06070965917523094
Ni 5.773350706780511 3.978683545120531 13.0610638755079 2.223040842157765 0.26865894019813735 1.651383307939356
Ni 4.13023522518684 5.9784765083414335 5.7929302121668105 0.16300382666046767 0.31506580959745095 0.11688029282952775
Ni 7.082602431945798 1.8334777994105587 6.214145208446534 0.7932745425363951 0.7500915793910179 -0.5627815718850179
Ni 5.997335728965987 6.743682558954567 10.073420604848815 -1.7162033897385345 1.1053190488090188 0.11647765807447037
Ni 3.5824986796986775 6.043151489105317 10.813695387218436 1.614213383757278 0.09030897009890253 0.2699784303405092
Ni 8.814863745228571 7.633314271351763 10.037150265512865 0.3101364906166336 -0.3860848211184899 1.5829881071944092
Ni 1.6934130135838683 2.648407037301909 4.7508335174563845 0.20961381320952288 1.0671029427506138 -0.6529732996797658
Ni 2.854229584906874 5.725529447892788 13.370973691251846 1.8041826832629961 -0.21349077966642588 -0.24570773071860266
Ni 7.715925755006198 5.362129308489255 4.666661887592519 1.7968606956802862 -0.08601779892271637 2.5408173658181594
Ni 2.110980450168159 4.2166034881868555 2.1057040112075995 -0.821510654563953 -0.5074910268428292 -1.4002896303184917
Ni 0.9595228730043169 7.982261638084956 8.277446573581903 0.2980103967770609 0.811433729943925 -0.2742870850181921
Ni 5.452725125188934 3.9253353953158774 6.141976441514362 0.7570117035496188 0.7561107890019043 0.01602054379797241
Ni 0.6302228031644119 6.531852930591506 12.477004263956132 -0.42307579652054234 1.9508463780025431 0.4357081405725722
Ni 4.890714701284984 2.316247484035306 7.823130490917916 2.2852270858785224 0.005617603297093551 2.818494193244191
Ni 8.607610043587195 3.1273069567360965 9.336079688253838 -2.306943908730324 -1.492431796971391 -0.49802396789265846
Ni 7.738654740821313 5.449128409123741 9.422718175733099 -0.47472411682445337 -0.7590325906343895 -0.18627616692484691
Ni 5.1725202296388995 1.840774801898841 12.182046241697853 0.8560626815072095 -0.07615736118886884 0.08913808971925294
Ni 2.2153982019037057 0.39742959281404805 3.4884003018046235 0.5747999365021327 -0.15433689501408904 -1.7245224511271915
Ni 9.29285977790292 8.526373221046681 4.71405285872061 1.0385019911844695 -0.06209856910295756 0.28646382959004213
Ni 5.8228290913946035 4.471866758457588 10.733658097732127 0.6441042793249101 0.47142179192409783 -0.2571180294380733
Ni 4.583590928168499 8.125377041726102 0.12877279216966256 0.3607391432648497 -1.019840153108908 0.32049597947408676
Ni 0.648304304556021 2.5036627543956365 6.936822445460543 0.43474654799025125 1.614423442885555 -0.0742118074267238
Ni 5.54991178284577 0.7758643819895665 3.4152664474465815 -0.8571530863579108 -2.2818180601969735 1.3236702418915398
Ni 2.558460889210865 7.945343513237789 1.5082499277334693 -0.33991217921716943 -0.15638657845426618 2.4916493887339413
P 0.8158058197386525 1.4030111455244019 8.836756635790834 0.3191723755666568 0.4993352305049142 0.2525694908354424
P 8.83186811489804 3.2833215776791094 4.96692553682131 -0.20133074726512423 -0.6882125824980341 0.172679916297651
P 7.68799000483493 0.6387457020707253 4.412659351042021 -0.2483256279574239 -0.8211067342573148 1.8455792439319116
P 6.279677940083556 7.044017765885178 5.2856275344021055 -0.29222927131890963 -0.5800755830787752 0.11680547372753432
P 1.7394076679777497 9.046475311950188 6.076794907545485 0.13076887788616187 -0.02271183977521895 -0.05806425113258388
P 0.5466660046069782 9.407239114970858 1.3990255698427374 1.193736201201847 -0.14196474660198133 0.49671913303830584
P 4.138549100279941 6.292238199850484 2.0139670374736243 -0.34051021781248453 -0.607729854460934 -0.4475421570930228
P 3.3247026434029805 2.3418858553586506 2.658040963683858 -1.1888212803987332 -0.3817625395940522 0.20553450093382666
Ni 8.07852557800779 0.33564140038939927 2.3446445930735753 -3.1647302577968595 -2.008431889726496 -0.5962730187742441
Ni 3.5397711993221304 4.413358921732187 3.832637100350865 0.6142468296438452 0.27737266592205134 1.223891384628989
Ni 2.5020338751305102 8.237016472053279 10.274299080187204 -0.18083057042924341 0.11371320795545577 -0.46738258885771766
Ni 7.552840103264863 7.460587160838814 3.364168599054443 -0.6693697387599181 1.0933829594930653 0.4102894433891515
Ni 2.2342197605799328 5.3366604159333795 8.19858057068855 0.8543035327242576 1.8710059115351327 0.1578850173766636
Ni 8.202499296411935 5.568300229116241 2.2585578531373014 -0.3291364287579041 -0.5505495485952002 -0.746190701674715
Ni 1.7356791350934146 1.7414037512390605 0.5761458946596381 1.6194134399009787 -1.1741981311689198 0.7347148398246315
Ni 9.213374235959595 5.075371233930389 6.675875045638616 1.3635025433971293 -3.1514610514917787 0.005783953671628749
Ni 8.572283136056829 7.63005651282151 0.8421785990543664 1.668750081352578 0.2983233000317894 0.19415788366576883
Ni 3.3942454309880796 2.591236199742104 6.449682091732491 -2.205678439619917 0.9042837212971265 -2.798590769452045
Ni 0.2099521802389785 1.286296767660214 3.535805396163337 0.2263483523553844 1.403747249849789 0.9923005529277427
Ni 1.113908614682204 3.9456822628993327 9.606660072909005 -1.1788441145813633 0.9415834861888492 2.4721465428143232
Ni 1.392710602657072 6.908726632008887 6.158044911767913 0.2835818800565568 -0.9940422182091978 0.07106066339225181
Ni 9.028011541783064 0.4633012819860103 7.085707659585327 -0.18358190792213544 -1.5052520886645107 0.23211122298109058
Ni 8.065720515576741 9.016505816569282 12.767125550500564 -1.9263453075373853 2.5033386521464114 -0.1347502311314131
Ni 6.770262478986077 1.4171626226081284 8.789530435686672 2.6559706486542516 1.313999037350363 -1.7497645135234317
Ni 0.4736931550780322 2.009613316247067 12.375455411134364 -1.9018768900823761 1.8491962718592088 -0.28664766346607407
Ni 7.576171680253203 6.946586305564218 12.110511137046275 -1.5060167347446773 -1.795139342113805 -0.10023754206652415
Ni 8.320400025648409 6.965238385472976 6.61712899709005 0.1474810484345202 3.66117608256912 -0.9487980016594174
Ni 6.822160643780156 2.3947161533738135 3.348596324970095 0.13523436985668325 2.5483123886436245 2.639533843254467
Ni 2.408877045944622 7.477968149991548 4.083966580118882 0.21734537752582567 -0.24513026094857782 -0.3822083688822192
Ni 8.188281910918636 5.025506814345948 13.689951562604135 0.3075275922388768 -0.2556131627577727 0.5962583634862247
Ni 8.60002116099938 0.6826858971833901 10.036874391741373 0.24203593829397027 -0.166727555368958 1.1365075585966813
Ni 6.464908817440944 6.365321210578285 7.5998177345100695 -2.0642243141057675 -0.9885490563051104 -0.7740398626764993
P 0.584459769752739 6.862157632903024 2.9715201905804594 -0.2493278439696932 0.6560709647684829 -0.254074100405427
P 0.5154969761718695 3.446821510852038 0.7859417778130612 -1.2784558501384304 1.3637010325611805 -0.669967263134601
P 4.3013428719217455 8.032634493971807 8.987832833759521 -0.07470237390989715 -0.15267776214411125 1.0302387227344127
P 6.555193923066927 3.9945674718272817 1.843847075333585 1.504980323060363 1.4874317726536384 -0.8892733639312232
P 4.78307685296751 2.6899387508190866 4.516220293453137 0.25907052517875384 -0.7491726671211743 0.430065083354182
P 7.700088905734855 1.864144040835507 11.91765277360404 -0.17314297197699857 0.11808871131533212 0.16998591440525562
P 6.595529869724734 8.680514160060445 10.867784535856417 1.7836295417019925 -0.24297439094783962 0.3327133474758851
P 6.366705287179288 9.312952427335171 0.8224201994135147 0.683981318025506 -1.3257929446614976 0.15387049690063176
