# total energy = -340886.0698652835 ev
CRYSTAL
PRIMVEC
9.11165359865738 0.00000000000000 0.00000000000000
0.00000000000000 9.11165359865738 0.00000000000000
0.00000000000000 0.00000000000000 13.33582606170000
PRIMCOORD
 96 1
Ni 7.020009763322157 1.9638164851511377 10.994094855033016 -2.1991725201806 -0.0908113636566178 2.1039108340621118
Ni 4.541731090498868 1.0436032493540772 5.944257866439412 -0.7665396976447122 -1.7644413988093162 0.6172853593598531
Ni 2.642042423647412 1.5345573706418618 4.355360415835113 1.359199545146401 0.6181351089546581 2.780599989301579
Ni 3.50831466991135 4.897112917316497 4.361415109677133 0.39075651556254637 -1.3316386048089968 0.4673388801039758
Ni 3.9313414133326776 2.953059608904775 2.6661117678958397 -0.3923050909965889 0.6793417623709656 0.20261681306639945
Ni 5.827230520617358 5.068603350425093 2.393140292401239 -0.9271868511475452 -0.10611816921701725 -0.03662716430473047
Ni 5.168986438547797 3.5504378446768268 14.032889657673088 0.15335164828268427 -1.0365507809953698 -1.215889597370435
Ni 6.172325290478416 8.106765804302732 12.276054407713394 0.21973136125949902 0.4234138965862514 0.7025056020819386
Ni 1.813328413676637 7.0682468576782975 0.16475874340132096 0.25441220047113605 0.21493959629781048 -0.13200532139642426
Ni 0.45892756991785694 9.416256218448371 0.704735383588785 -0.558689146983199 -0.7539981135342756 -1.499461964345295
Ni 8.11898453183042 -0.22925467250795126 6.872551316682077 0.29482068619516966 0.5040591183431448 0.044384696762962264
Ni 0.027170951146582776 2.6190810564812854 1.1723190244621262 -0.0342496652114894 0.8295934315720873 0.9482727252835669
Ni 6.882688031353631 1.4331993355799613 5.0960594963305255 0.7079198311189744 -1.6414552501923665 -0.6102240816376974
Ni 1.1476309989317217 7.763721156510078 2.605447289143716 -0.6193774660021913 0.41351566363593295 -0.11608685039395492
Ni 7.9976264170345335 4.410769292769213 3.430908438765956 0.35899413554928494 -1.0243699226584615 0.23971474635996137
Ni 8.099203131783732 3.8206894915606786 12.473852007203755 -0.3633182168459356 1.420311324856057 -0.5850308702015214
Ni 8.295203913176803 7.489150585802122 9.019712496324004 -0.0943206623614569 -0.5201007451870397 0.743281755558036
Ni 6.9855586009193305 1.6669405863389446 0.24214766240480393 1.244276376043244 -0.6092851147631959 0.1418091948607235
Ni 2.1454481887581065 6.57557974550669 9.031647851423571 1.2197665638273378 1.0395911104835902 0.058224945080164243
Ni 0.44417306918289334 5.2974516431808185 1.1440182282645115 -0.23855620727548593 -1.222797637344178 1.2003202821772683
Ni 6.148343418104907 2.498397204054562 7.257810255776581 -0.03152172475736507 0.01660572687748108 -1.2886150500596194
Ni 3.496150612305486 5.198790657595574 0.19720716433465785 -0.014671228858929571 -0.4137653177528938 -0.03485953088134641
Ni 6.404727128152709 6.000506837838876 4.44733800347736 0.7697209235861711 -0.18834564785936594 1.665725692703957
Ni 5.361196772027731 2.6141880984780275 9.517779174441106 -0.25756925804287895 2.398782942320507 0.5795595626743051
P 0.5306144160750852 5.517580083405598 12.360644266586478 0.8437838641398565 0.11985531629745165 -1.4503397528973472
P 4.5082184284206885 6.721922014576197 12.227965833311544 -0.43375718749378844 -1.8646668566909823 0.3371878383074709
P 2.5825797720100545 8.79131523042333 1.3126977162259852 0.027918323676822884 -0.427642075734986 -0.22860166716593533
P 6.605083279984436 8.108870596292961 5.658217546132758 -0.8771601256074572 -0.42509976892910656 -0.5424531447403109
P 5.10952378691044 1.6328994483497987 12.708561826744386 -0.7386260019535795 -0.4697091801083652 -0.738494875692354
P 4.163725027699695 6.427779611855209 7.79089666348348 -0.07129026290455465 -0.9622713535555041 0.5610864435707821
P 4.837121789768173 1.2442600857558366 3.576801503311141 0.6573380044063647 -0.18803017350147616 1.181306460078927
P 0.4934944503218781 5.890392503631481 3.663485220190086 0.09182874917753862 -0.5030113938049208 -1.1329748628530747
Ni 0.2931264533404229 0.5626045208304633 4.909891100377518 1.2661698336822258 -0.8476081229819532 0.3837633720741649
Ni 2.13494245211424 6.857093396286309 4.702185488721905 -0.5178415168392178 -0.988478350968175 -0.0763692200893588
Ni 6.272444140645637 5.701717491762839 9.026140767965156 -1.2031071008937861 -4.1908981528960084e-05 0.4057375623524109
Ni -0.19523904714898987 2.6453864005323195 10.154097884363107 1.9758925223378943 -0.5561082736299003 -1.5797999392744146
Ni 2.305576389780925 5.410417924976705 6.860748991725615 0.45939031468086045 -0.6716140547094046 -0.40679557130328003
Ni 0.7888067893699017 9.067881253277864 8.90705145492497 0.41035577785071264 1.0010898690845984 -0.3108155189615292
Ni 1.546867214705924 0.765131068558607 11.5808844381131 -0.6677933954117338 1.7327510096845706 1.625507982834491
Ni 4.6931849972589275 7.143600233259196 1.3393301686426005 -0.16796554154111717 0.4558948999330923 -0.9646282838234548
Ni 5.951303908197176 7.817334126512256 7.917999675897717 -1.6352560633601905 1.352097129773665 -0.6548738591365884
Ni 5.208540126987541 2.988112140447667 4.932402351853959 -0.0369817194306718 1.7094807263027205 -1.136736643888352
Ni 0.9133521606081346 7.435400940995384 6.874058384193694 0.27038774996378595 1.155877478482861 -0.42562093153989927
Ni 4.5747152766660815 4.604464825792034 6.48234474966249 1.0758436650577212 0.5048877848920272 1.0733291261659836
Ni 0.9234569844919577 7.27873516835476 10.949700145015747 -1.1155373841029175 -0.5401244966071342 1.1302075845205826
Ni 4.993705557526062 0.5136968087666143 10.517938970417653 -0.6243471513026408 -0.04408670590656923 0.9389123671145896
Ni 8.531687771680629 7.487082240426443 4.668379431396603 -0.27761203562636705 -0.11952004444521996 0.9715221827298107
Ni 7.512740657069226 6.306057030913828 7.191624114920223 0.7412996921310008 -0.7847117405680486 -2.449341371994349
Ni 2.5814134803444735 5.90745863089424 2.434614717427736 -0.027904439719751938 -0.9567077434247976 -0.7401923179994349
Ni 2.6860061524476335 5.339492813063559 11.103168638395026 -0.4613865191752828 0.2219484235154758 1.9391596856932345
Ni 1.3352126123638812 3.7919968942566578 3.6699526719418785 0.34952270572374 -0.4909704034799867 -0.6999411837888719
Ni 1.5583478982889871 1.2775996264149063 2.569920040446318 -1.0975278348993742 0.12377830550094167 -1.6401573573165495
Ni 1.0929884120685236 3.342081660951506 7.830116865400096 0.6681052702251977 1.1496296978009362 1.1107494757959708
Ni 3.672069309081835 2.7461066198396056 7.7970843874686055 -0.893337506698268 1.388029839114532 -1.4755478767318586
Ni 4.508910914097127 6.990597345380786 5.515191007821884 -0.15773152251793482 1.5161399392216084 1.3506912505650739
Ni 8.466512113212653 7.1544431010876455 13.155712584335967 -0.5027578830332179 1.7564429539848718 0.5621326254471094
P 0.4276445294847373 5.779002537914856 8.119091138177978 -1.036427625153944 -1.4287548276377202 -0.9513647339453294
P 8.787743462197486 1.6438060977537088 7.803724960639507 0.6519456297461997 0.9067838620111609 -0.2362062189860706
P 2.184227386638675 3.324578174314153 10.085805129185795 -0.7525148441205298 1.4971338304327506 -0.5064343034435407
P 4.497576016972262 6.5431604818649935 3.4029429514221965 0.07526210306810908 0.03599158760326059 -0.36305210766874246
P 6.992027875001851 4.182239907890794 10.287242834304273 0.6325484561665107 -1.455083695340236 -0.12576962489935758
P 6.596891903364457 8.230183152820661 10.08331126958525 0.0340023250873737 -1.2568141034989386 0.7266333483680777
P 2.5176045699220997 8.668317017972718 5.5232994683937635 -0.05023832733026186 2.177038921506354 1.2521362384072954
P 7.399892826770626 4.0611642543576645 1.2218754862649546 -0.2611520902981309 0.5141864365851339 0.12087527292153379
Ni 3.1625091910665786 1.492078841384528 0.4220426848284935 -0.35971275888286436 1.9530796382084363 0.18051689584356653
Ni 1.8343763335789194 1.3121327937004692 6.934109648656024 0.07047805141590442 -1.0832564125820245 -0.885477644334217
Ni 7.025330969046371 0.8466302545178993 8.809673390171865 0.3292685834603942 0.05469147800560903 0.5180423199961142
Ni 2.8997382118189927 1.4445980142802883 9.51852633003937 -0.24353874809174184 -1.2114251338411781 -0.5185804518877715
Ni 6.518431453893221 2.529978195561623 2.5182842992834455 0.2986490588023244 -0.6026532112689749 1.0746421885504525
Ni 4.495799244512979 7.2321108366924305 9.97866483872563 -0.4894225993768926 0.05502289320309879 0.6267863568717528
Ni 7.60789365600409 6.12992876610382 11.12905393521338 -0.11111639376255703 0.05659949366159929 0.03769622899919314
Ni 7.82918838789445 3.934484933837564 8.005602758628672 1.1622450725721014 0.2890156494776184 1.1742575236519452
Ni 3.401644540778874 8.61198877518661 12.482652953452073 1.2389536782787502 -0.42649639216631713 -0.43691681616869266
Ni 0.4789212714942978 4.850324575888696 10.118758335730641 -0.21153699837416473 0.5726864897035556 0.11530420659165949
Ni 9.219353383345199 2.721742058013327 5.640681257542311 -0.6565129374019081 0.8428718938485483 0.30310838012525865
Ni 3.706502248177387 2.81142806476578 11.523674187254898 0.1042039829134399 0.035850434039706 0.19365626143900197
Ni 1.5552043777841007 3.3207421681328277 12.685784514981735 -0.12188006003696429 0.5466167891996973 -0.7945850338177025
Ni 3.26455060015128 8.50030723655359 7.739726527821476 0.35885940974363356 0.169332854202289 0.03115302856403667
Ni 6.085892144074498 8.318857766019368 3.349746383991246 -0.47642695844817307 -0.3111523334756577 1.3578810834452937
Ni 3.4937998056670487 8.587250635561201 3.3842595056388065 0.2569102843026414 -0.659144204377168 -0.30236301731880183
Ni 3.9192502489559122 4.7179140252307015 9.308886314316544 0.6093038838162732 -0.3100902107597305 -1.1345784598947686
Ni 5.380586370968015 4.563234593083018 11.790297573660355 -0.5316252008868715 0.189781351864628 -1.6280209790643316
Ni 8.336917063528599 -0.0019325817364822962 2.897314511951457 -0.5998828476126894 1.0112840360087807 -1.0124929687152173
Ni 5.22915068751523 0.4773786685334941 1.5601046251102684 -1.190734438261046 1.0553869398652662 -1.3490645135949282
Ni 6.542385991305819 5.713152617077715 0.042866685702284815 -0.013058118735538802 0.7861379314916138 1.0790603722228063
Ni 8.356580012078005 9.087580648441818 11.12049171429036 0.09095251722017239 -0.45431212882700467 0.2463955008142466
Ni 0.04149082600304471 5.247255543292647 5.744433835180107 -0.23864105367980837 -0.6957088908750793 -0.09069797800720508
Ni 7.816650752489455 6.710541559183144 2.431214248290277 -0.10546176657994094 -0.37622258361242944 -1.0245270170616163
P 8.492863015531874 2.071060648462767 3.551996848614178 0.8174017746019019 0.7939006061561682 0.0923195727710281
P 2.326706314565944 3.5783468397680354 1.3805512896979795 -0.5634521155894813 0.07133062922418683 0.21842909750830766
P 4.818752696035272 0.9759674444040155 8.250035623765722 0.03177909218380979 -0.9659477739658268 -0.8317045643778193
P -0.23275901449687672 1.8708047248210515 12.269986957556283 0.3771044719967505 -1.84312872550889 0.7973235157947881
P 6.974934412778178 8.445619091422206 1.2282190195272789 1.3880342099899063 -0.8487730898243319 -0.7043159158178
P 2.5230442271435987 3.3105188927517193 5.664325087565875 -0.4563684971354012 0.3803332633466933 1.279551140085138
P 6.916856732493699 4.27311954126974 6.096926356629332 -0.32583513229881306 0.6338329793058891 -1.2357665388000203
P 2.4016223307722497 8.603760951952081 10.272307011661928 2.4622498525259013 -1.9020398980228017 -1.188208843625715
