# total energy = -340887.96734569327 ev
CRYSTAL
PRIMVEC
9.07501707648295 0.00000000000000 0.00000000000000
0.00000000000000 9.07501707648295 0.00000000000000
0.00000000000000 0.00000000000000 13.28220480822078
PRIMCOORD
 96 1
Ni 6.5300919130215 1.8399597193942883 11.461241133605997 -0.5419116704145441 0.23961421622635506 -1.0641652002785287
Ni 4.765953961595347 0.2586633977309569 5.939709414807093 -0.13932088122123104 1.353042781516386 -1.1476005831860492
Ni 2.68983507190366 1.8785829922216228 4.616243404303867 0.41843289843189224 -1.412314936914142 0.9545989246119108
Ni 3.7551785556957866 4.427827899031047 4.607450620224354 -0.07584522926508874 0.29827779150583467 0.13338523246308642
Ni 3.6891578062082724 2.8600551678675497 2.7768445209670802 -0.3715411189763601 -0.4063204314390745 -1.7232590110337351
Ni 5.342017897810936 4.357668941740604 2.5639573245508887 0.5512797418930054 0.9052728246832731 -1.6378443929126567
Ni 5.4558821375112565 3.064233977863368 0.4905464199653292 0.0062976600832536705 0.04696788410910621 -0.6184642101593026
Ni 6.016681894944989 8.37216611140281 12.13062437828276 -0.6766102223724154 -0.3742523472599361 0.9589746850821033
Ni 2.04426557962967 7.273381189554122 0.17058218914664608 1.0358172452634546 -0.09612557678067961 0.2336122330066493
Ni 0.7792326968068761 0.20471423600540742 0.5363180837715387 -0.29391205833797124 0.5289538247022955 -0.639479378958389
Ni 7.950177815709424 8.835926710861289 7.196962285460039 0.26873581618265974 1.4012692206229416 -1.1778367563627714
Ni 8.936849976160346 2.7025128708086847 1.2191296312684647 1.146841850643154 0.10814959782474924 1.0018128632935521
Ni 7.151422034590178 0.9440831051457815 4.665188601594033 -0.9388036094508672 -1.421506887826055 0.9152345638816752
Ni 1.1569648565517061 8.072944647196309 2.587493381430046 0.3987043096547133 -1.0216568946026727 0.8711779398820931
Ni 8.17733456903203 4.320343396360241 3.587922360320573 -0.8404843674529783 -0.19352744917062153 -0.600997677943423
Ni 7.825786556159547 3.456311017156639 12.557541315769505 -0.014424660065762254 1.429714363337512 -0.503387803307733
Ni 8.420917103326788 7.277228996809477 9.030305409878197 0.048195328758304096 -0.20004056769879097 0.6278891030176283
Ni 7.265812625282977 1.0635103303355662 0.2881626483542027 0.24273245014036257 -0.7338056977468007 0.4678620995972975
Ni 1.9988995690883526 6.345070464148451 9.163393258326202 0.13781755720282718 1.1394072487419795 -0.8125835272776523
Ni 0.6352085452375784 5.521467286177409 1.1040239292272649 -0.6057009969563633 -2.1836309729015744 -0.04542342244012178
Ni 6.572662818292418 2.1913806820272077 6.832897101485408 -0.46157292415447604 0.3356575177058736 -0.043512835680970224
Ni 3.9090091707559718 5.063079096849051 0.4860751590344016 -0.27646120985137546 -1.4933049436049637 -1.2472495997389552
Ni 6.070306171057942 5.498661768175744 4.367069751966599 1.7749744371301561 1.29632218889589 1.8977921784900413
Ni 5.110114910538917 2.8961011358351656 9.489338832923197 0.7697304366678679 -0.043302519442377035 0.11022422096559081
P 0.36705540211293164 5.795206102334299 12.32477075686161 0.5252642916658502 -0.4264750520100784 -2.0055599674953393
P 4.139823155974587 6.810927392559728 12.473238944310502 0.25982077308121704 -0.8219269161657652 -0.16308353085846752
P 2.896845287238324 8.895667548507516 1.6589476130811815 0.2247229009368194 0.12476458067361093 -1.5438176076425347
P 6.6038264270539475 8.024429605717236 5.56896320323484 -0.5639403680798095 0.49223744311786843 0.7148522965727496
P 4.798297322581395 1.2522071611388481 12.598583080657104 -0.17704333547266932 0.46214242350470086 -0.830900323308969
P 4.218385579110451 6.507186569831606 7.9206168549698175 0.7044750671034834 -0.1350729045781545 0.2245123275879101
P 5.040527679326511 1.4390436134342346 3.7889085792965 -1.0749507209298068 -1.9109361720711668 0.3035153857556902
P 0.4902106443321968 6.12020061513799 3.1085808639830423 -0.37310794924284774 -0.5145682454045848 2.289699776937895
Ni 0.5702495727521317 0.33501423919670276 4.822503115723395 -0.5038634573925709 -0.5714243351616805 -0.2960051934215741
Ni 2.1943028375371707 6.52427482705291 4.846769711480042 -0.650600171461899 0.26184166016598776 -0.9731525192443821
Ni 6.441683096319458 5.663445928889733 8.90025950716603 -1.232105287898349 0.8398369636769665 1.777884154577783
Ni 8.850673613667778 2.5443171725177782 10.308571482653251 -0.4305597636024134 -0.8006597792568727 -0.574944689610113
Ni 2.729828672314859 5.2022535592738635 6.921422985908191 0.31495885170594146 1.5469949769292517 -0.3327125761449367
Ni 0.5434946073034598 0.3609560831121677 8.919664616255947 -0.32766730041154535 0.553706349056627 0.15606699033131832
Ni 1.8458221804484372 1.3118481735968468 11.187747342911122 -0.39851559068267495 1.3234072180381402 -0.18843846468348835
Ni 4.732358248247886 7.066098723706108 1.513480533791126 -0.4384787613391739 1.340801759365504 -1.1836500206104388
Ni 5.820561700144349 8.230105793536483 7.932477902334791 -1.1175047922419334 -0.7026999774809317 0.7189583483213231
Ni 6.009049805554062 3.1389395187267644 4.536151840784684 -0.46684188586289926 0.8114630405199638 1.809081406116194
Ni 0.9881876883085743 7.679978256226091 7.006229928318605 -0.5291230032903081 -0.22696798821725428 -0.656372812279618
Ni 5.239497429500221 4.580442461798267 7.081381052522187 0.8585471384919601 0.6248166347398916 -0.4427221099965601
Ni 1.0042595436133697 7.674823646506654 11.16758446989238 0.19876787163395446 -1.4718771127484909 1.0645351820234377
Ni 4.901752517654612 0.34185952460404734 10.1021393459086 -0.21718699757109047 1.1715797197094662 0.015621765697656966
Ni 8.271687521942226 6.99494151453338 4.731838249767386 0.5601693310731514 0.8037541019114803 -1.277345647793387
Ni 7.251474098246513 6.390617975032002 6.865956481321568 0.5272808078752467 -0.384785385580776 -0.37827560948671624
Ni 2.6833192096174696 5.902400204457531 2.224145123807238 -0.9090384623732926 -0.03275636849541456 1.5986628376171885
Ni 2.5171102712169446 5.715345951751464 11.351304561311613 0.3094602904852154 -0.8295921460205068 0.6837589176020546
Ni 1.3872071156922856 3.853987342007821 3.4169535754449694 0.6042323828306368 0.053727571430442954 0.24436664330967595
Ni 1.628248645195771 1.3375123219886942 2.614004228918414 -0.09733090994269043 0.7852336745097895 -0.4842896490257015
Ni 1.3957648568286052 3.6435013951193813 7.930326215777611 -0.810551584449288 -0.2060296954026903 0.947677000681097
Ni 3.8174694731503975 2.8931789803252026 6.553240466669988 0.4519449141464088 -1.309736405419267 0.9657847660254012
Ni 4.506680722714485 6.927577662513337 5.717697288685102 0.21017508502963156 0.01068884717241385 0.3996301639030924
Ni 8.298286397096577 7.3292923699792185 13.278698440570148 0.4517945046114735 0.81277096069811 -0.30990123467737596
P 0.43231203515964167 5.796485679747047 7.83550499198445 -0.420945637551417 -1.0636556076319617 -0.06258425049012448
P 8.67944619080449 1.9893345010526358 7.583754034787465 -0.4480054698826865 -1.0354480348494943 1.487851119579244
P 2.0077114107037994 3.5147087522703373 10.226620448127886 0.61170889371334 0.12413157507530236 -1.3998299170732538
P 4.390738304095587 6.292580565174461 3.470016107998707 -1.2708744382467467 -0.09295643502407862 1.0077677953254063
P 6.934846751219797 3.975937421954654 10.345309874426489 0.6031396639870903 -1.0738518314386731 -0.03575813143621583
P 6.551744903849983 7.592159315636309 10.172216628045039 -0.33690938783510366 1.0316602856722876 -1.230855474651648
P 2.3887623042063733 8.640142291693781 5.615569768615324 0.8762982918277941 0.30021768884102495 -0.0416878666570895
P 7.259932014194605 4.18952702469529 1.430280776911191 0.10320510933528032 -0.29663434236514075 0.020736718326719125
Ni 2.854610157600538 1.8156295985178588 0.38723370266076496 0.01162755693659933 -0.34295610824981576 -0.12820805913752112
Ni 1.6054975772967748 1.3844392354732213 6.912365211329018 0.15885869414384254 -0.29299263184749547 -0.9278846485455181
Ni 6.8372267921493926 1.260846577429173 9.089172323376568 1.6183590304945357 -0.3873472327706813 -0.5933342478608942
Ni 2.9167467997642507 1.917505740613643 8.87535493770643 -0.7893934623144341 -0.3843321000934413 0.8845733873523927
Ni 6.783729566276006 2.1509242557433126 2.6167802766528783 -0.05857564355136364 0.5252594065698438 -2.3207376200803065
Ni 4.083921050566603 7.303020195440888 10.22434897134483 0.36689256446075524 -1.7906710219298065 -1.0832985786738698
Ni 7.334392529595986 5.920023887688425 11.322415151838273 1.0288863224715765 0.5654953712717551 0.13965641018377883
Ni 8.087618949865904 4.069764023872374 8.245141281887124 -0.9224387949395983 -0.5786871873716808 -0.9858820509959085
Ni 3.286880447681466 8.782175384508774 11.905929677102556 0.7898040674892914 -0.07080946661339418 1.4218619571726285
Ni 0.190726004629455 4.881841930111573 10.200998952316462 0.7266343768093422 0.8397078942982699 0.08590955547962624
Ni -0.3352175195800045 2.5855903503417257 5.474181002015261 0.5570788650732857 1.1132583582607536 -0.23896038469244008
Ni 3.601692791285845 3.1086834116764046 11.650472482917158 1.7248615796341649 -0.3724155511615135 -0.10798093345736888
Ni 1.4255309129549345 3.699376275476031 12.258279921487711 -1.9051043958807385 -0.020566511297442 2.2817738372225995
Ni 3.1291294252290323 8.426616214072926 7.689360916417863 0.8739321055884627 0.4708255531009956 1.263098908066386
Ni 5.9896292689350545 7.940921298255504 3.3708906035894746 -1.1095513417228118 1.0224500799279295 1.7413832314382718
Ni 3.5332399372123993 8.39100584692667 3.7421014560378474 0.05319663862763741 0.695368476816525 -0.22742281636648576
Ni 3.988161470004095 4.8667320266206175 9.219816269716397 -1.4508555161915013 -0.2913131872625434 0.4066276782668481
Ni 5.168376520395941 4.948570530933799 11.279978556820607 -0.6965146746058263 0.07731410050113136 0.6668765400244192
Ni 8.012105732479567 -0.2994129470675595 2.5674766161868003 0.7860787961189043 1.2725808794148923 -0.14334285789643056
Ni 4.984171823062942 0.8312969774783285 1.4980729697389057 -0.3915152481054418 -1.177311994207553 0.6014401647974804
Ni 6.340478505489938 5.658545419649423 0.1835031985102643 -0.5137971715665152 0.19590649092575937 -0.12739430498697416
Ni 8.289973681422273 -0.19889987254195035 11.031455583210247 -1.7423247694159347 1.7507320196430236 0.14646469135486387
Ni 0.2787763581555861 5.132121827034755 5.664966901757651 0.40339348760026655 -0.8623893950561857 0.7943716322553158
Ni 7.3753480818210235 6.432226928489081 2.30511333397941 1.092608543220886 -2.039421653239791 -0.06770845909056726
P 8.700191679921804 1.7039433629243421 3.305888071021892 1.1418991619258978 0.5866282965956284 0.49278483098090625
P 2.1880138506787725 3.748290617708017 1.359420320798015 0.1242022804122377 0.0037563817186386916 -0.7205411194274106
P 4.704379970492559 1.2368613072029875 7.986310903841312 1.6197548824007977 0.05668356873497334 -0.3585367362968922
P 9.13137296794933 1.5717838887268623 12.294952065636034 -1.6120567424255916 0.5017875487001487 0.7941129792772904
P 6.627757247177462 8.063234378886804 1.0809234731694688 -0.6147006293518124 0.8356080131972835 -0.1947027004256453
P 1.9411370851724727 3.5514988716411113 5.726104384537368 -0.8894096323987716 -0.17387985014302312 -0.7049376085621989
P 7.156413294001604 4.3752926249714985 5.97814755728535 0.3907984245440754 -0.7409834464421625 -0.13998294028526215
P 2.266748699139758 8.700581905657607 9.911062138116923 2.063579738543233 -0.05786807596137775 -1.5799151246960401
