# total energy = -340885.5059259519 ev
CRYSTAL
PRIMVEC
9.09217105463242 0.00000000000000 0.00000000000000
0.00000000000000 9.09217105463242 0.00000000000000
0.00000000000000 0.00000000000000 13.30731138918815
PRIMCOORD
 96 1
Ni 6.388868477774176 1.8004316855926075 10.88011087203727 0.7243851757638492 1.887200519017124 1.5607861171760733
Ni 4.762597326155542 0.6352517978435729 5.678815389771173 -0.3363270329690724 -1.7543590748726496 0.23001191724990067
Ni 2.840003232080851 1.8572032008175356 4.7981504421042995 -1.366043821761744 -1.1815124054421458 -0.7649322439482762
Ni 3.434949436235746 4.226659311271914 4.679263033587625 0.8675272305033833 0.4624291015071842 0.36893839124619043
Ni 3.842933329761205 2.8865733315334587 2.3505234829475126 -0.2823590633930492 -0.07222408757273367 0.5141391282869662
Ni 5.323866129222491 4.871630639829043 2.3107879683755232 0.4276371906389796 -0.33933213834398335 0.48253641378002055
Ni 5.567772706324336 4.687068662322507 11.611986079465536 -0.478866421127601 0.43718241112525347 -0.7599782423771104
Ni 5.822426229453706 7.865546141244868 12.267690715793812 -1.5686889169629177 2.6523873021783677 0.29562467015370375
Ni 1.9971135269355995 6.555682537644732 0.5249228498139623 -0.030169581604844814 -0.891638007508658 -0.5888805829649149
Ni 2.7643018170003337 2.0093515889940163 13.021270753642474 -0.7470952157668552 -1.5752074348077258 2.425266333323017
Ni 8.219149760497379 8.95068764838451 7.081485509603757 0.6362300187831559 -0.0591400006952659 -1.778319185232673
Ni 8.830052724617 2.371538217595074 1.0369057219744784 0.25840846611472273 -0.20738903764406216 0.9839069295474087
Ni 7.110341332452789 0.7093138945072014 4.706649561615973 0.27969257230447964 0.23486410313587938 -0.01131053991681278
Ni 0.9189184383788914 7.872838062322766 2.5738335652641187 -0.965376217733073 0.5251516773473859 -0.6489400101506565
Ni 7.442832930828893 4.053762589055829 3.4350158090834624 1.8338195322928226 -1.3202043948301263 -0.7285632184009389
Ni 7.693713203026433 3.8402784158525445 12.395387528714942 -0.1653569002736765 0.03248151756747309 0.6646252820963973
Ni 8.478840346316469 7.1998446629899755 8.87298231883321 -0.6499031453948743 -1.2318098681451173 0.9241886877511697
Ni 6.785614448042427 0.9547688683167344 0.2855214434030131 -0.6705871561067871 -0.37453593993862594 -0.5186997510744551
Ni 1.807214445098981 6.615136243291081 9.071767179310015 1.3275942595362942 0.8941039525506472 0.5256144759164174
Ni 9.081323960164102 4.805539649411042 1.0915296664280854 0.6693337433156601 0.6626733005763491 1.130962717519052
Ni 6.470688923883902 2.1001369156309324 6.636768336344116 0.10597135922650781 -0.798014885434858 1.8253114948218112
Ni 3.523179862844122 4.522554921694728 0.2528469087675512 -0.22696130334903492 0.6907618312824491 -0.1959903088888173
Ni 6.392032553254361 5.555798317222601 4.657758230927471 -1.6768189744036412 1.8745722887301524 0.4960843276677843
Ni 5.38069219747294 3.0313206925810006 8.823625468993601 -0.21499873167052005 -0.2486850681793717 0.12718296030711645
P 0.28508683763303366 6.000414567385031 12.617101025817984 0.6741409348963164 -1.3676368772804768 -1.9321279756574337
P 4.03996067359916 6.378912550616697 12.584099173029399 -0.2004491159911193 -0.04563656689219237 1.5908567113092087
P 2.5510267637282107 8.430642748269168 1.1917599402167725 -0.7041907030938453 2.974729076611941 0.30148447136859047
P 6.467415742352675 7.989545168252807 5.844371093186391 0.18408892946554103 0.6286074692408916 -1.9394610189837374
P 4.792119605133015 1.2875696005041204 12.40783016461906 0.07555212350470214 -1.135531053616025 -0.7666476839774861
P 4.120571860976516 6.401015618123392 8.387811349498893 0.21137450465437144 -0.4611587194351928 -1.1355382527048767
P 4.555641331672869 1.284469170220376 3.603766501359994 0.26374993293229415 -1.0229905258124317 -0.8849891347335728
P 0.4225859200230947 5.945797896668159 3.123372558627083 0.2103576333540829 -1.611422708386018 0.8180543205842363
Ni 0.49042260725775 0.12659393258852697 4.685543905259211 0.9807336740257497 -0.20514189348109832 0.56103013641155
Ni 2.192786137306464 6.444430734266734 4.840747262864835 0.2338300054444102 -0.024103577916423004 -1.8834847607284337
Ni 6.280798934218202 5.598431506666818 8.966931720950312 -0.504917095468066 0.7842592264116622 0.7664895611330671
Ni 8.84043598380772 2.539379692779599 10.627245778927877 -1.1115048659047566 0.3909609182638686 -3.8089407236823307
Ni 2.7572735688791186 5.18161911517797 7.06433221994595 -1.1292164242519067 -0.5487099242833001 0.35204598636622597
Ni 0.44776668738623343 0.07892368045459079 9.235872681463482 1.0464821811764686 0.5929647803366175 -0.4576237096987409
Ni 1.3955573145218125 1.0778223095489852 11.123488284791565 1.521759856511547 0.7658367580404165 0.5711991065247518
Ni 4.103669515236103 7.22063845788418 1.7429518902530061 2.0519930621468983 -2.054907407580216 -0.08823588961995772
Ni 5.948498271431421 7.887903789537325 7.898501623961761 -2.2282036173056268 -0.28801908989230396 0.633169120469645
Ni 5.601822886420004 2.89057388673829 4.611715477388228 -0.47392244685876445 1.0579600999090812 -0.016282539210107444
Ni 0.8772972075580789 6.929261656408641 6.6045520471230255 -0.7465457710212885 0.8854035965631719 1.252315701407953
Ni 5.274095585606019 4.789628350300916 6.805890898411279 0.9021085680226787 -0.39468284720014607 0.5125543002983495
Ni 0.8536021009232799 7.890595072129666 11.601114570696407 0.583050606546699 -1.5994051150998518 -0.7991091469403012
Ni 5.035853430987379 0.167275942153296 10.197805271248141 -1.7883770836893071 -0.6424708574865451 -0.563649576312268
Ni 8.207020804490003 7.242559681972472 4.466027076650458 0.13363102992530534 0.879983196878549 0.7445688498005757
Ni 7.514470145508138 6.469425112126012 6.859785650757096 0.4302735998205622 -2.1369299693006103 -0.705365697238553
Ni 2.921450899182854 5.0704582335091715 2.553313444714609 -1.6018836585473317 1.2513759632025028 -0.29586069742390986
Ni 2.4104708934748214 5.7670549085504685 11.268963928729805 -2.250865577679517 -0.4241458896562696 2.0755785627763226
Ni 1.0291428264429212 3.6859388144843264 3.6086099008091166 0.19830841549903266 -0.7203349169538755 -0.7176108331544931
Ni 1.8926626674058153 1.3807188915802555 2.304467091151889 -0.5788352829137708 0.13983895850823014 -0.19996574859679755
Ni 1.2085313586959368 3.2988760062459517 8.233379917204383 0.008110287811960225 0.16294314862586132 0.05078751496551254
Ni 3.9529395057231533 2.8624427099115883 6.73689314095013 -0.4060604929094684 -0.6698585054708786 0.38211580916841287
Ni 4.295477952965936 6.769048512626056 6.095865996138128 0.5502173620667621 1.76481703698118 -0.2990198118781818
Ni 0.929138038493052 0.2910958533941091 0.14964076743672483 -0.10772073781744675 0.2831159961637318 0.3263300696573606
P 0.517664569768469 5.290106898596265 8.128957243404452 -1.6781947717052452 1.21674731738504 -0.8095357415902639
P 8.611513304382155 1.8278991339421442 8.128385345853578 0.32820748918573156 -1.1614536870190577 -0.5153480609934027
P 2.0678415245228376 3.2551517562913266 10.217925336277167 0.15569880835862218 -0.5883223964685997 1.3333355328954457
P 4.305570262687216 6.252049489768936 3.905243795510641 -0.08428307561979678 0.020806138112073845 -0.6419936607398105
P 6.936026231573173 3.882329706357876 10.18610819335947 0.27275907840943997 -0.3210803912226471 0.37472414469003207
P 6.562647140569506 7.577560719522516 10.113210803790702 0.0570095846158244 -0.069327482751229 -0.31730961132630514
P 2.3394883151018213 8.561742760765682 5.744433587301331 0.08593989449692942 0.2662066220029028 0.3261048410204319
P 7.124888805924904 3.8573898815241194 1.2748905681560803 -1.730533947428594 0.3775654707935691 -0.19449289840768438
Ni 5.182846558252179 2.9467635030243335 0.40320777614114583 1.4374875795250275 0.2543399524723039 -0.3528923935269213
Ni 1.5948849776025456 1.3219470987529116 7.018395844806471 -0.13779853103943365 -1.0233080570528506 -1.0106877971856787
Ni 7.149492220434618 0.3973424166806075 9.047681109325653 -0.4065978534701772 1.6209370756343568 0.2411820749341072
Ni 3.1153050753697036 1.5789191254668995 8.821416980677116 -0.26255822661703815 1.4363858618204168 1.917746767235097
Ni 6.293882568172187 2.0524030183005557 2.4630236413928364 0.6167207451056347 0.01924470716222492 -0.1883829288552046
Ni 4.343930131798999 6.903076204158834 10.622747881973718 0.7787848335606523 0.5529381034320349 -2.580876952843207
Ni 8.401265944026417 7.562785941777399 0.38218576775684787 -0.4372598013304082 0.49133087214319887 0.5937826482522225
Ni 7.6870395495711 3.8359596346655103 8.009297909576663 1.0995777754498677 0.3883517627757957 0.3775700987792594
Ni 3.234467067448164 8.656019481035907 12.100324761148405 0.5276564460471107 0.17118636247126 0.8545765838799864
Ni 9.028816673100689 4.924419784190979 10.490752290641577 0.38389192723222915 1.0802173686453846 -1.3245199914863448
Ni 8.725765524163776 2.2710697289282815 5.844011952435048 1.0393283437405068 0.9347083563355708 -0.4857384656570861
Ni 3.884957343753777 3.177713736565076 11.577067597047002 0.10240395359022365 -0.023706342478004336 -2.2022473024511813
Ni 1.0619019182679397 3.6165655503641787 12.227875190117725 1.2178845163132768 0.4724425198791282 1.187233367086323
Ni 3.158220122112442 8.5818182741572 7.969362367244432 0.7810864851106354 -1.7451586393203042 -1.6949025713782295
Ni 5.859504102465759 8.11942682984603 3.5108545159448727 -1.3735581278609181 -0.6917442498003763 0.21995119057978893
Ni 2.9895876280578717 8.581936472379162 3.4337783646212405 1.282709997429094 0.34501350499947675 1.7794918653845355
Ni 3.628248989996471 4.729147229340598 9.715121919877555 0.9492924247973329 -0.8987666481336393 -1.6557966065157033
Ni 7.468336470259694 6.413580998334931 11.724832649622915 1.053432901462689 -1.0703875270391565 -1.2979160157455711
Ni 7.737964798894422 0.08193227981204254 2.418617478619206 0.8480326121138814 -0.7341710515060195 -0.39991658479525966
Ni 4.5224730921564475 0.48276427169177355 1.4375758732118322 -0.0011001750427142344 0.38543844578374264 -0.4047813690867286
Ni 5.993204475845413 5.99145877902876 0.18348364603541592 0.11191086463939434 -1.3030811048862783 2.5777209237127283
Ni 7.856481246837557 8.890306541304314 11.342899644217644 0.27456964925561744 0.3979844007695533 0.22546852085359234
Ni 9.031098808001627 5.085814910193173 5.218861556483675 0.23902697626431738 -0.3709988733196449 0.6141393575317037
Ni 7.41714754797969 6.382440312933685 2.4395094689593466 0.030788960356398585 -0.06542711925555829 -0.9776954014200582
P 8.93674935036404 1.5998038420703042 3.296487492945249 0.08325180614180501 1.397428763830929 0.5917764164554712
P 1.8940264930438262 3.4443780174798606 1.2844191632803155 -0.26420527530215787 -0.5618567460779033 0.04693831642275142
P 4.986364744669428 0.9032335343246756 7.8845551429874625 0.2183771612244497 1.202560998582329 0.9595734950083668
P 8.456409960656652 1.5977581036132882 12.36725635188824 0.3161400164982362 -0.5538459599582849 0.8001010785399253
P 6.340507220650314 7.984253524777325 1.1879912353704025 -0.5119531763792408 -0.2906495855366156 0.34275067710722906
P 1.8479837395045826 3.4671084447800395 5.934395405117297 -0.7929667814879893 -0.4140203711864934 0.04531209367323809
P 7.20684563459843 3.9761245415693365 5.876588291624573 -0.32479434973912447 0.6164507792736996 -0.5475413578964957
P 2.516421961206418 8.538384973672018 10.00339829106935 -0.4642854379896327 0.7295546357799306 1.188862932269946
