# total energy = -340872.6771054228 ev
CRYSTAL
PRIMVEC
9.21191425196294 0.00000000000000 0.00000000000000

0.00000000000000 9.21191425196294 0.00000000000000

0.00000000000000 0.00000000000000 13.48256766230780

PRIMCOORD
 96 1
Ni 5.963913006108082 6.554405918058466 4.138501276206978 0.5075141667712808 0.39819677389067554 2.9877486288000608
Ni 7.879493715744976 3.7730618764324757 11.136533636979525 -0.666214223850072 1.5109252277898881 1.1078369301348663
Ni 2.2155022120671317 5.4455585942354405 2.570478719696531 0.40477134178439966 0.4712513277845045 1.302846363167653
Ni 6.268366770323308 0.5888660879031707 12.584156474933453 3.3987384406903467 1.2506020611509558 -1.626537709650586
Ni 7.020897253001251 2.813926582141247 4.4434497202145895 0.05417288649797767 0.5875855183025751 0.8061678535592953
Ni 0.6588268914647124 1.6266213851012459 8.609401579537602 -1.2510815718905357 -2.0420938007553153 -0.45948904504225385
Ni 0.469556138796171 0.07515263840304558 12.817459256272869 2.174366259770197 -0.13816182791612333 0.2875987145254337
Ni 2.9343539364403592 1.4279019720407056 7.465689002861271 0.21349309365927102 -0.8488484231469575 -1.1859527006016868
Ni 4.050745817990835 3.585663905920211 6.5851147552260265 1.1288233025785464 -0.20593996390236144 1.3009843702582498
Ni 5.372830531649081 8.975628597975959 4.222888858592649 -1.8796959831099627 -0.29072851840366704 0.2410002979406043
Ni 5.169569644889354 0.12783926046212465 8.483541959436442 -0.17850860716428613 -0.5020264041838322 0.3251419628865303
Ni 2.577383049387281 1.0464458170516497 0.2353892799050652 0.17976407683794202 -0.7726147001941984 -0.3969006807870713
Ni 3.8221521671889946 8.469157555417619 6.4066468143364625 -0.064914698395514 -0.15414303383572808 0.12372122701076112
Ni 8.561424088016098 7.136165935349968 7.807956753664305 0.7895050481916338 0.5867511953267378 -0.03059921294309569
Ni 0.3907417644997652 -0.1734557383749046 6.81386040261212 -0.05856715891093139 0.22852556251236128 0.2461347909536922
Ni 0.4420143577295845 2.652165368839602 12.532855324769622 -0.4651182183035732 -0.12087295892868859 2.258323833729775
Ni 6.582741766128844 6.717613401889061 1.8994644657490118 -1.292049272552149 -1.8522335160236356 -2.8935063850850233
Ni 2.086516989478884 4.390389094439107 6.109099222194826 -2.834311619892422 1.1257963428267643 -1.194049618677208
Ni 1.162018492568873 5.423348669106155 8.261968708444234 -1.0370189788810398 -0.9516290433503095 -1.058503631117377
Ni 3.7013655482361942 5.972415602912035 5.207749344470789 0.026900938155902054 -0.09550902624260325 0.541879274514712
Ni 3.019951043160113 4.449299285729769 0.6629556714078672 0.20666347233194732 -0.7746924086588335 -1.9613236233847835
Ni 8.272722697077967 1.1960657274414743 0.7186711708549633 -0.6562306302747989 0.1050341921242191 1.5736305772389094
Ni 0.5621349552859319 3.5729330404997746 9.851348166829315 -0.7736148593239386 0.8025914490619468 -1.0449333486321102
Ni 7.572165834300245 3.447208835537311 1.7509674876998178 -1.0987997596332624 -0.8568460966404534 0.2781954189336628
P 2.96621794764824 3.9760279819378943 4.181996250280158 0.5759785301912661 0.271225672484049 -0.12178621477157735
P 6.056409836561488 9.244524373390254 1.2867671558178597 0.761272792818818 -0.8679848868660923 0.44965380411938694
P 0.8709505608735 4.552785929820354 0.18782448213959174 0.3786759302489285 0.14322150182721788 -0.39136766678398405
P 0.41021390872966373 7.055773560151594 3.0586281861081934 0.4173280954034877 1.100766653551646 -0.2716486189540806
P 4.5393365350925405 6.508346347072804 9.953302869588917 -1.327956013751087 -0.9537288633021316 -0.5256833814811399
P 1.9804694332414956 3.2911221613810997 7.969559522041759 1.2730506199624592 0.8032195695642489 0.6611895169419709
P 1.5468185724114878 7.870235741976858 8.221872009518377 1.0811085130010865 -0.6054677978996347 0.2343362556568674
P 8.20303456617666 9.339499208762687 9.026228721469387 -1.161458057894432 0.1940064456895691 -1.446066322332974
Ni 1.2833209787167124 -0.1568604749487706 2.0868044012018343 -0.5392513499735616 -1.1796954068380652 -1.4704876886001321
Ni 6.576606631273555 5.9903419879396544 10.744203738472175 0.47223837428812215 -0.2733879702426904 0.6891651762192905
Ni 8.112665687902792 7.255607614829987 5.335199862153795 0.2612652188372275 -1.0367438708427823 0.7635610746323624
Ni 3.7403872167752477 8.703646831305624 2.1913623909135462 0.22584544457703687 0.453171073244026 -0.2675119710778877
Ni 2.6096984443908218 7.776062343139573 4.298849381870783 -0.5389826696932073 1.363420525206284 -1.3704776891633816
Ni 7.802638715598301 1.5428942969635093 6.6521102436075115 0.5349501514950464 -0.6280832213063053 0.08563470455168477
Ni 3.2147738165152666 6.194109529980223 7.665014559875982 1.4186460213384922 1.1669553335635772 -0.04099264036227779
Ni 7.577444261135202 8.153041507828824 3.146736460638086 1.2248707178231226 1.4647808680233418 0.0012192171190817712
Ni 4.330566923642929 2.1224526667618973 4.1855419160546345 -0.5168536990046518 0.01691863013220957 -0.7022693177014163
Ni 6.285261420960849 8.713383824611993 6.653768388162995 0.8302472631060023 -1.294584894489809 -0.2174253388341417
Ni 4.867557037936368 2.320904934310721 8.623760190196672 -0.5720930790939309 1.2850522724090254 -0.07735086727633776
Ni 6.402501452947752 7.384850771015755 8.561430536356035 0.43719320975853093 0.4296508786348988 1.3348717670343138
Ni 6.810368165939987 4.956332255054134 6.350059867806317 1.5189239297246486 0.7956031906695717 -0.48250941719682705
Ni 1.8440594078103592 1.6453031470930302 3.409094540546676 0.8650569145860197 0.1685995755806903 1.0591965434193436
Ni 0.5305998094148885 8.613056867091025 10.222536722254246 1.2493211375560032 -0.21338279333365184 0.7935583923254012
Ni 0.019051159751089525 3.588906499717602 4.211549913407398 0.604266835612998 1.2947509877540282 -0.45027164020904387
Ni 4.347793203191567 6.401230208788548 0.5826185676946756 0.6175154730927881 0.08825157334924157 1.0222086533410848
Ni 2.8647763485094178 8.215525921827972 11.789305537242463 -1.5193396771058285 0.8274979824956394 -0.666878082686316
Ni 1.9761121978262521 6.478794526328403 10.040535091078661 -0.5633289597480556 1.0143829866490788 -0.12629567260615668
Ni 6.539243107289987 1.2933619651915866 2.8674054288212796 0.5858266266299396 0.22929843612264383 -0.5674931184280743
Ni 8.555620582071905 7.938348635550455 0.9379138075552949 -0.16148739001594126 -1.1365291558632362 0.5691946745002133
Ni 5.271582382708399 4.301540182007765 4.722943802912686 0.0014254195926169 -0.3842428828137447 -1.4559545279809634
Ni 8.07310051642611 5.594487611060481 13.173210485886246 -0.8027860815712561 -0.7139727221812736 -0.37695277691023465
Ni 8.094241859508527 5.04513510791449 8.745736988463742 -1.6123089676457136 -0.33171241701519644 0.24183025004106737
P 9.022701479523306 5.268588510594331 5.79812434391945 0.5525753207759774 -0.41440346555752505 0.5796523794984276
P 3.9702521117362926 3.5073626352445864 12.272493466667552 0.8520473897002294 0.9148908073890114 -0.8927240414839851
P 7.368794404570153 2.802945980418265 13.059052760389703 -0.6772897649379432 0.3518356701276327 -0.39549428735784786
P 6.253830369720232 6.8402424036812866 12.894592456228295 -0.4847313645488104 -0.04971099407188213 0.14557560388169125
P 4.251206282834634 6.743001437416358 3.0870229904294346 -2.02053664340983 0.42202807198231834 -1.6289460619817622
P 1.603692930664583 1.1926665311027325 11.391381243243194 0.7292432751870989 -0.5365051546869921 -0.510145947967173
P 7.321454377511089 0.06052688223225847 4.953953738808434 1.5241216718755042 2.185043536978385 -0.2311030934315504
P 3.6075514140525984 2.116925518243618 2.0054374054814033 -0.49750640482629155 -0.5993010069672904 0.02648364811282536
Ni 3.974332989725622 1.2897324709979165 11.614800561840505 0.07401871757931124 0.414213461033906 -0.8243308976215674
Ni 3.551625882961807 4.528788893336824 9.459019189513382 -1.0082779021926054 -0.47159482716685236 0.5150354148489904
Ni 5.598494793736233 3.474669551758963 10.423925748049115 -0.619878574008326 0.670568901274342 1.9403128254610713
Ni 3.1908873230021024 9.204922354256782 9.560367748318813 -1.3126895745103198 -1.6765911746635513 -0.3172031676554279
Ni 7.455063981026298 2.485862681838771 9.210697303266963 0.20909239348841407 -1.0740940293564663 -0.7394235581542105
Ni 4.572269128347289 8.774808868478472 13.311230753919041 -1.7063455231078484 -1.8865358888499315 1.1773862990889143
Ni 3.251474082676642 5.893497133985202 11.8045411221331 1.4143011141062352 -1.1262959081710022 1.008474591584444
Ni 8.119178511240165 7.925470379502864 12.092339745479912 -2.385191833899634 -0.8496626915181367 -1.5576871665357754
Ni 5.412506246096131 1.5959825584815832 6.342402003534241 -1.1665529559188361 -0.14986163285155482 -0.7674372697583169
Ni 5.177058931131623 8.22205716899374 10.946860323660571 0.731162860807315 0.31112713666467706 0.20727770887717853
Ni 1.5591809612640393 2.7210152155489693 1.4534880637232408 -1.8904123410862024 1.1423542471854455 -0.7958145353494294
Ni 1.3405914492802846 6.861475865905677 6.065402507200728 -0.061797750033087115 0.042817095165526266 0.57048793939034
Ni 5.808452742117275 4.4460566919323785 13.374599511681113 0.06359443692219371 0.06697698024118143 -0.8883804198033087
Ni 2.631585952523208 2.194849100437161 9.786416147227987 0.5048844424579175 0.7724817741607599 0.07984406601183669
Ni 4.823560935730864 3.8762537392687535 2.0951503954644366 0.5965843793670758 0.3945509496079721 1.0189482374222578
Ni 0.8421568806675233 6.678379859323473 12.656341955773602 1.5830492994496477 0.03129315368632675 -0.44692149278988835
Ni 8.259006156838439 1.3849836637962658 11.289803307774255 -0.8334071488912228 -1.3455140772395084 -1.2820091147073276
Ni 4.871315498928799 2.1300985555455174 0.18550123737907495 0.3818697545958778 0.5397056639021608 1.4745058086205896
Ni 0.39491752520532536 8.936772743892455 4.324317561051595 -0.13301319383564836 0.44068322518966047 0.17341962267715294
Ni 5.533532374818056 5.324256108087602 8.372350470311375 -0.21291330989640106 -1.62550206929722 -0.4457241300476775
Ni 8.961433038198178 5.209549352504909 1.9271306076572596 0.6665415252825037 1.7628298313478221 1.003573811848717
Ni 1.9706311088789583 3.7707128383122077 11.435023607943528 2.6540034976255518 1.835324656083439 1.5647592428912085
Ni 0.7904098738565518 1.8222455949915495 5.501063140847423 0.5405934658237529 -0.3829431901657147 1.1138373706926754
Ni 9.254104764155272 3.425477929946276 7.145019506084833 -1.7198880376789734 1.3170056853871706 -0.5728744373446456
P 8.816326965764949 1.8538700964303052 2.9011652519709306 0.3593677168386198 -0.39516287216035817 -0.23857163389445363
P 2.597050486198159 7.642452739624366 0.3443772791541781 -0.9805758082916466 0.8536453303149685 0.5676404426392159
P 7.187282847229857 5.109904076634528 3.3698729734695454 0.8737577847941275 -2.6486743721031547 -0.6411518815648054
P 5.415776475636113 6.733006510512469 6.495496647959224 -0.6995040962514534 -0.5624365298407733 0.3689394196874549
P 5.819221469813723 1.0781440138039824 10.34129119293516 0.6481267702207418 0.8498714650948331 0.24091133777122378
P 6.474308324114399 3.142957733434422 7.380060575633246 -0.07286532070115839 0.54116347939461 0.09176755692230001
P 2.779741168555689 0.8075965421741417 5.223483293919491 0.14845961029770563 -0.9381405219455713 0.289048816708399
P -0.30951663225796994 5.897329290291209 10.575240650651212 0.5282339158171354 -0.07965740392232733 0.6124501427547389
