# total energy = -381176.33517570165 ev
CRYSTAL
PRIMVEC
9.21946730461887 0.00000000000000 0.00000000000000
0.00000000000000 9.21946730461887 0.00000000000000
0.00000000000000 0.00000000000000 13.49362231835651
PRIMCOORD
 96 1
Ni 7.3572546335277975 4.966139732544227 11.339554602955332 1.2023257426430713 0.9862587176090369 -0.2667961759577857
Ni 7.661875047413776 8.285028051105167 10.487081183271904 0.5016371391652135 -2.30434015255889 -1.3866465856137602
Ni 1.9771608262436877 1.329871257570805 4.8814663024055625 -0.43240093057621015 -0.897060721186126 0.003662793563567885
Ni 2.337651211018836 8.883067226297861 12.4786990559432 0.1954570620931666 -0.19537710078485063 -0.7370347462070597
Ni 2.831086312002205 6.572742515892144 12.555248291635076 1.0405799567594207 0.29881232385306605 -0.7783089223654983
Ni 8.50231245274146 2.0967741929625126 5.124837186324183 -0.5298454832786295 -1.918096694375348 -0.06688750585116868
Ni 3.7054329174834133 2.6707874367794355 6.034711930389303 0.42374042668773476 -0.468763014145012 -0.30229308331281485
Ni 4.468482115609169 6.197067668731771 8.239151982599473 0.5102418501150889 -0.07292265630165505 -0.4095098849106496
Ni 4.9514531213847475 3.70181888636319 3.152164396685916 -0.9257202939043476 1.1448482172518928 0.07134271340904488
Ni 0.194566712648174 7.531013930779971 0.8004239959784948 0.20465029855666048 0.09320428936882659 -0.39546291989928023
Ni 3.5959794035566452 0.15116699301720465 0.9322743614367905 0.8736459418066116 1.5131289203094263 0.5023773597653477
Ni 3.1008940179546025 8.515828191573725 4.207931676615486 1.2832887527506998 -2.0361224136632288 1.5173306170955998
Ni 2.749816709132894 9.127871737357285 7.242526662448275 0.5527334436203964 0.8849225431616953 -0.07664252835540349
Ni 4.2053769622700425 6.081520087023197 3.4250182145825026 -0.17496382723582124 2.3413388412704257 -1.8149129251963068
Ni 6.008400493108676 2.4582787191234377 4.912258400717895 -0.19433606111484597 0.6728381569244929 -1.7735683008112488
Ni 5.696035726822218 0.49528729193248355 10.085577998909221 -0.20517994580788532 0.9499503700963058 -1.6533957103836943
Ni 2.18061602716484 6.92427157860388 8.036126408847204 0.1366785585023775 -0.30386891244036696 1.6135960618882534
Ni 6.537026300178506 5.7002766817081945 3.97538260322982 0.4062985770622035 -0.6954654074057054 2.2454557195178557
Ni 7.633737233692037 2.164786202079575 0.6256671523814028 -1.1095408001998506 0.20073605110391882 0.47560034878181956
Ni 8.45415917585134 3.177636862456491 7.277933104065893 -0.8236678101162718 1.1365954903247975 0.38082537249176346
Ni 6.217129229235868 9.165164481952448 0.9973564238956721 0.9310861862019513 -0.2226811879164423 1.156877380502285
Ni 5.43865586257916 1.962105436398471 1.7504873192685282 0.16394999262382087 0.2738314855380123 -1.0022877460474418
Ni 3.889730065680524 5.252136822800484 1.1630966286264923 1.1996458818180629 -0.5308451281877374 -1.333374099442865
Ni 3.615589210170715 3.9938178497298176 11.714569336268235 -0.9888017957458648 1.9771539055488205 -0.508218649037473
P 0.81346862003973 8.81941602513964 8.2991845429039 0.373800347324182 -1.5116456508956804 0.745447138640471
Ni 6.270417749324878 5.752597157747144 1.8540772520920765 -0.7456533411140062 -0.18132087980210063 -1.8767507844387097
P 6.365212310493597 4.355036572409297 5.958851388893041 0.9934140977068954 -0.14463072346991868 -0.5049183810196466
Ni 3.571474059889416 7.10749004914521 6.047530677505525 0.907678091690656 0.38833042261955697 0.628024343043912
P 4.780459664275603 8.42852905719261 2.687875719129778 -0.13240435660705585 -0.33477048711522994 -0.21433410150332763
P 7.964024644105318 1.269861745934237 10.729709900085478 -2.395247418363423 1.620545496622893 0.7134507882395327
P 9.336923154834498 9.213197905769704 4.846193543061524 -0.28469002551907097 -0.20044654488795802 -0.6767830005048538
Ni 5.341150778070274 4.715978711074473 10.08648242863599 0.4305880457371874 -0.19364032059940198 -0.5792700564583444
Ni 0.5534519881936516 5.42563797497264 8.976767436716656 -0.26843499711278934 -0.3315573794945709 -0.3502297590930936
Ni 5.372192723942193 7.553767575689949 11.00593804295656 -0.9686263492392545 -0.6919350256549438 1.4126898037550575
Ni 3.3507139191400506 5.968600053450501 10.329718708334317 -0.43544511671917263 0.29486002407353734 -0.8227496691773766
Ni 1.4053418156069004 1.2843639677508478 0.43622000983797393 -0.688450152430137 -0.6320887429212727 -1.0694300482218937
Ni 1.4939132364538055 5.465429195163672 4.947287766129348 0.13630112055830074 0.06724643185248419 -0.15202701593398982
Ni 2.080345102512925 4.903438136501779 2.562938110135624 0.3614703650039194 0.23522637157130455 1.6431694046699958
Ni 6.899461992520918 2.8984253000177977 9.423459839282849 0.060589588657598885 -0.2656978006872843 0.059649079121200495
Ni 0.7059917598685126 3.134609609298116 3.233422936194655 0.44904728088363954 -0.45693825359594215 0.8309694859840075
Ni 7.396179223807348 5.128476110005694 8.347735178827902 0.03529430442591986 -0.3496443189032688 -0.33538523788109337
Ni 0.47159233942716117 1.2850462083194618 7.13301230003836 0.16042321041748503 -0.5284925687951608 -0.8042500677112923
Ni 8.516952966565222 6.937639805961851 4.719191695373957 -0.28012580318715624 0.6643542878231977 1.7778769554889313
Ni 0.13508639842563885 2.9925929374207634 9.837835243671186 -0.048468122803716526 0.4431021190437982 -0.6942803859586688
Ni 1.4135932387002674 3.210863822041403 5.998023060892034 -1.0288187024584343 1.0514397822920603 0.07430462425084622
Ni 8.033345817556746 8.145638927363692 2.726143883348716 0.06157252139615847 -1.354752565118641 -0.4965252718599449
Ni 2.7015804570384825 7.288781651053563 1.450375224815685 0.5192905905809185 0.3568968867006241 0.6338661465366696
Ni 1.9406056390199986 0.2972282451303793 2.7150381132277435 -2.041203684840878 1.4274443363564124 -2.014448271123905
Ni 0.30383583723207364 3.583256538898716 0.8500201194765615 1.4326809021650035 -1.2887708589111935 1.5300714617010358
Ni 8.520520900349728 1.185595816243312 2.8729537561939367 1.2860503746562366 0.06215127671776392 -0.16588860440743045
Ni 2.8189719321757414 4.3454206681787015 7.438345378734526 -0.38609253442797375 1.307735058718522 1.6036019267900188
Ni 5.5671106982885314 7.856258292665796 4.8194229763171545 -1.0773719287767896 -0.8349289848523879 -2.0691070961193656
Ni 5.223436621582994 3.6817020090562314 7.6257448776254 -0.4325120022327777 0.7324000756485257 1.0865937044853737
Ni 6.191139551358548 2.9274574020524495 11.812262497906847 -0.2870598113028282 -0.07261155281913946 0.3101683722958336
Ni 8.498670763219806 4.313917748949611 4.955951299404026 -0.47509795522410436 1.313935273991963 1.2549860491512643
Ni 7.204746208041224 8.899699145024604 5.83719222241509 1.5744692710901205 1.0961566655834605 0.4358827184772235
P 8.884127465019356 6.315464065787664 12.255582419391974 0.640885001056664 0.7845682730116489 0.13031533528851105
Ni 3.8920718103349543 5.029763275301018 5.276073325344964 1.0315960080932556 -1.710999991160724 1.381185562499189
P 4.225715106788442 0.31616134285612146 11.68154981469405 -0.014219743143807768 0.0714607270441479 0.08939699980759443
Ni 1.3941954798304967 4.967236849134294 11.333819172445406 -1.6023449144544664 0.34188652933472086 1.8184049975099652
P 2.0838116221588536 3.3018046459441694 13.241115798622916 0.5246446558039803 0.6643234345852623 -0.6639210569405211
P 8.753247909451263 0.4262168879873554 0.8537374086287914 -0.7765343469635788 -2.127454425710007 0.01484297855010347
P 6.387910638600715 6.567773223101837 9.492021328641659 0.3868600087216176 0.6500694957694094 -1.0482431297316335
Ni 4.18156307863857 2.2391319851241724 12.862269454765205 0.08082777008134467 -2.240149991034226 1.6528256968128374
Ni 6.36293510210917 1.7958876632696212 6.924333349033742 0.9175439287411424 -0.8142927966592751 2.170032922502166
Ni 7.621678170668434 0.6627008299498357 8.617540118940157 1.2679305251270745 0.29145279816420133 -0.6899586186548634
Ni 2.019920714854903 2.088522769869145 11.33132346268968 0.36536944294800944 0.5302463182614738 0.3753700058041471
Ni 2.827924034772009 2.4715824102114032 1.647516934637018 0.9817209776396835 1.572082516025499 1.078888622531632
Ni 6.441023988813998 0.4926956997184661 3.4959813751321764 -0.9651193645272605 0.3078512941268827 0.4887610545334937
Ni 0.5857763619452218 0.6544420312827536 10.172436442760876 2.2843408266188274 -0.9535164901810096 -1.7609837792780187
Ni 5.217886502362651 5.579796685077887 12.405334224202663 0.48177536724428 -0.940321074536658 0.7149314865501171
Ni 7.480076374812535 3.2787006612827403 2.97779938044242 -0.5830912299766473 0.8091017393766388 -0.27994351197302114
Ni 4.016995590128393 1.2765827374817955 3.3865214075784076 0.081604243236053 0.5487014396428679 1.2986523796909635
Ni 4.696599391138989 0.5395370464340769 5.874893389404706 -0.4300218888210723 -0.8025922203928951 -0.30691901212060047
Ni 1.3633932401043063 7.452187486703668 10.582278635154792 -0.7175298434049127 -0.0830296628286699 0.02468824677529942
Ni 6.543931681068933 0.16908410546374114 12.18780366279364 -0.27448917372666926 0.859576608197739 1.709057522722373
Ni 8.229619053573169 7.633405332874873 7.69995974423656 0.3097888774692278 -0.8569381421336274 0.1348520468166
Ni 3.5469502772878996 8.434669222310134 9.601737597382016 -0.23213256313732925 0.4484276450217697 0.004236920899483025
Ni 4.786839535538854 7.525371616888193 0.13300556469136735 -0.41724761987453945 -0.2199877002446792 -0.12409095164535404
Ni 7.998514670688879 5.035599198002808 0.4285235986666409 -1.2744953228287856 0.3371194469633807 -0.6497205970704228
Ni 1.3038631407591965 7.613574259049361 6.089104942642096 -1.504748666665531 1.3820697648763554 -1.358041520282558
Ni 7.099321601256134 7.195047328606338 -0.10330966102238821 0.45919491084060265 0.09300502887382692 -0.7560084590960852
Ni 2.3867817514261596 2.0410425140804946 8.54520049194597 -0.06573719429680935 0.1906681253449555 0.2628343630965603
Ni 8.541412212896734 2.9514833334282207 12.163042939886537 1.1323662827347982 -0.1486411301808924 -0.9023757056411362
Ni 8.873663369811565 5.44812425533546 2.9984583624174115 -0.0411222239616066 -0.04163798725576055 -2.1943730419094276
Ni 9.120339432701105 8.995498628111957 12.12670441014072 0.04673494216269371 -0.3771258121529892 2.5730505148202525
Ni 5.77254808464552 8.386930821441469 7.9188538648360955 -0.620120771926119 -0.03502510992493322 0.035204315815274854
Ni 6.1242984145687 6.426752253675973 6.45529480200531 0.3194163732566628 -0.23379709532394577 0.37036201106659444
P 4.469072161506348 1.166907956343585 8.148582703222587 0.3154476184169019 -0.0005139635219410503 0.06238987509113126
Ni 4.467255926479092 2.4914411424383456 10.088506101673973 -1.0226274860460582 -0.27807663396761145 -0.9191403266939848
P 2.1091190594675617 3.984902625002123 9.639708894758934 1.2866874940196034 -0.7312515638663792 -1.1400945046169912
Ni 1.2167852735895264 7.37420923360456 3.1939673046076438 -0.7564609732524714 -0.7803244101336303 0.7179057386870926
P 5.920898530450408 3.632396298773183 0.490166799881024 -0.29331659084581746 1.4418977927775813 -0.2825521532404618
P 0.2526410581313365 5.779416587667374 6.778089551471127 -0.4150660388421884 -0.6721735267573005 0.23336643554443035
P 2.877921205090815 3.466021794702895 4.073495250623458 -0.3238281291711133 -0.5836674141950916 -0.07281081331413912
Ni 1.5308187634289447 5.594418759967363 0.5507958597096303 -1.6329508122657812 -1.209019352613163 -1.568481686048118
