# total energy = -340855.89999745006 ev
CRYSTAL
PRIMVEC
9.36025136949464 0.00000000000000 0.00000000000000
0.00000000000000 9.36025136949464 0.00000000000000
0.00000000000000 0.00000000000000 13.69967402796242
PRIMCOORD
 96 1
Ni 6.437906144151308 5.08048246224628 10.899570207131777 -0.5200508657857108 0.8354398630505353 1.1178161528347652
Ni 8.283906876976186 1.0587942159865473 3.532296853453758 -0.41344804362279114 2.1545731363036698 1.650353581123261
Ni 3.1538431621919734 0.27183480978952324 3.0438480379803434 0.5671053960713524 0.4358924886692364 0.11973961665519378
Ni 1.1081227417322341 7.523751487159683 13.562033859085444 -1.286578993466197 0.40032127643284604 -0.8937285714890996
Ni 7.3372016734762795 5.611386570741462 8.86451111320417 -0.613230215453873 1.6979079338634564 -1.5358824119558583
Ni 1.4530292913863263 4.221136486599219 11.346604589557414 -0.6496141533995458 0.24705987387112294 -0.2559011263118367
Ni 6.828181833139241 8.881324933089745 4.670561477274466 -0.6357070564001502 1.1385700975526651 -2.2915237175205116
Ni 3.0275452878301987 3.506808888443226 13.261010976841884 1.019159839212432 1.6209825841603116 -1.6378580197594115
Ni 3.559497744500621 6.522747464333263 10.64157827338121 1.3708055048164456 0.5963712349150052 -2.8454038731508415
Ni 6.680205616153746 6.739633853337685 3.66406017870413 -0.13329832917623494 -0.4824389689702078 1.5856507416282368
Ni 0.13378139548770931 0.14239844307812283 7.19156177528132 0.18934117900341588 1.4165888816991472 1.1101426954499076
Ni 8.41046683838177 0.29448942665143707 13.417871944612543 -0.47216304096549655 0.46992335300170035 0.9678035962276428
Ni 1.5043889917215414 6.795271188637945 11.209279402827331 -3.0318111663369143 0.1626130189799522 -0.3438534232531046
Ni 3.701080909667463 2.91328469698056 6.250709537084787 -0.37215175597716554 -0.5501170890434719 -0.6103755196138971
Ni 7.026216675492466 1.1184096582017804 1.380009032905363 -0.31477373227832883 0.05630433101868367 0.32362398358010713
Ni 7.010482092612296 6.40793461864131 6.630135758484139 0.5259734019177329 -0.8465076908289229 -0.8892980465215716
Ni 3.6558989753649147 9.003448135253688 6.52963473743453 0.7465393432633852 -0.36508250783520996 2.4364984545934103
Ni 8.638922498320095 8.739105270816507 2.170426116030367 0.10728545005224105 -1.0281484158642873 0.3406441722871876
Ni 4.9420069005989005 8.647842818061203 13.466739009956093 -0.8023711055210245 0.15345037864407768 1.5390003887595496
Ni 1.450492663212307 4.117630824797359 2.5751418651070805 0.8031511782201587 -1.7888380824861256 1.529773727954959
Ni 6.648652208129323 2.6824328126416845 10.968493483502895 1.070490371165608 -1.4258651647947507 1.291113648111757
Ni 5.055986683901601 6.814253778811047 12.171859592980875 1.6651855039297707 0.04025216265182745 0.3702046595531237
Ni 4.651558294547922 9.150273041296732 10.4722503865516 -2.7858216427118347 -1.9451475278455532 0.627522463706829
Ni 0.8873630806303606 8.478029134175388 9.291941384752812 -0.5099646851943024 0.9112843209846758 0.9768865323655177
P 8.973120920184233 1.6563433156220118 5.87195444572262 -1.1996487100315403 0.2205021779872525 -1.2011939430314733
P 4.6898698042020195 4.705810312616612 12.289607813563501 0.9358746087295301 0.0009839611798241118 0.8416452205302989
P 2.4753185262707524 2.586209426557119 1.182743603230752 -0.24450291177722405 -1.244379734390328 2.779344519627923
P 5.221148322759786 2.115669580402342 3.7780961235162174 0.5487824293924485 -0.11170980437218181 -0.6591632305405615
P 9.578626233649647 7.111535368504218 3.4189320386788555 -1.0801086109816624 -1.2418525970931 1.9450580534555404
P 6.285408925660088 0.6353298830258468 12.388176878690167 1.154010343367135 1.2683879243794671 -0.8592822168857718
P 6.091548755504695 3.7702718892333293 9.224744138770214 0.13733778935293123 -0.8181630782479588 -1.3231045991960566
P 5.931713099786792 7.232919110794554 9.939620247667897 1.4130906387379019 -0.5220552978102493 1.8986133888397558
Ni 4.8124797394473235 7.480142075119995 8.219613181028942 -0.3825510969336186 0.6478570614991229 -0.612066534163075
Ni 5.141249215403965 7.540553138718224 5.710339406182278 -0.7471258118944745 -1.3982952255962822 -1.5526046098065454
Ni 7.115915966236473 8.00233178940849 12.648909494098863 -1.5518829011491724 -1.2978823342941583 -2.3481370951391822
Ni 4.571631106437406 5.182995937382288 4.874850839723188 0.3959092634080794 -1.105096905495884 1.4430979837332696
Ni 0.8584951287798345 -0.05292379837166746 4.389375776171862 -0.5106246873758045 0.5149819359032356 -0.9967842997307091
Ni 2.378411841821968 7.111376244227619 7.752796842946582 -0.5172509344430705 -0.8545616714816509 0.45432138479838535
Ni 8.50760752911967 7.430467220066417 10.581738185128424 -1.183744122986142 -0.541933267681099 0.24581751682358957
Ni 3.4731494238167575 6.463047779853948 3.5807520677284637 -1.0848857206553315 0.9512806588719552 -1.2985850167881376
Ni 4.16737120161189 3.819394489444594 2.8284078078426584 -2.9358928204710337 -1.1598788863327703 -2.383852032042288
Ni 6.668636345219843 0.13236612545113477 10.072165153923917 2.6656637075722998 0.9096704395303365 1.537023724649153
Ni 8.86290395801052 1.4566985099996674 10.480072748784174 -1.1694107370826052 -0.6289422268724911 -0.8246198896168959
Ni 2.9107761495612348 8.671571055777584 12.091195753072222 -0.8439599847064045 -0.5339780173897641 -0.33320314262811
Ni 1.7993679595298093 2.185693622357462 9.714000743953658 0.9622523273921104 0.6321733322152789 0.6221532289751156
Ni 4.6711586613242915 1.4521494277392495 1.5417064426594735 -0.3120797303859335 0.4414609838959494 0.32975426484756115
Ni 4.571013329834139 2.085435967848534 10.36609109343116 -0.8059603655341796 -1.1871783454786717 1.0829460804304576
Ni 4.302083942130282 1.3699476984985244 12.643018151764075 -0.966000481580633 0.39256734351904005 0.0575492591693783
Ni 1.2501271182194853 3.175090933243721 6.89053889303776 -1.1304446402320532 -1.1307693705613235 0.605308646613951
Ni 0.6602974180493848 1.20684531498456 12.346461981567165 3.5958314957250397 1.6447166945524578 1.156265972170531
Ni 4.75592509949373 5.459984501683305 1.3412697597547607 0.605122498745074 0.8182381544602684 -1.046798683975623
Ni 6.08335853538563 4.287088819123718 3.452632688412209 4.394948613085141 0.07295119554674533 0.2109952669380818
Ni 7.11933245805757 6.2682328640389615 1.5243768729126874 -0.47074199224825386 -1.0313111298629851 1.055310578101376
Ni 0.400997857155236 5.495057364296036 9.366946952590636 2.5968725569405144 3.7166700018713668 -1.6572490226915135
Ni 2.3078074642698394 5.787275057892733 1.5025805911192516 0.6041336524692434 0.44695234602782374 -0.9289264595464712
Ni 7.474600806193725 3.3463273753673626 0.7057002542888587 1.9345062460816231 1.7167646615586434 0.7900449798555038
P 4.544813985704693 8.305791145134329 3.7128991632929855 2.169195771312851 -1.4445619698733059 0.1329725704057
P 2.481711578089406 2.207877418565674 11.677410856254523 0.6673223693125861 -0.2319656985421618 0.0065295735884016584
P 9.411452140705062 7.424523460322867 7.658898543350674 -0.1442625414972225 -2.575364764775726 -1.2891410977664186
P 6.090116637015305 9.206490712193999 6.54737615825016 0.13485101837533547 1.8385048535836337 2.8660930260690765
P 7.807170544285612 4.8581764875859275 5.0982519638166055 -1.6888527656397234 -0.8913875820607488 -0.5495797284827632
P 4.667199274912446 5.748860585471425 6.910390114556062 -0.21408136206257322 -0.7982874223699542 0.598980133292762
P 2.8283591345345225 3.7679973481031204 4.35946883639766 -1.8788716874364544 0.430823044566129 1.9422696920771259
P 3.1158873420973316 7.618421071484517 0.6328550325121544 1.7969874510661374 -0.48028104208694056 -0.5730788400459679
Ni 6.5741726864294305 2.070075795030949 5.556834088597546 0.6243579499359182 -1.3891788651173107 -0.6000147452048635
Ni 2.4203270483284545 4.9299415363320715 6.30695996886253 1.3690581831080357 1.7164486729801214 -0.5739339889574115
Ni 7.161210223557798 5.50394960328245 13.129945926358237 -0.8620898615378959 -0.6685012201120357 0.22847619733166458
Ni 8.217523972879713 3.9405348651942487 7.171751738869902 0.9613269873643638 -0.43238473262629407 -0.3851916198802592
Ni 3.9138675084865704 3.6854680100576322 9.151382231107142 -0.9393401986806275 1.4650672889155092 -1.9499588331912676
Ni 1.6206901174122734 7.95259141259396 2.170576816080558 0.49415188653176184 1.1972393292590993 0.5364799578760115
Ni 8.75039373420347 3.0162661846947993 12.451825653304608 -0.9972715237797728 1.1385276743505037 -0.6326921808332265
Ni 0.7130723884211744 4.26414684253877 0.33467205059330773 -0.15003441098399323 0.09908928739469386 -0.564319605796099
Ni 8.726272365921377 8.035336036425434 5.545326595323969 -0.7480501234809569 -0.7826908534832778 0.2629222948246763
Ni 8.588274177103793 4.736540018503347 2.9607458525390995 -0.9552805240599677 0.6813631636763685 -0.4994889824739592
Ni 2.823473083217777 5.816291837743138 12.759561707970333 0.40728356668329213 0.1355066496814634 1.7634780064547824
Ni 4.418282105053803 1.6441749885879713 8.078451227182509 2.632923022806169 -0.8203006934162519 -0.3790592817302762
Ni 7.485805027316607 8.076596025322397 8.481632831027778 -0.2616819946596719 0.37008716013865295 -1.7592475133132024
Ni 5.872940080212378 8.357927746349409 1.9017887681753272 -0.04940991789169555 0.047933847566801316 0.8513364796761337
Ni 2.5775792746145147 0.40505552620851026 0.5126132409127061 -0.17553641190983962 0.6555410604069419 0.6090511443755189
Ni 2.3400722514131758 1.2135846961111054 7.792388835014723 -1.5680592537987188 -1.176654306018896 -0.9296044594501023
Ni 6.990039303195108 1.615532618800153 8.288440046808944 0.5019531277437356 0.6469240081618923 -0.5475989506073086
Ni 0.20018957226340645 5.8956667710113395 5.540340389315483 -0.3226582772327282 -1.8503866926228842 0.5521868270883071
Ni 5.57518111768941 3.172778951107253 -0.13217892041984183 -2.0130660460643974 0.3412306409182769 -0.9446744664093473
Ni 8.530568226207748 3.975776212335142 9.812830024073822 -2.0230113302025674 -4.117331692362767 2.191666698721858
Ni 1.3784374466676588 1.5435616445195866 2.664833667649836 -2.2571357269589454 0.5708180690362491 -0.4910873886738253
Ni 5.928998626833045 3.7501473483693397 6.956530538618829 -1.482955996270472 1.465368879316328 1.1550285002190042
Ni 1.7476525696351377 7.390161976829049 5.354668567228843 2.2983661943636413 0.9581966692654983 -0.15888363384450702
Ni 0.17345294969415034 3.204940775483378 4.574129357580009 0.3170532723411249 0.5771861773461221 0.0716810705850701
P 2.6267767568382965 0.5882627940581786 5.165311614101202 -0.08376448411216542 1.8125781064155426 -0.7441446177789635
P 0.5707329149279088 8.766362323372757 11.514918761142575 -0.05121457520060212 -1.5165292042402267 -0.34377577593763375
P 0.012534312870218054 2.340736829274266 8.647069661281964 -0.6595054443713286 0.11780357597474551 -2.299390778973414
P 8.77356035682597 5.6189590142572605 11.854259705216327 1.5906847045077184 -1.2315810399637628 -1.2366610255898316
P 2.545960344829139 5.297153565464716 9.274788723760597 -1.1165313725850707 -0.0637607872967289 -0.3938400395838766
P 8.317585062105785 7.536266143501616 0.5006068462307341 1.6008318202440495 -0.502627785213257 0.01031475166244675
P 8.804776795794067 2.4760579861443595 1.9684243990640453 0.9731399208388918 0.4296128263081117 1.2157116770316738
P 2.9265107324414052 8.795575668506018 9.182028630754951 1.7716062919888715 0.7843651558619072 -0.8624400457884632
