# total energy = -340868.6395322585 ev
CRYSTAL
PRIMVEC
9.26887989332300 0.00000000000000 0.00000000000000

0.00000000000000 9.26887989332300 0.00000000000000

0.00000000000000 0.00000000000000 13.56594263661423

PRIMCOORD
 96 1
Ni 8.76372565653778 4.485201566867239 1.2820844019336064 0.7491554407299936 1.7379428382981552 -0.20521774102435625
Ni 1.4941619283820236 6.090043186486405 10.70919860125241 -0.1366605607802485 0.14684392907115357 -1.4833426901859292
Ni 4.7542864103732665 7.4828869920216645 4.9386944774563775 0.3223050076583675 -2.731149190869619 -1.1431754575351603
Ni 6.986742405090777 3.323532887296769 10.331278573548534 2.1828002494701635 -0.6435566343515562 -1.9309408973278683
Ni 0.36389713976545623 3.4926250577380364 7.17158147507503 -0.5371476733669975 1.4633387362601766 1.8542721437202194
Ni 8.997588757584955 2.1803000092396285 1.3245284553724406 0.7896647136979497 -1.8784536260624292 0.6674951474450246
Ni 0.6805563615658367 5.909012699127506 8.424612573919882 -1.0287899061030281 0.30899620636460334 -0.6684032610815908
Ni 7.241775627131641 7.216795996624641 4.548063108276693 0.6240239636352672 0.5533494799378404 0.6539163803193254
Ni 7.6225041253526316 9.189037465608 12.344885198385935 0.10047742599147212 -1.2414165379969457 -1.206130461101142
Ni 0.4119924290930172 7.903008228519002 4.0832807023415345 -0.2083038361488477 -0.859432883531023 -0.4761433657694832
Ni 0.3261014294432309 9.15935851314662 -0.026334740703707178 0.2323210249990515 0.18980449179307957 0.8453602074880409
Ni 4.486165530345061 5.250013897722405 13.0711927496299 -0.5903121732051188 -0.03022743142597375 0.5294929850352171
Ni 9.066864363673758 8.434513591102656 9.143146315847995 0.9473592123303621 -1.013383341739971 0.569574169326819
Ni 6.637110997909115 5.022240450568772 3.9658949767178195 -1.1234016173423427 -1.2523871780758367 -0.28913289178177304
Ni 4.944242828781606 6.7755139080132105 8.57926475684098 -1.7262926556537366 -1.07564851832778 0.8707678489278681
Ni 3.7599858896394984 4.955504517488843 4.503607707965868 0.9710958938256695 -0.21299712785945898 0.027279404541243345
Ni 1.8212328826308322 1.6710121510438327 10.17973424595545 -0.1944319632627619 1.9182316772913157 0.9866577528196684
Ni 2.5108189866975668 0.886581309639088 0.16149446983770988 -0.19452889385194239 -0.4779639639179898 0.12558733368522243
Ni 7.844048885418803 0.16464032757206093 7.416758170555172 -0.6692195863352991 -0.7312546491901728 -1.082968963248593
Ni 6.115569680889478 7.381346416064636 6.796523677389915 2.5942675152174997 1.4062394201440234 0.24501841796106189
Ni 7.1781725753546315 0.5722606261603834 9.93390502135186 -0.03718046570503919 0.6167927359941506 -0.5364470477555471
Ni 6.443688018532457 1.8822684547601831 12.1800316865832 -0.21178022473322236 -0.28604833931917834 -2.351886277768969
Ni 5.4682774744121465 2.64089844292586 4.544767094692913 -0.055086913671814806 0.8765150358242904 0.12650676017569823
Ni 7.363865309149531 5.413211060741611 8.436089300633709 0.3906798966883401 0.7387172761158052 -0.44917146516632966
P 6.715599870314786 8.002315004493772 0.5069372703306472 -1.561595500451246 1.1513255974461203 0.5086112564902014
P 1.4938004420778404 3.843109201842387 9.261549764451178 -0.45595609218833083 -0.5623249439635734 0.26008688225841015
P 1.1797615325388067 0.08926487182216047 2.0482268170105726 -0.3794002100094627 -0.9775737882405291 -0.7328497615914347
P 7.453727096817574 3.1516137085791986 -0.028018896126015918 0.7473528403036162 0.21709675185012933 1.4484330227929376
P 0.7783587983824307 1.0615647799505785 6.795573617231486 -0.9736086329451942 1.1852603025203523 -2.8974818247930036
P 1.276667668698619 4.587567073108174 13.12100648923427 -0.2973750771859072 -1.2003799317706103 0.04018094309425983
P 7.457823941598314 3.246879253050796 8.096642538350412 2.269451311101504 -1.1596564859093188 0.7585960173176033
P 8.484611885310574 7.118684906117553 6.925874599682086 -1.2195127959453191 -0.6159640694452683 0.5536909224376593
Ni 1.8179609681339968 0.15415259031095835 8.267302076331099 0.6440587707989552 -0.7626002533809899 1.6084949932162622
Ni 4.352397060038182 4.292742550968403 1.9581759441988038 -0.4584629177705846 -1.0705618478334917 0.3796310950733462
Ni 3.074348328279993 7.7265380299205635 1.2329204107888072 0.1986722265963546 -0.13091414521477454 -0.8251071136659596
Ni 2.166248387774466 8.78738910614237 10.62418165694838 0.28416912001859446 -2.4726409659522384 0.9026258739787294
Ni 2.074532824187537 6.505696823019224 12.856009221629387 0.8052617968052582 1.2436652248218065 0.7854758724275828
Ni 7.7912904227672835 8.233870154521934 2.3509910614109364 -1.1543980657238568 1.023754914782282 0.5754447691749831
Ni 1.148923970128123 8.026460435837274 6.403382295616058 -0.34123449757301877 -0.04255741374623639 0.5514880012490696
Ni 3.8273984509298207 8.515875816182602 7.336000276424785 -0.16994631941657184 0.7686102070204957 -0.15572014851486085
Ni 9.094476355985577 1.8221783083494643 8.595380557791822 -0.4507460087423011 -0.36963695997511176 1.2561021650335786
Ni 1.579389276252848 0.7075890489030048 4.0749377838185845 -0.15097003542438514 0.4314658203564505 0.2355575296584782
Ni 8.468891865518414 0.7434577591575473 4.745040702977818 1.5233709097524089 0.21201805177564131 1.6680216878269853
Ni 4.496806204119471 2.0108092769758 9.69007138652495 0.6635402765623346 -1.3020156397362415 1.57803102029945
Ni 6.147009720473799 7.065898636827248 12.025787334364258 -1.3534873252529722 -0.02386909330811373 -0.012984070964493768
Ni 5.055747450302652 3.6435316864150242 11.260193636959285 -2.1750303757167573 0.1469812259799662 1.220857997119304
Ni 6.885368668966447 4.7034929501957645 12.263137387914862 0.5048011387154919 1.2900494685133008 0.33259841916457555
Ni 2.811612667296154 4.064589079751398 11.071097370577307 -1.7897639367345048 -1.3546960008490927 0.4184277562255697
Ni 4.734988603057653 0.02856483313412811 0.14699516148813607 0.8876093459652391 -0.6959886268990272 -0.1929201546039258
Ni 3.2438019850254434 2.7228631451794443 3.593441734198741 -0.6682523373260234 -0.047255333442537975 -1.2797018067303898
Ni 3.2274331436616723 1.5645219933833754 5.595001596227254 -1.7950843205061535 0.6061026032701561 1.9657796022736078
Ni 1.0653464828251076 3.0195785187564796 5.15659100651418 -0.13869404627050952 -3.11757596870856 -1.6980532011920693
Ni 9.07873779843423 5.191796064989761 5.429103481694229 -2.620576071205041 1.327567777173733 1.2296853656029467
Ni 5.5319176017075335 5.278117140652729 6.268863046062031 -2.2867828604014164 0.6532784896250103 -0.04912478255110895
Ni 2.832764250530653 4.915546377557237 7.998845662861575 0.9450714447374498 -1.4611273304311545 1.192751725801391
Ni 5.549695312769659 3.8248217024025677 8.490638510822876 -2.8162532197288144 0.4754836206982972 -0.5876397685792782
P 3.7894423889906115 1.8043913284077449 12.122688836084274 -0.04570984333228902 0.23536803935549142 -1.0728311034836426
P 4.711121238101985 6.247438030879497 2.548172571463138 -0.45149599953444824 1.0278447685809395 0.5638352099605128
P 2.398804576798826 7.2392730296411445 8.798314334520331 0.7386332010424311 0.3030962959404006 0.07068476811007181
P 5.828975923829564 5.48962370411813 10.300986021258003 1.8545899320709545 0.0018470805110677867 -0.9286472377431554
P 6.606495888608698 9.183207340343099 5.4425470646579965 0.5882532337935611 -0.14968011296836803 0.6541688626497637
P 1.5481994964175765 2.899639216804498 2.1848760550954007 0.7195167919279544 1.4417502114561234 0.16906520236319916
P 8.820210208786264 1.6490819819234008 10.750928024074513 0.3720190870540432 -0.182073441697409 1.9272153688471647
P 4.216441134147018 3.263971067022933 6.535799363278068 1.0458216647743344 0.9118993288608552 -0.0510929620210733
Ni 2.6105243244948984 6.869806220127392 3.4196752677779996 0.8221390321765711 0.37365045200987906 0.05578239707694264
Ni 2.9541031533013946 3.208941728870776 0.1779652688770199 -2.2615863065311306 1.463543653182131 0.20632562937655433
Ni 8.420795649302894 6.310123463576656 10.758850135463877 -0.16887236962610272 -0.8196921132979753 0.10164239283385076
Ni 5.357134339195283 8.402971593842796 2.7433047322370094 0.7752516235964132 -1.1688198975761417 -1.3070498597260392
Ni 1.380571808952229 4.884699546266959 3.908524319580108 0.5242685034114842 0.36016167349482486 -3.890481974890932
Ni -0.026308787840842764 3.81232725270927 10.938422628062574 0.9763730830642088 1.263670721409456 -0.3450101625653671
Ni 0.2930866072158148 7.237919773220357 1.6882819275041832 2.4046054625395556 -1.169423849708728 -0.39445864700448197
Ni 6.950612312431671 3.7246899961438924 6.162709348730852 0.7589490297816478 -0.6393104574806925 0.530978311331492
Ni 1.9709067503217597 5.534299703763303 1.5601785964054236 0.38018722468713234 -1.649811849687178 -0.78874554431779
Ni 6.813979758330113 3.25861365461735 2.133854580479877 -0.3554539836065104 0.13067863216520076 0.5476210620944956
Ni 5.345576046341024 1.247164824949534 7.11868768678143 0.45750595317395404 0.735833783920423 -0.7237274875751922
Ni 3.0281985767793036 2.1255765441140877 8.081502750420864 -0.9771099612302334 1.3305096334108761 -1.2589928563178125
Ni 3.9205877663722646 6.0983202959642355 10.871312232247028 -0.45460626302865575 1.253491466883609 -0.1920858316280885
Ni 6.283382745946713 5.406398434239703 1.1094987907731961 0.8469959433192509 0.97147307465943 -0.016139328764023818
Ni 0.6652423186999121 2.434489763237399 12.711273812986375 0.23233593739738698 -0.6339751613107081 -0.2052707057494787
Ni 4.740846534961337 0.379798829597668 4.658422096279868 0.7763206882908759 1.1310480781440069 -0.8942096248905761
Ni 6.8983451003986564 7.487586313976043 9.672869272885638 -1.2175358747246063 1.0402480273412988 -0.503665482449152
Ni 3.4118375031929458 0.36462011237382214 2.61030465204851 -0.514528650415901 0.7627774023888024 -0.43624652957454546
Ni 5.041084082784257 2.5292084438129248 0.3078602744013838 1.0413834264973225 0.9573302075001447 0.2608469003528862
Ni 5.2253864846399924 9.16007221687539 11.072752792472873 -1.0382040003280764 0.29877298597469837 0.6197998982515905
Ni 7.011443969209945 1.1286343926959062 0.7141356585605539 -0.4071483266570085 -1.5854478815888113 1.1309722306007488
Ni 3.292306031943119 6.374838780904998 6.45131074511092 -0.10285543930534544 1.5058498701495098 -0.8368516557963973
Ni 8.093140755639636 6.686959032367984 13.281342349122676 1.3848475847318087 -0.9279612674197244 0.18965485358909273
Ni 7.057167352249291 1.1295334740165663 3.1139403474676195 -1.206720015056025 -0.15575254441469305 0.4289070584903388
P 1.8757709701644845 4.813625777536836 5.9575102578294645 0.5882475773666064 0.31289785541185466 0.7786917596262137
P 2.8116497428145313 8.313035655137998 5.04962350155461 -0.558564962700509 0.7768451933357783 0.07121390114066445
P 5.203252400168482 0.07174947005255769 8.90724869572984 0.5230521145058797 -1.001744471949462 -0.1751854563283241
P 8.395982858628592 5.8261303777940725 3.1226225069837263 1.5980982233629701 0.9886740119187489 -0.4263197573791368
P 7.8975673961970685 3.0166680905638272 4.492633354526057 0.3558234511307872 -0.9094066443459886 -1.8159205405252146
P 5.06700913900989 1.7304905514013187 2.280841399976378 -0.016176609759862463 0.07545930668057972 0.906368114629981
P 3.805959532427894 7.850954200716657 12.192336124244814 0.009423864417061188 -0.14207299004507143 1.0492348042209414
P 0.3035196580873102 7.630169488777229 11.982037295790569 0.5946848483515177 0.5922788100131865 -0.7180345509554731
