# total energy = -340863.4354960492 ev
CRYSTAL
PRIMVEC
9.35929034178893 0.00000000000000 0.00000000000000

0.00000000000000 9.35929034178893 0.00000000000000

0.00000000000000 0.00000000000000 13.69826746677685

PRIMCOORD
 96 1
Ni 8.126858735919788 6.2469517365453076 5.7722719434517336 -0.1750836406431372 1.389804928737084 1.1043844528098916
Ni 9.303471243802703 9.098980115507706 0.9065146281978188 -0.8415171795928669 1.089361754148814 1.9695874060554721
Ni 6.915176968220801 7.5143493579099125 8.323066892520835 0.23451854687100257 0.15968324692766692 -0.516172356666911
Ni 6.568948751413771 0.5716036649188359 6.851050856516559 1.0938642700048582 0.3938441533489346 -0.2047911950098989
Ni 5.842686562140342 5.551556485855654 6.6326050267575205 0.3396445273780796 0.8141351880354882 0.03980864735650563
Ni 6.693417949784184 7.308613444038311 12.788359841058952 -0.8467694291307416 -0.4586300394760682 -0.6901925890425403
Ni 8.864352073252807 2.723815464572121 12.565899811797616 1.626579875742431 1.2144304963264052 0.14169735187320756
Ni 5.578885612800658 7.620371395592448 1.5211373339009067 0.6950095508152095 1.176963609729199 0.15909703540689374
Ni 8.305246804266284 6.940933734437462 10.344862600906154 -0.3798709789982942 0.4606619823044324 -0.07239172349884952
Ni 2.0105346105975688 2.9779576265805576 13.096857951888794 -0.9662357375198907 0.06889913696455877 0.42401039251966977
Ni 9.048056218347512 1.6330463650246778 7.4141459908512495 -0.2322904288714322 0.5248009788761865 -0.3639620210775215
Ni 4.239281068702934 3.6916690078973935 3.5920281341707154 -0.3136707290221372 1.30200047022759 0.2081066325363771
Ni 3.106975439915105 7.032954274205709 11.479832819571122 -0.2807215277896262 -0.6552896065177682 -1.7994374552685268
Ni 2.374929209390987 2.1681356957437745 3.080521406589744 -1.1475352771657528 0.10388516612144044 2.0375478332558457
Ni 0.08286528224166968 3.958230947801728 1.0402860249485881 1.2285869903324456 0.38483089410673077 0.7743748774184147
Ni 7.303241211549807 2.539006923251557 3.392896135358154 -0.9225740349658821 -1.285430995904683 -0.8409373958299969
Ni 2.837334293584433 3.873435779951819 1.4970015967208465 -0.10379697728300834 1.9114629911089147 -0.010778321562426599
Ni 3.2645671657712607 6.607209529136776 6.967281071856258 -0.48266291205555584 -1.0931032234691176 0.9012444202501705
Ni 8.874460106506438 9.490226517453594 9.15204541823126 1.0516161599689244 -1.1379234651076016 0.2375416499680425
Ni 1.3264360229978531 2.0987833564758023 10.403491065635226 -0.330639752776308 0.3331812882512391 0.6502630998374543
Ni 1.5780698952729817 8.252937732178742 6.343106274728488 1.0381708330972959 -0.11016688536509414 -0.7036299454943689
Ni 5.010318101573931 5.368629161835071 12.504353120431059 0.17435781822070617 -0.9451889441519206 -2.3635086924992454
Ni 6.7440517089528385 4.961949290597294 9.120388555567294 -0.4542622494256758 1.5028725326887409 0.6652855413882155
Ni 7.20932073590148 4.382918093095048 4.787476213278568 -0.4263709223320464 -0.5352820809131684 0.09678969272723977
P 2.6429886357032664 7.623965362971517 4.200012295441581 -1.7710558188020402 0.3769062399430154 0.05075511906568034
P 0.8051207594448394 1.8982231300016623 1.192988457682802 0.36741244151996727 -0.058620123636053886 0.38902950556911065
P 4.918615777667373 1.617734566503436 3.202092968760783 -1.6699808684358852 0.13501145521259972 0.34097353060214824
P 5.794149283942811 6.716909767808828 10.225619630099471 0.46787521222342 0.1542466492931279 0.6750320792520181
P 7.139144779109138 9.001081941588273 0.28763906109616594 -0.8144953995883842 -0.11653627922654768 0.4586444376537714
P 2.6465077287619385 0.6418732146116746 6.872982480889924 -0.061472762593500575 0.9195558169648487 2.873097996632
P 5.3637716902992985 3.346283127194833 0.3551710184494795 0.09584764052894461 0.0873336895206625 -0.6148422971359991
P 3.243911212631664 0.8027612824233205 10.659155984134744 1.175142754470376 0.4809898952285071 -0.23603395507426447
Ni 3.81414467748723 6.402053891248253 9.252371391989573 1.0733882615386934 0.8734752205567021 -0.6169444310806665
Ni 7.225194091825702 3.4409710646272313 7.362872992172204 0.4312125666950638 -0.6394076451801891 -1.1233530234925944
Ni 0.1075597690376946 4.703857508187901 10.666868039135661 -0.5873574614521692 0.5708098415061331 1.549363991382061
Ni 1.5384239426226265 8.81814525827764 11.056351150836198 -1.9182735862728444 -0.5665582653186307 2.671398296063231
Ni 7.19258632529269 7.435310153440543 3.494866536378192 -0.5814133280535922 -0.656083048953341 1.4365244442808098
Ni 2.506146455887204 4.3028119295600185 7.545608450746768 0.6354810564322733 0.009505111276957823 0.20705402290214664
Ni 1.1025056492697152 0.2822546615305972 4.159355539465863 -0.31604437146063635 0.8906597027557887 -0.30397381344934743
Ni 3.0536462052121487 2.3696692883830788 8.847381808534765 0.31016888651646585 -0.2769232370894586 0.05272098454279953
Ni 8.06996361170791 3.194054274537131 9.89609400231506 -1.383781091140507 -3.533465789003624 -1.2433680052963618
Ni 2.514888032793586 2.5715491747542205 5.85769418373497 0.18655076074247226 0.19842540069287118 -1.0107358768147947
Ni 0.40082001973768566 7.416273357479537 4.258038021891456 0.25447313561605855 -1.206604058303451 -0.601171484517126
Ni 1.798116163630511 5.049468011851654 3.5955350601523226 -0.018990167949257616 0.490417102079678 0.37622515471559076
Ni 9.020474390571167 6.174361082920153 12.778825532285364 0.5962920449376375 -0.5745831925056363 0.38927376036943284
Ni 1.6065034184438451 7.880269520981425 13.461889918334593 0.10198846331935985 -4.124949871029657 -2.1407789107330553
Ni 5.0436090962805675 5.414508401658498 1.0419173492042435 -0.1388043465961287 -1.409901956597275 0.04298370265037759
Ni 4.301707533334159 8.665682423368699 3.3839374229226205 1.4275649210946768 -0.0014971533708167764 -2.620657575175254
Ni 4.485374241268664 7.085441172804195 5.275654910410765 1.2772263486067035 -0.38821240898445397 -2.3210093856844543
Ni 6.975151298859015 9.323443968768673 10.41058727935088 -0.1857668313885962 -0.3444090386462585 1.203952736723533
Ni 7.05872039971242 4.728144865866766 2.1749146295267425 0.3216995128638847 -3.9976044170027474 3.6026480044262406
Ni 6.70590324271043 2.210673669019474 11.987367464455016 -0.7254303291989119 -0.26948477853354236 0.0475029306769698
Ni 1.2548187355378635 7.4092351713621944 1.8399100733472629 -0.3203609965581192 -0.2813995276932573 2.9331013737688263
Ni 4.531506181923433 4.352509759723707 10.063774106915744 0.4207129527153206 -0.9930623707944316 -0.1033146383299511
Ni 3.319833773514497 0.39997861956222136 4.977717822472959 0.556237343008597 1.1122165472598007 -0.09185266043693859
Ni 1.595478174765347 7.008236389184559 8.58986843025044 -1.1883296854742953 -2.080441547295578 0.29425812882348035
P 9.257928938421061 7.739487080054456 7.512636607830824 -1.6969771945190708 -0.7810582029758613 1.1600740330627117
P 0.9905404624056462 6.544165351362274 11.08973386658532 0.9050239418972608 1.694961963861255 0.010036815410711747
P 5.168667929924109 3.9449688338013615 7.821231119348177 -1.4509511612291013 -0.9229630428741847 0.9751906327203334
P 5.565660935960489 5.754606283483003 3.14621800716432 -1.6541271892330804 1.0645750341224376 1.0965413026163888
P 8.739377473219712 5.558398126881953 3.7202990761593004 0.5826819103533707 -0.7982696817581413 -0.5402458526763471
P 8.278104863122275 2.0788293500899298 5.278421516549444 0.20514600724615636 0.4121262394875741 0.8760311542093365
P 0.5281241470641406 3.5459074246640068 8.87495614887907 1.705147131924373 0.01451644844862016 -2.6606850234107853
P 3.1211734829204376 4.819557051781784 5.516031428614163 -0.06031345217807677 0.025990510526490724 -0.7809641006001582
Ni 4.823618983663336 8.589525880234623 9.524254088287138 -0.22457737649789067 0.5459907255799242 1.374671415529755
Ni 8.844660126988325 8.544442180065417 12.425218451203184 -0.8643789146823887 -0.11568241586668465 -0.7698978154836676
Ni 0.17099329327826251 3.3023412604116844 3.6623135946566387 -0.18686340688688463 0.11395026366692634 0.5095072859419095
Ni 4.734687009611478 0.10707215002610736 12.15862281785467 -0.3858369667737419 -1.060025209968226 -1.3755203937936118
Ni 3.991241163806875 7.3171491165636 13.419397805580138 1.4804877372356373 -0.593263799634275 1.1529489919821563
Ni 7.803251923162783 1.6746484092954115 0.6640182307981725 -0.12781545168479277 0.9529284788880235 0.8806761091805155
Ni 1.1470465106160417 5.7193311192858385 6.191096429457948 0.2853888513583085 2.0965117133845634 -1.0090919134534686
Ni 0.40354544500014633 3.725830416578649 6.482910669845268 -1.3399622941833438 -1.6718356622564368 -0.06474526269718527
Ni 2.181070234592403 4.87563791775934 9.751207512701317 0.18102057495286245 -0.4808528554300105 0.7976544167716456
Ni 3.45911872803352 6.520533143986885 2.4263332381307285 -0.0418992113369472 -0.5265030491689577 0.050495951867022715
Ni 4.36314191322012 2.5975960789624213 12.151307596751856 -0.22411972013518175 -0.36259702240919495 0.4302388899278848
Ni 3.288611181908835 1.6188108848591467 1.2175331958380324 0.3239039767143712 -0.31566256264118536 -0.9489530391800431
Ni 4.651408046749613 8.56055887753093 7.261328438849425 -0.7108100081825759 -0.07912852800205082 -0.6761489664652808
Ni 2.2212309481954895 8.96222216930209 9.126018168532164 1.9724726980230676 2.7062650260334298 -4.306217271886004
Ni 6.434914358612606 0.33620535309285077 2.670860601471151 1.3028692459857882 -0.6202128174192931 -1.2817851716219795
Ni 5.281054284840414 1.65273831128916 9.962461663986197 -0.5893940322662237 0.507592328307384 -0.07821527215916206
Ni 4.559546614912211 1.6917010357658897 7.129523428938088 0.34216138026266235 0.8857913189198937 0.763710198615717
Ni 5.542964657590067 2.3922438959828565 5.124151402731912 0.7552078175716607 -0.11902047910098212 0.5429226281775617
Ni 8.947228586642536 5.520062474838551 8.13556474752398 -0.3253504793529106 -0.07925425494663771 0.013019552188119511
Ni 7.508752502460217 4.720039720683761 13.796346956046166 -1.8297330209282747 -1.8537237274159173 -3.7545143264126497
Ni 1.7407717934962512 0.5985125597406101 13.131528505948749 -0.09230183215921522 3.449400485821588 -0.1888282439227393
Ni 8.689876188147066 8.993163982206262 5.847488813864823 -1.0399338385349897 0.7039695882219746 -0.4803049533463405
Ni 5.316338808327627 1.1317347120947998 0.3641344105300378 1.8351256526987558 0.0020825935606415746 0.7423672141635667
Ni 7.7629976166592 6.491940512885178 1.3885386561933597 2.331851470605281 3.9927393756009626 -1.2077525700855973
P 7.50178919066327 4.275192664623475 11.580282335958088 -0.8260447949888806 1.1254772689244488 1.5197718795472406
P 8.483831417703826 9.159431769938452 3.3113645519485604 1.006299438309996 0.20086692025482825 -0.4626617863432806
P 6.4032050839243615 7.870348673528787 6.005676726497142 0.6956518123848986 -0.4222201333884663 0.1779537631020806
P 3.2453806211694602 8.93835597967546 0.7028050006219687 0.7833547123195218 0.1598989624828988 0.8875859489264714
P 7.104711951016443 1.557891265925917 8.740891806349746 -0.1832296667890393 -0.956894662624623 -0.17633911031679309
P 1.7050567426667531 5.63888802130902 0.7723024088857107 -0.28170857429324386 -0.40402212232320095 -0.02189165786676875
P 2.933388687364082 4.1087283318002426 11.647060870462406 0.7750310229451749 1.3838844494875908 -0.790737120826522
P 9.141124998601319 1.0225585936655293 11.393985667519631 -0.9285577633531428 -1.2659407483905551 -0.7963400688355963
