# total energy = -340869.08277522493 ev
CRYSTAL
PRIMVEC
9.27448747628185 0.00000000000000 0.00000000000000
0.00000000000000 9.27448747628185 0.00000000000000
0.00000000000000 0.00000000000000 13.57414990109874
PRIMCOORD
 96 1
Ni 8.033338298841867 4.726658974573375 8.477355305074878 -0.7793857003694449 0.09439676701503098 0.5075643032829258
Ni 2.5006058108402236 2.946133631052012 7.490717726137611 0.6647384106354939 0.4555848248918412 -1.1887752576521462
Ni 2.6160639030550654 8.211733061774831 13.559557314423035 -0.5510514279322832 -0.7426603199239532 0.3367983161785361
Ni 0.8872577378802409 6.186426175332245 8.576351182358291 -0.5506498216184903 1.8710912721600874 -0.54467869163672
Ni 1.0280212686530543 4.048387895936699 9.05961781878274 -0.17624526505140617 -2.0863566272284326 -2.019688950697554
Ni 4.307248110557024 6.6130618649438535 11.87142163089176 0.6456245726241784 -0.5464152147118525 -0.5858978461875071
Ni 6.506025007184076 1.1672776952420045 9.003570237220146 -0.5356888294332839 0.3504555019506545 -0.6650297166236676
Ni 7.864106729346791 7.087247850867254 8.392245190155032 1.3844313231299965 1.2922544465844197 1.1239050393413224
Ni 8.579410835713716 6.005889005836374 10.777779654900211 0.5341137716366801 0.6837064670975644 -2.022661917282949
Ni 6.074881916751805 8.553535016187697 13.397876105026931 -0.4907896549277483 -0.495871697436346 -0.7475209904503642
Ni 7.249699770156767 4.16995787527256 4.339723655235271 0.2165766176806012 0.08825440156271896 -1.337441327533703
Ni 9.265750718288613 2.2038685901466866 10.494704681426668 -0.042451227185675275 0.11612464561042582 0.05978560469906478
Ni 6.017148233400741 8.055077697038637 9.491859935958319 -1.6553960286431748 0.48604879780865323 -1.0657623695623193
Ni 1.9784892746263347 0.735370387057425 10.568384918216095 -0.48894617396110623 -0.5286064686652058 -1.4399640660899782
Ni 0.6960725295321036 6.013419889512047 5.767425243653904 -1.0703582164631178 -0.20540414600354948 0.5710738938007972
Ni 0.9410914993278308 3.5569884616117604 5.5346699283955445 -0.4602917434492072 -0.009991563995073114 0.018869068990361053
Ni 3.3858370732486245 2.681513959827508 9.759542042884433 -0.0629262072105755 0.788629587565216 0.295687147960523
Ni 5.684055022548784 0.6529211225397353 1.6698380475660863 -0.33220401193963434 0.29229303467730955 1.9129179783878862
Ni 7.9411035227894455 1.0235602402688195 1.3448794895120748 0.7144722875255115 0.019763298669856287 -0.37531524130681165
Ni 0.7923472722460068 4.977301993458915 3.1103671793490344 0.5419026715534797 0.7903609684340259 0.25254737934825533
Ni 6.758346708268256 1.2413901231389277 6.307039027580262 1.1350222323004064 2.220177404567041 -2.204829975576693
Ni 2.1536194180348693 0.6046195927578337 3.231855543196785 -0.6498648359577711 0.37373632685546604 -0.05835838533423497
Ni 3.7644680166714615 8.824183104147654 11.59283921905922 -0.7200785779686953 0.8725241694973426 0.2091358451318398
Ni 8.58785061914335 7.891336624016464 12.99580945968284 -0.3709723909570837 1.1907681197124589 -0.4806942183649592
P 1.167555929860564 8.644137482477904 5.274399064259123 1.8079064119714865 -0.28408504494522047 0.021932538407033197
P 8.314846811412924 4.030451037526906 11.489811722152881 -0.048213583590749225 -1.045830920745715 -0.035870745754680154
P 7.704103274700598 0.7658574816617005 12.588775398948739 1.2437912088767096 0.1901842437300015 0.3444131524113165
P 7.822612673232307 9.427609070391869 7.641431854318835 0.5524382809774809 -1.035915718514532 1.7520679648456277
P 2.340305572600902 3.6228002233883303 3.841240367521812 0.3493694679753273 -0.04004955972271812 -0.7727347707118305
P 1.1295490809653579 2.086852384067913 1.2573858313599042 -2.0548426157805517 0.5570858070518212 -0.28240560036026846
P 7.724924498656123 5.508646644521689 5.860394559099323 1.063768221950426 1.4137992347691521 1.2999219904320063
P 3.1814830204040736 5.078403179356095 10.547847493571503 0.8607125215743952 0.3572750959756492 0.20696249162960487
Ni 7.3681813452266205 6.451713609641291 3.1284886000558045 1.1252124452988361 -0.7983267602483219 1.1645400392538652
Ni 4.2248535655143185 4.662859776537719 6.271148616683564 -1.427259474039116 0.10508484285649644 1.509215187077317
Ni 0.6791326785054823 8.813925521210098 8.061090347145704 0.5592519614652045 -0.2754849619810353 1.3229140804518056
Ni 5.087677666641406 2.9153423332647783 4.985649032015695 -0.27653088674704634 -0.04171974833628944 -1.0280532850473196
Ni 8.502738649326046 5.5826848765203305 13.065187261820613 0.9496158695750224 -1.2963093333800835 0.8891183264105977
Ni 5.807795231909408 4.812865333890344 2.302623330760682 1.0101452944186475 -1.0689978457804816 -1.0421812398082695
Ni 1.5497390019136752 6.671120155349903 11.734743511768126 -0.2567858429096352 0.49517569981058585 1.371250562773664
Ni -0.06725023475452133 2.696733393462704 3.0478719742256923 0.9871362351179839 1.0455928365929799 -1.1975429765424475
Ni 3.4145787093458044 8.379091184838275 4.660711805282441 0.050186133936087764 1.8246620341632704 0.7689930442812111
Ni 8.588397813893183 7.9559705259078 6.328771006187204 -0.2313470911215564 -0.8550622652671532 -1.5822509719180686
Ni 4.481478628698884 3.628420562683229 11.892665771467493 -2.4392613620505283 0.8488039430622673 -1.130404788133053
Ni 1.2366415856488484 4.373709086443565 11.112260329050052 -0.0922925761878346 -0.1292886937962096 2.865033731566627
Ni 2.036899995549226 2.4937426902490936 12.347209320769332 0.6916082384431443 0.995253979129112 0.09881212247390724
Ni 5.871872664563624 0.3221372590218198 11.335283924799937 -0.5766447030203553 1.5815133224210958 -0.559011049098992
Ni 8.55703149789426 2.641772781809949 7.658426424820441 -0.2701368102952444 -0.5091509310437553 0.38134884909540134
Ni 8.158859209761271 4.408840844280325 1.6906472146881395 -0.708790920870018 0.6899203092177603 0.1459972648001421
Ni 7.991909164138381 9.115689514012276 10.697149117339173 2.174403797876352 -0.5417918570072282 -1.2232131276150418
Ni 2.6086721366886723 7.35503012225605 6.849665164976889 0.09588569285573165 -0.8211977513092243 0.6436815899651946
Ni 1.259837078349412 4.27835808266328 0.7052338680725342 -0.40763375093385923 -0.27300539009229113 0.2351836912588272
Ni 6.797512868074126 1.829624479209802 3.651419436253344 -2.322261770034317 -0.9633460746769215 -0.6684189448108747
Ni 0.3738443805348878 1.11144528178443 6.2274259012744215 0.27941309339084786 -0.005827148204738351 -0.5261970878927648
Ni 2.897201436134709 1.190649403200989 0.9401825995738703 1.11221526170822 -2.350278309851901 -0.666640255643897
Ni 5.829553179080748 5.058945305031512 10.435194933760467 0.3167807354060286 1.114000635743417 -0.816272546093465
Ni 6.8669324054046825 8.382791705265115 4.774123018153413 -0.755766261178292 0.3357477634268347 -0.8636898590351642
P 1.1144038432284444 1.7361840198102898 8.37242653827505 -0.3617400737255383 -0.7676876952062263 1.7180908365692344
P 2.081055829514593 5.010411913067477 7.201520663607033 0.12009211489860608 0.6080417292743979 -1.0629536964689308
P 0.7452829590679657 6.832422038216038 0.657422031219297 1.6002003573076375 -0.5334493985798039 0.2466235576646527
P 4.222525669205705 8.543370178122997 1.4500586674686056 -1.9997832129125623 -1.706864885946428 -0.07000316866201492
P 0.7396468531446819 8.002723216313054 10.165925034611107 -0.6439875512413877 0.20388873780028757 0.10296008320400978
P 5.100272420374859 5.442139296198722 0.01445428843415778 -1.0115475740828128 0.5738540276490955 1.4740319543079647
P 8.326495567443276 2.270746917961067 4.906891940886289 1.110771587283158 0.9481914784236701 2.8658120044935482
P 4.046097097577227 1.7332069093917046 12.683210083385235 -0.8873684335990265 -1.7335331392662339 -0.7378688120725808
Ni 2.958793306196462 5.713677734938067 0.03426552072431142 -0.37053761741251023 0.11569989936818138 0.530308538957977
Ni 5.052174929313234 6.881252213773203 5.72788346711298 -0.32679492510892105 0.5559259824157651 -1.0118653624335476
Ni 6.039462649809201 1.9523630439436126 13.310620801197993 0.3060006140713891 -0.20417413025119027 -0.2682290517495703
Ni 2.7036057885411195 7.217415279916599 9.805069573519297 2.106122754111766 0.17494480107242774 -1.2937901665026557
Ni 0.6079250200263187 9.019707845096589 1.559981745671573 0.5837915984777817 -1.0614514008917912 -0.5009737945496017
Ni 6.423695383552366 4.163215323016138 12.69267191531371 2.9292367486070976 0.8165646234125872 1.1952570087217478
Ni 3.7871441380840474 3.283771340673773 0.73505783683591 0.5003063361689319 2.4476477863420105 -1.0072546031344136
Ni 2.82782827124058 1.9111008500112623 5.156615858081854 0.49769769490149124 0.4257906243485442 -0.5543933478213227
Ni 4.11350407116687 2.234891750116053 2.6924597097216325 0.20326524528367573 0.2530577433257706 2.3832367670557923
Ni 5.154342681248225 7.338465887964483 3.252420791303235 -0.469176704643663 0.5105748079744755 -0.8693748252350832
Ni 8.56969117303871 2.857015082727455 13.527847842394557 0.5114546394762676 -0.08354516901250773 -1.1215923320477459
Ni 2.7541702932206373 6.202981135136526 4.643349965084337 -0.08033823203943583 -1.522267906496217 0.19953328904506928
Ni 4.64932829958845 2.190624622303262 7.233324735405821 0.8010151057137623 0.22130204818072854 1.1211480454214755
Ni 6.630562822451236 2.7398041124156896 10.80616329578818 0.20736409794339772 -0.3171432609517699 -0.42205146902108603
Ni 8.722803683631914 0.5166798317672398 3.6454874741856584 1.2782198228682244 -2.214059978815393 0.7864120110886068
Ni 3.7233356655611054 5.479459833034814 2.639520936297075 -2.1425915384617618 -1.2500065936588018 -0.673728015728614
Ni 5.242580153280677 9.040992793416377 6.761053003658111 -1.4136459970207398 -0.2564757678683841 0.15310585082046535
Ni 6.155300996002739 5.967260766293052 7.479438094701216 0.17486869641885366 -1.5894230641864755 0.9210030909343363
Ni 6.815468275458489 6.672066153053005 0.8084301606474653 -0.13382643376556308 -1.187027421723104 0.7680134539767611
Ni 6.5688689330293455 3.655919417484177 6.619827603418488 0.3083783702749463 0.7008999481577154 1.028929517004686
Ni 0.756834332981821 0.6845972064139878 12.664355978182927 -1.3574290835095397 -0.687086696423707 0.7080614989031613
Ni 2.3816048644823935 7.461111707825441 2.6340638279783977 0.45834233303232036 0.3355240774518028 -1.5290946996100634
Ni 0.3300010967910353 7.459878201016494 3.7758672889938376 -0.8336984548793965 -0.3210497950950278 -0.5489567501867836
Ni 2.855781575918509 0.4806150605095779 6.947969165508819 -0.4215647591926546 -0.09438571127143745 0.844138676376114
P 4.959671193129539 0.7745643703251508 4.671842117473542 -0.2117000063145902 -0.4833486252686708 -0.053582046991514164
P 4.605710385885629 7.382835035137412 7.894983352417049 -1.4278647117232828 -0.7526976495552973 0.3689700158150742
P 5.949027124290129 3.593910195494585 8.781592803636046 0.25580959503929496 -0.5535590248454854 -0.4773702961980488
P 6.8592438554451585 7.178694295500423 11.180674511958882 -0.9278054585681506 -0.10044785830511734 1.697217335554335
P 7.356189433166713 8.425454346777547 2.3706034676645578 0.18239148715846007 0.017207622127538107 0.46506833890224425
P 5.079358451546482 5.14319474753128 4.375301515910453 0.19664285487115166 0.2696832676975936 -0.7045547713014835
P 4.117547747623266 0.6270684892319298 9.56015169563498 0.6472775348465691 -0.22145271482597992 0.18263419929688546
P 6.547954964200968 2.732338150151014 1.7168040511789031 -0.21950536129162196 1.8730432536801354 -0.031083608778681954
