# total energy = -340856.5032341017 ev
CRYSTAL
PRIMVEC
9.36150215234291 0.00000000000000 0.00000000000000

0.00000000000000 9.36150215234291 0.00000000000000

0.00000000000000 0.00000000000000 13.70150467509608

PRIMCOORD
 96 1
Ni 0.7805685906777076 4.738595726117091 11.072897852063363 1.1512762322654237 -0.5062286151906379 -1.022613087868355
Ni 0.7061409050943046 0.48264815069906297 13.73658031579123 0.7000401712605815 -1.4693612883051725 -0.8159532150808334
Ni 8.803163307486118 6.149130680030561 1.3079225942273869 0.42344115027976104 -1.495360797692728 0.39394931146823114
Ni 0.27463463987800096 3.482984268973561 7.297831911915037 -0.1294352466764029 1.332024784503822 -1.1349296725866003
Ni 7.849460290177658 9.02085567523572 3.0507908695096946 -3.157912720654394 0.3700030850652789 0.7146905741839046
Ni 0.03701912354988537 4.644213062848341 3.136233298358522 0.9614511716470537 1.3400360848440729 0.09463767938124347
Ni 0.6060636401526347 0.4488718514455766 2.608067652584542 1.4401131900733326 2.074988751711123 1.9215085482703744
Ni 2.5381185095629095 2.0822414461629584 6.574009001823509 -0.8731713161630381 0.4770509651854171 0.4086819896927156
Ni 5.477555248809219 2.838931653662765 0.7793946583256047 -2.242573255763738 -1.4258991033564796 2.1477743682142814
Ni 4.9036483680622736 5.35654847382292 0.9571639646017004 -0.22488488043598043 -1.2214994873580447 -0.3498880594829587
Ni 4.792340109158739 2.744127722803547 11.097136653068665 0.4829956128046263 -0.12342040794089064 1.5387371077958338
Ni 6.73079824594412 2.948292720148138 9.602575665560538 1.72858299434981 1.4946648000669678 0.6859775225199283
Ni 7.870355162664848 4.556327281974802 11.190827501338847 0.291784213361691 -0.12288767536587224 -1.0119602361401991
Ni 8.648726608820718 0.9579999467312282 4.804569975385111 -0.5332231415016108 2.2063158160936003 0.44556703564452294
Ni 9.408403135461837 6.65538198574842 9.817388435291745 1.3628286572585562 0.5164407798369492 0.9267752175314232
Ni 2.8679242253889417 1.5372335221220856 0.9533023450224146 -2.256012411987779 2.0456874316438443 3.42577076221779
Ni 6.096715630274389 7.912360222185467 12.691607334632474 -2.394910603849295 -0.3702028597809108 1.9015174498604284
Ni 2.084806497713805 6.362170381281002 12.043252172997702 0.8015766346441873 0.47616316326382513 1.082931168032122
Ni 7.0100424894120374 4.248652156901331 7.536389195345398 0.3109317328244193 -0.09526914231765526 0.032771795114382274
Ni 3.4119491917187235 4.792583508211009 10.853221782037759 0.2907822544597379 0.4016885890940179 2.7258360061868214
Ni 2.200804869124545 3.9752307676838767 0.3558597120711479 -0.1296800156973573 0.6391081116618994 0.08324872081801148
Ni 8.10193063789586 8.057332442318364 8.370249072367452 -0.2707664734594434 3.5280225065008657 -0.1768242774833277
Ni 1.5443669866540028 7.701520473907467 7.438847961298343 0.9056314935742725 1.7269829968525419 1.7043264357952908
Ni 3.7156550399397887 2.9385848425633636 4.588427872368428 0.5544445127742322 -0.5224052249505003 0.3181459911846714
P 0.1802538489096532 7.663503414243275 3.036335774255452 0.8160295768447238 -1.8390288444079037 0.7554078493976087
P 5.8391900714705764 8.285200762753261 8.400145965187832 0.018117792646633313 0.1386793909824902 0.036690670552814234
P 7.305500854361949 2.6698348428490934 5.978048294640487 0.6289046887663363 -0.16015041637207258 -1.1106337761537128
P 0.40826540032530995 5.088201018695098 13.180053063526572 0.06560658225621605 2.1534516211047174 0.947331187305904
P 3.6141763581471635 7.787028433270369 13.91374112443665 1.4049546398943287 -2.2435986117044586 -0.41919908717395543
P 4.208369613750624 0.4611138876245634 11.541229457737938 -0.7155799187673934 0.4267357618706328 -0.9466896970671631
P 3.2656476383003517 9.556502097266202 6.7111063264652655 0.7797924488895603 -2.6043878914809535 0.8176048917516434
P 6.247913249244195 5.9215525661579855 11.08222939726732 -1.2172327416618907 1.4985456231786127 -0.1351883471100962
Ni 5.323371310698099 1.0980012092966076 6.474001948146917 -0.38849497322187926 0.7499779366312891 0.17515743130386607
Ni 2.536667476751299 5.836362897863438 9.012822570360607 0.7189966577584262 1.5130052502473685 1.7484941314514404
Ni 2.3983606460498 3.8044956940183874 2.8894828283686684 -1.466214772256391 -0.8139477546150305 -1.692398316899137
Ni 5.5547782788929245 1.0579433421941495 9.718819308323951 -0.7904478717208774 -2.3379629828196573 -1.3925984323218208
Ni 5.2506605245834015 4.954865145561116 9.295169215594766 -1.0256068803893563 -2.168843530179755 2.872955300406549
Ni 6.101658503335875 1.0042925741726056 12.21347985325423 0.7733549207943327 1.148747295195983 -1.9857784139930383
Ni 2.4561023904498844 2.1275417543912343 12.563786322332813 0.18433678381028898 -0.1512950228639717 -2.53877976656284
Ni 7.33866865598476 6.700092519350042 3.7581721736203764 0.874688781248829 0.6994837845364793 0.9988650935191378
Ni 9.18531854255425 6.365858813073095 7.467264800650882 0.2036714795831589 -2.209692188765001 0.785836341090795
Ni 5.273128129408336 8.078798366428186 10.568655524676934 -0.6812014412875236 -0.6245158156700212 -0.8906998119651047
Ni 2.010494894755331 6.156694773654957 1.9412843742423183 -0.8700001175239082 -1.8264196402843256 -0.004686863952708057
Ni 4.375715823688352 0.4131624020269448 13.918125115828115 2.7627043399680806 -1.8328021467719016 -1.371538012107096
Ni 0.19823354967080786 0.730431194360663 11.646881497126795 -1.0207629220334935 0.30886456588274547 -2.9104005897372005
Ni 2.069453634416766 8.340836169201006 1.4213390633836611 -0.48004064394136037 1.2059846795518971 -0.08308288466410853
Ni 3.2617719764680504 0.6568151510015607 3.4954865549084366 0.19690382184202218 0.5362747838437409 -0.3764807223698226
Ni 4.764695593722057 5.861798098825668 7.4844469014407515 1.1171954885316309 1.472816850953941 -2.200087061575069
Ni 7.539959672212161 6.167675815513144 12.877660634037563 0.2046803804636475 -0.8215543633176948 0.7370411739649628
Ni 0.16212904486733756 7.478819702582306 12.841953993069536 0.9625701157428455 -0.438350977512058 -0.7664684780871446
Ni 9.296945092526137 2.237530041511304 9.014521682975492 -0.013507033347499317 0.610536984892426 3.053243110958445
Ni 2.415127096150409 8.870715905993091 12.343658091760107 0.1265350423104724 0.17460438701387349 0.5050747040918527
Ni 8.52701772118364 5.151400518767239 5.801477260621721 -1.1477749039803846 -2.25347473316759 -2.555304503690741
Ni 7.584061708183108 7.952212136243696 10.81680366691694 0.8866788637311698 -0.2292274736753923 -0.757211735375567
Ni 6.4872306866377984 7.1073553028100385 1.4249020510488157 0.023653634863197975 0.8279515250932902 0.2414330146026487
Ni 3.4564818567821476 3.198769067938127 9.400643386445426 -0.39553439656716394 -0.7768192251938493 -2.7582614737053786
P 5.2691869370619635 6.273236112182299 5.0188332249483105 -0.01700836163253845 -0.8193046480515696 0.38741510989413924
P 7.709824126190685 8.49700474573833 5.5603858185971475 0.21708209656211 -0.10775159105538218 -0.3024203529192985
P 5.076180850113757 2.802899232424774 8.188457128677491 1.9932006745990383 -1.0289387729760668 -1.4335926153459957
P 4.326876867700149 3.84993642477682 12.827101970130053 -0.9724467514266091 0.7240871849074562 1.2741204559878703
P 7.731149627770352 2.3804895387119664 11.505441371702418 0.040131320803247016 -1.066377634548815 -0.46334081468817623
P 1.787737954418106 2.9419268987810727 10.430996509914554 -2.0213856216736863 -1.3566035022844507 1.5280408044242522
P 5.400229242203399 9.002273093745098 2.686029305176867 0.41087076981391824 -0.5644579311461762 -0.2814954298411733
P 0.06808620412156491 0.16246325048910848 9.258778248829778 0.09115280615643656 -1.1715887185705307 1.5205516951360587
Ni 8.004973561574253 3.1076348458669827 3.769708352547779 -1.0199183146450113 -0.5068137982701465 1.690827372867591
Ni 3.5032238363200237 7.3290075859100385 6.390422458198157 -0.46900109829774705 0.2974882057250038 -1.5264094394684162
Ni 4.113106969292897 7.124711527537301 2.3827325545936557 0.9160732577328868 0.9400451951674521 0.33846361969610095
Ni 4.9043130347050115 8.460064258805332 4.865089277431679 0.2682982144246089 0.5837340057669689 -0.7792368334964064
Ni 2.076390507406465 1.1676226997478762 8.577347028291896 -0.9029945701720576 0.3985906668949845 1.1563222793297634
Ni 8.833850311076175 8.401386364204209 1.1493134741159559 -1.7359834005789394 -0.0007746733824954401 -1.238747218694899
Ni 6.989540800009284 6.745420912084349 6.690704805134023 -1.3592149717653688 0.6712255610217344 -1.5614412342615687
Ni 7.791699822773553 2.2828397112415906 1.6344246359939525 1.193225580114016 0.44838162227518263 -0.29096197457071177
Ni 5.4506970995414115 3.840883852332773 5.7162950815287825 0.8148615246785513 0.7765672570840433 -0.3818874952076907
Ni 9.343340696489628 3.0636545094221717 12.849640722370268 0.420863619360572 -1.132803370272217 0.24953404644322832
Ni 7.378146109962573 1.47801266040436 7.847755560661566 -0.4875590638055925 -0.5592313926399143 -0.655697126368832
Ni 2.775367055012218 5.592898315079231 4.186069579811674 2.0405922765091242 0.6179574457262131 0.28112827630974163
Ni 6.77810191560262 3.6493381596981873 13.024636215600683 0.5015543496434202 0.5704370315477466 -0.4588632385327968
Ni 6.138027938646239 4.75730000713385 3.280113031206806 -0.572689317917033 0.4753676639457232 1.3755597316719794
Ni 0.9977582457693536 6.39718239879986 5.343846787895224 0.2546986213633033 -0.05757548442162342 -0.06170544742959696
Ni 3.462763424631119 8.94778915204463 9.241610190292924 1.1557106138876934 -1.1512800889201655 -0.47827326762829236
Ni 7.07854059962206 6.183112932328276 8.97630803176908 0.15263970981732422 0.07723156808965408 1.3771928964000282
Ni 3.533938924416113 3.9684062327183023 7.155802948014208 -0.38178259419871025 0.7397793988317324 -0.40242623859099086
Ni 1.3924017245193454 3.964362063849814 5.218697548269328 -0.2615891778355495 0.3759693299510428 0.09935025436556438
Ni 0.16351735561547837 0.5997933061060755 7.207826686986346 -0.18968982059208622 1.0165316575609655 -0.247495932967277
Ni 2.2469289895297355 7.899254119370922 3.811662859957542 -0.23892258947596917 -0.4077497076864332 0.3048652149153653
Ni 0.6232363794404937 8.664341594174047 5.531872555773903 0.4692600083860886 -1.1319222532188442 -1.7294183457669117
Ni 6.774563267842693 0.6018631342005727 0.45584617044331704 0.659726045022567 -1.2275271816093634 3.476041228337569
Ni 5.860084943957767 1.6208036505688355 3.334781394496879 -0.19776128474631102 0.5947673807629951 -0.054129949075184196
P 0.7401400080956382 2.0501689402753627 1.1565096607113425 -0.4022038381675395 4.390416015322109 1.6061162085714404
P 8.702742475420665 4.611738012374299 9.124064362599867 0.19797365786743323 -0.417470534518623 -0.5846719442002059
P 1.8855375659206481 5.333706408917569 7.202895047727273 -1.4663700668873325 -0.031202650855049488 -2.8549233826055023
P 7.944030183486616 8.870584844964943 12.697581845215506 1.0700661391439958 1.1756250934234334 0.5056994821600452
P 1.7935140011585167 1.9513770095597194 4.697779577351792 -1.5544025822472327 -1.5353766759640333 -2.6663774458098723
P 7.22002097950508 4.577353215490137 1.5047818754030697 0.7606264174840707 0.05347406065874016 -1.0192585695738254
P 4.49192950964533 3.6088964710133036 2.706019856569853 -0.21576157797847356 -1.0424203524022693 -1.0454241722255997
P 2.179919358139365 7.809486676593293 10.499312070835373 -0.8922103350723602 -1.020737725222513 -1.473356525507495
