# total energy = -381168.74678742414 ev
CRYSTAL
PRIMVEC
9.28924031060073 0.00000000000000 0.00000000000000

0.00000000000000 9.28924031060073 0.00000000000000

0.00000000000000 0.00000000000000 13.59574216536316

PRIMCOORD
 96 1
Ni 7.12894380114682 4.4841391943677715 10.7041995806878 0.33083489950624956 -0.7053379293244111 0.10923203225565059
Ni 3.1727585744953664 1.2601318815968545 5.009024926040514 -0.3796994864174364 1.369950098794686 1.5127447974971302
Ni 4.447465273992227 4.469713004311232 0.4501184950165422 0.26793183222412564 -2.118481275677119 0.44624066467277984
Ni 3.7834425155816427 3.5963757960976763 5.460743028222371 0.11105854394142807 -0.2551372515626186 0.017405339960640993
Ni 3.7681895831458156 6.536754737331997 0.2660949306275677 0.8784297363485001 1.9918888977661502 3.333334975583872
Ni 4.963779823717018 5.138956315723605 11.700645231645277 2.121367596085979 -0.7255005203152151 -0.5645162951879374
Ni 6.376812599280805 3.4367587814540674 5.6276307311835945 0.49593186125032007 0.9995546633869946 0.2903503091286419
Ni 4.620105803419654 7.577019592239708 10.64414742945888 0.20087437645399597 0.14175494458402038 2.29242437495791
Ni 7.815056372792724 9.737631841963324 8.096808317805545 0.14564708054957498 -4.748179878008719 -0.19827910492299403
Ni 7.588324597583435 5.781576664674906 6.915052542689079 -1.9415785795473726 1.3996892777303314 0.039013148038403785
Ni 5.833206261799341 4.919163602956193 2.672120546560284 1.178627627695183 2.2462933849278026 0.0005705277914893399
Ni 2.670173521810863 7.640669466204557 2.5200519685167686 -2.665130974997281 0.1162413736939482 -0.43073665549990975
Ni 1.5479775681918326 4.633045715041521 10.44840920423262 -1.6879626497252864 -0.16319383118408667 1.711807574663684
Ni 6.322516990214176 3.071468699172436 12.750779904283233 0.6875412674626223 0.9149396583490758 0.15999075086575673
Ni 0.23798568973182424 2.0655368761056607 7.809911062636692 0.17305786846236001 0.6034335410784253 -0.42305959857062625
Ni 8.42025037291093 7.331393502429646 13.140570357636419 2.096827959073402 1.201661112475879 0.7469064967948169
Ni 7.310483422701847 0.47180236845439216 12.273066792278954 0.3698519041993953 0.7116947247803743 0.49382278532711726
Ni 3.8172181930095745 9.101253862437648 9.098189342090157 -1.156163642264712 0.8947480138925493 0.24984617836700843
Ni 8.603397033023446 0.13372511538759235 3.9933821312511966 -1.1429936805416574 -0.7287858759347061 1.0933176534727687
Ni 4.746355867204866 7.484610230563946 2.576773927128001 2.9774418475574143 -0.22291515830411932 -0.12052586000191502
Ni 3.6724546734724743 0.5253195391908618 2.847139121483187 -0.03933376460261613 0.8759985011991881 -0.2644778122372542
Ni 2.3748778645620896 2.9508572041987633 3.235473950894415 -0.10554455610173435 0.3251139378620724 -0.4553647384612351
Ni 4.676593673177425 5.960840422376841 5.12926578032954 0.7587001469956351 -0.7779014025144344 -0.01961366046586945
Ni 3.699328445419396 8.836659144105077 0.664260562960133 1.4278102043362635 0.02352585103608206 -0.7018432859075913
P 5.295117733006599 -0.1785726382298131 7.559164743619182 0.9114092765983143 3.5331145763117924 -0.041089570951458265
Ni 1.2098306458234074 5.765710642384777 2.8919095436316087 -0.7361281752323903 -0.28868320583886414 -1.488307233280056
P 2.5531755412814885 7.068545161257815 4.923276878524149 0.04993982225323657 0.1735648900057656 -0.012361092668514194
Ni 7.2968375288235094 2.4103070267485953 7.8419561546122525 -1.0274341634060822 3.3763896406815013 -1.50508213874555
P 2.4723312836755214 4.774780942267977 1.4630516184346463 -0.42410500911600507 -0.8855704611583394 -1.5255370641657922
P 1.2737127507936743 6.903865510696103 11.506878183193004 -1.4790913711087432 0.12655509691513042 -0.9356833186543305
P 7.026873629645686 5.685284400588562 4.719925192016281 -1.7895225101476602 0.31937549271639837 0.9690068725071247
Ni 3.5641792895065834 4.668047572178059 9.318997368813255 0.6703637272420713 1.5555850325911083 0.6205714863102926
Ni 5.676506068583777 2.1169435314648957 1.104416347844261 1.8387640207822915 -0.5545175321040128 1.6897865903079028
Ni 8.64348010455852 4.711288985386812 8.784263184662764 -0.13167364908861837 -0.8083471205988014 0.2792508567813707
Ni 0.5622777103170367 7.102450888048781 6.689975181162385 -0.26503831272641454 -0.3328133633888591 0.6564679430965855
Ni 9.2295289805901 4.37130279345548 6.532020011593545 1.1430265906621218 -1.0345790019809795 -0.807036629317494
Ni 2.9043645569141647 8.125762879561009 6.97275265829513 -0.3312308493930876 1.3532595255128823 -0.3095903883051765
Ni 3.4176786820489595 3.289292093013906 11.250599192702424 -0.8855298377283911 -0.6266490599629402 1.121733228500984
Ni 7.058066898293374 2.990661598527336 3.307068912016611 0.8782459024724681 -0.9620674650748141 -0.4323330534527522
Ni 3.621057307353456 1.7946812098670328 0.5585295018895969 -1.490726127134194 1.5996300866264646 -0.4517109437587317
Ni 2.78322357524814 5.876995740180879 7.114488814445607 0.016427806538720092 -0.992105149087485 0.16045406365542045
Ni 1.2537130166071129 1.2354596595812912 12.33766045304982 0.4642905801959552 2.5808890370280646 2.503340451918624
Ni 1.871029475208115 4.939469882069906 4.942433149699034 -1.0510425468536415 -0.2611729162337373 1.0853433770180405
Ni 1.8071752379584982 7.977868886070878 13.339298789288433 -1.5378662751551062 0.7363132946600028 0.42462077241015905
Ni 3.025970000591024 5.920738772361335 12.084004743996438 -2.6746666824018583 -0.9871100098657386 -2.29603188980351
Ni 4.499856588814433 8.39945176406573 4.940271543500607 -0.1698689292114171 0.023114988750908578 -0.3360259567888858
Ni 5.348540153492859 7.24908154486944 6.980380053437065 0.03864162363159797 -2.774463537386538 0.07941572022516646
Ni 0.529877769365198 9.011408331061697 11.09532211108806 -2.0127793680619144 -2.8131352429251226 -1.2550634393564193
Ni 5.8522492042435825 3.674247496834298 9.08187372057354 0.7353848693084626 0.3361321433494469 -1.7333791301868728
Ni 4.825388722968576 1.1048064959333626 12.232673460120642 -0.04759986126615028 0.9955895080916596 -0.6683513247977328
Ni 0.6810805902205173 9.453938445745212 6.110810561055404 -1.502511035584264 0.6368069743325484 1.2768509675451558
Ni 1.63158073014216 3.577416456815385 12.928381816910402 0.5537387449564593 0.6179479326445163 0.6256051920794581
Ni 0.7785609481305775 5.885272453213962 0.11581081562968047 1.6796325325930364 -1.095341882991649 1.226460430907746
Ni 6.953674416738066 8.818517257961856 5.7676669563744145 0.2370492837126563 0.37158457061978584 0.7671801594421884
Ni 0.8800273190176252 9.085341393946434 8.721437266305136 -0.3769131819215509 -0.7869647982682834 -0.5854869839023337
Ni 8.592612225131855 4.620672447072873 4.0240542735227285 1.619213922295663 -1.0425555924285528 0.37902302917570213
P 8.222110879088651 7.4035894773938615 8.409442341918796 0.7854321636738408 -0.20325727486387574 0.13607460636979146
Ni 5.968206789868687 6.125798750145055 9.392387011145317 0.7862119792626588 -0.053273771722475986 -0.8002766848858411
P 7.956104196243143 1.7076317397963081 5.760610849505807 -0.4305893312887681 -0.6557117816568514 -0.44770670769534515
Ni 3.4455742704197183 5.405473906781031 3.267464236352697 1.2442756047122958 -0.49988158992668746 -0.5157792349935504
P 9.333364107732407 3.150306480891595 11.231156812928866 -0.003634254318477612 0.06477740148670134 0.44830037541528606
P 5.43292361162139 2.865972127098531 10.85209450310195 -0.4788970172552204 -0.4798868919723155 1.8877255382826585
P 7.271319985948227 4.304011537325683 0.9122972106064299 0.12001343914187074 -0.11287579965582495 0.3571455123763204
Ni 0.3418709787713013 8.250805342118047 2.1090123781678742 -0.4290279003389192 -0.0038268299452579257 -1.0631228750569433
Ni 6.703004269490333 6.901766142407129 11.9754014498509 -1.7996449432936426 -2.2250992673486905 -1.1732617353975794
Ni 8.522580643138129 6.394164900005606 10.43626816726939 0.7200824346234374 1.003852262321084 0.6205961689006408
Ni 0.19059663076631356 3.7072242996035936 1.8181588355907279 -0.052733325837973695 0.08748512749686223 -0.45462786029521063
Ni 8.362564191165204 4.833628279040791 12.498578890247789 0.20158194404398186 0.03829606736672114 1.1917091434694895
Ni 6.978978307088364 8.655732612404352 0.956456400748593 -0.6286267525146013 0.5362665563136247 0.5119542048205054
Ni 1.6495832776821306 -0.19353017282674836 4.20350474495302 1.0370439185817042 -0.6259556334403413 -1.8347772682204015
Ni 4.884180324300089 1.948278796850218 7.167689222090687 0.5735755771767284 -0.2786751867835588 -1.7835122993978383
Ni 0.13511943034411947 2.1936819448950793 3.783150833438838 0.5584436066312963 1.29370686276023 1.2827143683044682
Ni 6.976219402744004 7.5430581300074415 3.670170449303187 -0.6685253884817519 1.0501094935164108 -0.2392599182107299
Ni 7.112780523169755 8.47859609071204 10.3642106019844 0.30007396417430904 0.07994896702081715 -1.8375075226673707
Ni 1.6519706124178233 4.015255505189468 8.22772158017954 -0.027199957453559607 -0.7863328211112394 -1.1234376127866006
Ni 5.561802530387928 1.336052841887969 4.796251163180843 0.559334750986998 -0.015807656456217938 -1.0057391949311518
Ni 0.20235309318457295 7.230846766324051 4.298239203455023 -0.7583095964254359 -0.4926400778729258 1.0376617546713613
Ni 1.358133365883072 1.7966226610723235 9.965080746517343 0.9001082497631983 0.5989595644674717 -0.0271261667928307
Ni 3.8520156868613444 2.309602373559317 9.050236426243494 -1.9714846230781853 0.14831948517541554 1.2078096485757779
Ni 8.243819833475088 6.172839462602439 2.3551633100501808 -0.2682362508384219 -0.37119890514559295 -1.6423597642845071
Ni 8.80686855073011 2.4751459234611826 13.372350834903484 -1.1321575091581018 -0.0035596923268003213 0.3174006283782147
Ni 4.780029362990414 3.1009899045811182 3.160031386474461 -1.700202643434904 -1.6314140639062806 0.6488834458811084
Ni 8.130992721803013 1.6060074518255765 10.112499130908377 1.2260020032140886 0.5766436745790908 0.7651091358457727
Ni 2.3510695418866794 1.2232443086963267 7.492464283167168 1.2479139727958315 0.8954483823936836 -0.4013052376126702
Ni 4.847422800762595 4.653389151116101 7.426143752640017 0.3639792474687022 0.7322838617856356 -2.2439220564821483
Ni 5.912452770088036 1.2449439738425452 9.536189094319989 -0.23659702666658605 -1.3187535213162127 -0.07148001031785753
Ni 8.213481174927335 1.153937287439505 1.988445471547242 0.061061900308327095 0.6522173953503476 -1.1057093422689022
Ni 6.253618695526889 6.461307528291936 0.7841781516896179 -0.18588227392053794 -1.0814219304764472 -0.4731647427571335
P 5.531556764242342 8.478976949560925 12.599460039001185 -0.727174051362896 -0.42443102499685614 1.2911218756418732
Ni 2.8395163709613604 9.214694063964025 11.60315001095087 1.8275236719817816 -0.7263731527281554 -1.078770351786213
P 3.931940309685858 6.874669428695006 8.80167958114506 -0.6770087433624147 -1.0419696380180958 -1.4926164021783712
Ni 1.2313631046457254 6.550335606528819 9.091853151338345 0.37888290405341196 0.5021963541027932 -0.5352892800020201
P 5.807066339829539 0.2852790695231029 2.7378558549537835 0.8698296533843147 0.058277138474338346 -0.06397830262417369
P 9.044217927507091 0.19226404938521174 13.670518725227264 0.520789029503316 -0.09789063910090239 0.8602939459797377
P 1.4686474567411882 2.849780981400817 5.9213397862033545 1.1074116696719896 -0.33873512818993273 -0.1441211308233518
Ni 1.6153245597629298 1.1685399730601622 1.4446970086904627 -1.219568845994235 -0.3106473688147811 0.19371925346645347
