# total energy = -340856.0963481293 ev
CRYSTAL
PRIMVEC
9.43270663089710 0.00000000000000 0.00000000000000

0.00000000000000 9.43270663089710 0.00000000000000

0.00000000000000 0.00000000000000 13.80571962691216

PRIMCOORD
 96 1
Ni 7.7268675649853975 1.578921876963483 8.555791174414068 0.05151488004984031 -0.5729603121902326 -0.12824611146430817
Ni 4.566363787823172 5.340336222218753 4.7001846517817185 -1.3984862585611657 1.0946667113014954 0.5440724255112888
Ni 4.712608469523424 8.740468475510573 10.62395641001677 -0.7209504390506875 -1.5218552444388307 0.774093341622254
Ni 8.356208310493598 5.008776588462053 7.943106702057718 1.5142267813592953 -1.7872859075076573 -0.5803658606256844
Ni 9.004867238930212 1.626170303862126 2.4431153192962682 -1.1398011417462888 -0.4563199032856528 1.1401850074482685
Ni 7.9064568641914805 3.0875229269097195 13.48933343903885 -1.0830463534537478 -1.036753641034795 0.24089822514510123
Ni 5.661765129185846 6.8650483348806794 9.349288368010589 0.10920015057645065 0.36087026952607526 -0.9663347249916001
Ni 1.0549538958563094 8.835606753350403 6.244258337821995 4.309793162162719 -0.8430305309135997 0.04406665130191121
Ni 2.2066118988327807 3.584777483186197 6.953402610199946 -0.6037551860839021 -0.022177050317671487 0.11143855298866615
Ni 2.407537980159991 5.778391112450934 7.638787781425513 0.7076308391236458 0.5689727882973943 -1.5410724407972298
Ni 6.357031060478557 8.958062149237444 7.836899143130733 -0.908759497680293 1.61097430799469 -0.6385005599848875
Ni 4.25476376103743 7.003388408527215 6.600196801548655 0.6241751445011509 -0.8449627149393061 0.09982359445755712
Ni 6.747214965182566 3.0654503936809667 2.158689976689465 -0.135127926185806 -0.28407476053257524 -1.0338004719437421
Ni 9.211896281368107 6.086057700622834 3.668055075862851 -0.3976812677068377 1.546889304589323 -1.9688721251560024
Ni 5.650898651288614 8.761588305382016 12.930395585094516 0.6195515296862103 -0.3051714333018744 -0.49192659674566896
Ni 9.106598978619143 5.547044552635377 12.849079995371529 -0.31910861220825687 0.2618185202375362 -0.43365022960227895
Ni 7.3313447483978536 3.3109271478455287 6.551504227283636 -0.4798269852686575 1.1363373515674042 0.7549008278542031
Ni 3.748963172664692 6.056797445034973 0.9052049636883298 -1.1957090086575022 -1.1614544583500062 -2.7579557695395014
Ni 1.6338390942531416 6.751742664306412 5.0448170734878754 0.2991306264244332 -0.5282442002297806 1.1791289928116337
Ni 4.262583474732574 4.772251472773598 8.4743237181163 0.3240585000143645 -0.7058860885183972 -0.269390161937207
Ni 6.285361356430665 3.4565209727967274 9.428989078379404 0.9541009019295698 0.0708464904989167 -0.4015440930963536
Ni 9.386033476212559 3.4671893638572917 1.2620121796843802 2.028120112184043 0.6321165108354145 0.33808823863455323
Ni 2.8245013386402515 2.404830793392191 0.1529796341469745 0.9849957917362132 1.0074682618071165 0.9276951582425313
Ni 0.23707881556047677 2.798221818308924 9.461597944777608 0.4773561551306618 -1.095299716899804 -0.36767392271147004
P 7.667762226006181 7.242356595201247 13.282482674753957 0.51113170891921 0.07904959513499935 0.36312101323346496
P 8.304498213416664 4.45631240099417 9.983412438989003 -1.714448097610325 -0.08376654099469445 -0.8627943438040883
P 0.6077464504994033 6.811989360773099 7.460293619445012 -0.8647990329389428 -0.17987334872229666 -0.11246596581191598
P 1.4275741010423948 6.356766944696334 11.526506066823094 -0.925910812648599 -1.4272077948655741 0.30999507994276293
P 8.327202737981453 3.8088985898166148 3.4512914803086843 1.6053927001418546 -0.263791584803507 0.40589105721113966
P 2.142526090817332 4.089738560679722 1.764246261726438 -0.6011560578981582 1.696479428947046 -1.369534865634138
P 3.568845641894161 7.5444295884138945 4.601901509592115 0.5908461913317179 -0.296510929413399 -0.8679141815291569
P 3.98491289325616 3.6693699951500682 5.8864691770784585 -0.5671833004971394 0.3836988373848166 0.25464077154217435
Ni 8.49841579380842 1.219243345106393 11.037893756249261 -1.1824457158896926 -1.4444467844516802 -1.0187692886422324
Ni 6.899939916253824 1.630830060877085 3.8617085404723834 0.5717680916543443 -1.7666872574206993 1.4051083918633736
Ni 8.451997445082482 5.501277060658492 1.4390527615919972 -1.6569242923622434 -0.26149173302573675 0.1655224793172633
Ni 2.0990601792284025 2.690377684802798 11.678837674032968 0.2252880294116701 1.0746928392827297 -1.586610020217713
Ni 6.452348559742041 4.9875624315255305 3.4514574959432256 1.5707473421538432 2.141266906113067 -0.8056142950486705
Ni 5.504531344403757 1.549765381147211 0.49760922604117847 -0.886293455367293 -2.1935742001572156 0.5037986655929065
Ni 8.788877125309702 0.5532046549287635 6.303166533235193 -3.5880320542852786 2.101898431617774 0.2608029344888283
Ni 3.2220993506595583 9.350811750111632 13.46177767351699 -1.8105518200141333 0.35658218367368266 -0.18831608017301119
Ni 3.97465010857544 2.2457670635475475 7.669546894077497 0.7946346561087153 0.3758965677315784 -0.15434512254420515
Ni 5.6400982023369375 3.689320169414519 0.24091981365054016 -0.8126107809711618 3.1930972389753265 -0.2552732629198507
Ni 4.036519230561505 1.6069653134118091 12.064831570506117 2.1636583864343897 -0.029286921889575365 -0.0933277023205683
Ni 4.24944371456691 4.218362946623003 2.292895695073539 0.3935111954895481 -0.45842255145095245 0.7412356716622848
Ni 1.05262401734883 4.985487236093768 9.289965133511036 0.34188447245219183 0.43671087080547366 0.6552615814933103
Ni 0.2390012011468101 7.891930496169138 12.219483623516961 -0.6239110922064868 0.7113067453133363 -0.2794696576603961
Ni 0.2679680995622709 2.146978328289115 4.63282663787864 -0.2194462259189124 0.724124723013611 0.4290027035279386
Ni 8.841643685515534 6.530715485410623 10.14974406919807 1.1919647111237213 0.7886745818705385 -0.524038132568233
Ni 3.492431286472738 9.402380356590946 6.898055261493523 0.026063272745955112 0.2144336031956694 0.3520691262946775
Ni 9.014922504067755 3.528973591484785 11.631277024548911 0.510987470031862 2.345250517620006 -0.17607248691896774
Ni 4.462971891788828 8.253222020839099 1.0713932167584765 0.6818123353986452 0.6398164505828335 -0.638085841044972
Ni 8.869423006181636 7.399882793885085 5.82246543360963 -1.8317703630732776 -0.38513094184565283 -1.3707419985683618
Ni 8.619135571697985 -0.14884150580190864 13.810827431680849 -0.3109697851512063 0.8253593388860817 -1.0636358101376198
Ni 1.0335227866701011 1.1981706787674893 0.7754778943542611 0.5461951282812464 -0.04491948622050974 -0.7571410300386315
Ni 5.424938166889133 9.201369380905163 3.018413259408103 0.22023735436164005 1.2475959273347803 -2.3695592695687
Ni 7.146737249329507 7.4426789833119456 1.999951675219348 0.004592761577004993 0.5331321244497012 -0.25568875319071455
P 6.190440030840519 5.6266377301500015 1.272853189274041 -1.2375434281947848 -1.5909081333724342 -0.078049178894943
P 6.894072772805838 9.436856898877737 1.0394220013202131 -2.257681829270402 0.46983516416326826 1.599097354051446
P 7.141058760011683 7.319440672784739 4.166248186436876 0.7220644980504726 0.25542367245478587 -0.569467982766258
P 4.748066013287049 6.571351585047149 12.26384186914155 -0.14773430209590685 0.5461807301035432 -0.21391038370234775
P 1.2715382699868238 0.4037122923778019 3.617843835850041 -0.7784924991312141 0.4436631337535908 -0.6072161480493091
P 2.5915606514248406 0.20242776820328656 11.343703987780383 -0.37252225194270683 -0.5559609494187586 -0.7400347093756481
P 4.562354887557266 2.083543377022719 2.80830443829534 1.259681654854721 -1.0237875677924304 -0.14126540654211156
P 7.804489306839846 8.602326488700704 9.486172031772288 0.24641838363238203 0.8098735845456567 1.1339981619112665
Ni 6.823987763451294 5.966271760677561 5.763791169317829 -0.336800115950749 -0.8315667532483743 -0.3965880346426589
Ni 6.7446209708928615 4.902941621442135 12.133709193427636 1.3189988045577994 -0.6504178802477637 1.0177148792357893
Ni 9.031939106608212 4.835959972528726 5.4302176527216695 0.6444644908778062 -1.9665136522261553 1.0763491439392303
Ni 1.9452221687891986 4.656597058278836 13.375242967283118 -0.03503282323441709 -0.4977984821454137 -0.6139948615340393
Ni 3.1193960422002998 0.4036556961387538 2.153195425148547 -0.2610297057876537 0.28440257618563924 -0.011061914241116433
Ni 1.878183923636742 7.428624250615004 2.6955807657126183 1.363512056478826 0.3240872963697709 0.5843150750814196
Ni 5.129439770112572 5.086766205870316 10.641172042664548 0.20115951179458258 0.4950805689936183 -2.1022367887937987
Ni 4.8010117949165325 6.806707045128611 2.609570517960592 0.5794284364130795 -0.31780506290548494 3.9442702243559817
Ni 3.0999835322068066 0.26146707823694754 4.690962294628833 0.4100259053151196 -0.07743622790129244 -1.3357757669058221
Ni 9.261540615719786 8.669977859776182 2.4305934014068797 -0.01378548381986658 -0.33178517923466083 -0.18305817420818152
Ni 5.676800863359621 8.599553272987349 5.056096703930159 -0.16008202502798236 -0.0073096462875357985 2.7233309803767805
Ni 7.6397093568513466 7.046043107356455 7.846439382492938 1.1781982534672484 2.596279403441206 0.37873095185657996
Ni 6.982372338427361 7.160131692570888 11.27288039750626 -1.22734874704997 1.2035894398468432 0.30359868949811586
Ni 0.014698986551438547 2.836829886046226 7.064179372159415 0.7673699068554913 -1.1135846312519209 0.17039703380074525
Ni 1.860469300814691 7.648066734817447 8.958351733327241 0.7314410541693661 0.09196681741729967 -0.6710916065470314
Ni 6.021198410673728 1.17878646689352 10.588062131941825 0.7320794590843134 0.3288098986564208 -0.8080105631949891
Ni 5.78676735583005 3.3223973189592737 4.860082232881671 -1.0118913305754766 -0.7953728198263206 -0.17617070305972887
Ni 3.3487994644752055 0.6475930326012077 9.299477074753717 -1.0165002901023976 0.09075762760054691 -0.21229393114484726
Ni 0.8496453790854753 9.226064206543144 10.011520961112234 -1.1593476964196483 1.4859706147270797 1.285282900362593
Ni 2.3963413575349786 2.5345682387034185 3.1343402791209463 -0.13844824880829057 -2.0177454538179376 0.11498718957187294
Ni 4.137788767631546 4.2305783015508815 12.257518182698577 -1.4859688149548667 -1.2277693795271565 1.8453267616014737
Ni 2.179577761980812 4.611461557637988 4.051164450685849 -0.18325820603412954 0.7215657040371831 0.25587361550801097
Ni 1.0326172468453318 6.353606988016148 0.8440055638643336 0.8418696778362792 0.47858282844891126 0.3404135443336202
Ni 3.134733622982331 6.462799998552921 10.438808416865514 1.9571455807476938 -0.6654380078056797 -0.23533770033818824
P 2.735645243334758 3.6560132827347203 9.739769402969598 0.45540947565624146 0.06942981265704817 -0.3504259342642997
P 4.336715115179058 8.181467422432634 8.390536759288214 -1.1396383909161791 0.9038389204502242 1.432742094420242
P 0.36821230143489037 1.9216309698126552 12.458778181836172 0.1686851933159611 -2.7653913998819406 3.6066087888462013
P 1.6644010633391075 1.229194850472348 7.28021098968856 0.09707045719245218 0.8278221986042775 0.7353954108314238
P 1.1015608987124077 8.482616010407495 0.38989715042616424 1.9253652030123036 -0.7114332435888715 0.7243594647322364
P 6.545939873714558 1.4235369026569646 6.257856527523947 0.17163064909753023 -1.9371210579966507 -0.20063500674968027
P 6.229548032022746 5.532272934243827 7.706504238175897 -1.7451537542242974 -2.1008170256281367 0.7887630278192868
P 6.109441380056201 2.524975176184768 12.21706790738026 -0.0396240421495253 0.5993606565606323 -0.08704058376027592
