# total energy = -381166.5880933758 ev
CRYSTAL
PRIMVEC
9.31493999693070 0.00000000000000 0.00000000000000

0.00000000000000 9.31493999693070 0.00000000000000

0.00000000000000 0.00000000000000 13.63335625406989

PRIMCOORD
 96 1
Ni 7.355793643657509 8.958587374364136 8.890461631316974 -0.40091854369721275 -0.11617221101890961 -0.3162600870158682
Ni 6.7973257484144645 5.896738747582357 6.154560443297499 -0.1514642014519843 0.7446804356777755 0.05610198519989047
Ni 8.022547713004041 1.604051247567183 2.0340828911307716 -0.4901265674224526 0.6963853481168136 1.4513188289811652
Ni 9.302131665728494 0.6228127042628002 7.4258848389830225 0.36227280630055675 -1.0538969855833011 0.5276806144168267
Ni 3.931556602482439 1.3964491862988482 10.492407702510189 0.21699056528956825 -0.5186884382205454 1.069458073246352
Ni 0.8339991543307069 6.020646075575869 1.3418124074425903 -0.25048586883353635 -0.24502278883643608 -0.2434816696015613
Ni 2.5004931002293063 0.8927428901041455 8.48804598950518 -0.6078224141747403 0.07031067260010472 -0.6286563202009561
Ni 7.268102801248029 4.54070708467577 10.753363875437014 0.19139111955390908 -0.6831243693418493 -0.39392617153977966
Ni 9.103322907544348 2.2887086310321574 9.456668378469283 -0.5747140616565457 0.16697309572086083 -0.42889060343010643
Ni 2.0580427790472435 2.6708819773648735 9.90006602901963 0.4805394379546498 0.5419985737013956 0.19800605376726546
Ni 3.380745587679227 4.755053162292572 0.1921392613533425 0.010371058821678913 0.4828349188570459 2.3376691057283225
Ni 6.495046639955778 3.3817888609265037 2.2962388282919646 0.8468450195636834 -2.786944957683 2.8380906273188797
Ni 0.6146723784521304 6.345327614031879 12.534970914750966 -1.198036628349414 -0.8074474916026676 0.5578237136591102
Ni 5.138148687656361 4.648490252035033 4.544692947376749 0.13086323737218108 1.0149619990810006 0.27684558977398777
Ni 2.980994950117842 3.7577025677755604 7.8311219760323185 1.3930074948347815 0.6623388000550657 0.3394542657441444
Ni 5.274808168109889 7.0931868634144575 8.312039272231821 0.7085620926886635 2.165916586340947 -0.4869330001858194
Ni 0.7038834190219287 8.63410144964199 13.047435117258967 0.424690706416146 0.7116127065895294 0.4160528282354899
Ni 7.050114582205467 6.246449529033297 12.61700293128794 1.5118263994479189 -0.9907164962700745 0.8720400307720724
Ni 5.467664679820734 1.6444594560197356 0.6362793125984054 0.029411363282581607 -0.6347917436747326 1.4020613775069337
Ni 3.762751265097202 8.445436660799668 9.839506811497138 -0.46255277156924207 -2.6616725841350353 1.074380964469266
Ni 0.9879425054121058 2.814583552237517 7.410873813643859 0.35939779874560684 -0.2124057741323632 1.092106406773487
Ni 2.43944298538421 1.5711508805191388 12.989602382588954 2.0557491867552207 0.0029475126640981495 -0.6862063507012828
Ni 0.6883330586736829 7.241173310552701 4.902514246831293 -0.042317529821288405 -0.01637587025486212 0.9997366974908137
Ni 3.4926645882687657 5.97538478353554 9.346892745506514 1.4437986093447202 -1.1212678588287914 -0.5871121782105824
P 8.415395980241925 9.3781881484429 0.6585578538976147 0.9220862966961861 -1.1124438327792583 0.6300647705127085
Ni 5.6600088698476485 4.848509952381197 8.463764736168788 0.19432603381251695 -0.850823287485141 0.2784461014918882
P 7.877085614526617 4.180954798219792 5.067573115466042 -1.5098304520638128 -0.16475551924425172 -0.9732455931788206
Ni 8.042006622053691 8.16284001994362 11.703158908263656 1.1802582213200705 0.11586419286018755 -1.034008217079174
P 7.975227819288281 0.9675055276931338 10.730310331154113 -0.7778821192407248 -0.28983608849638465 0.20578106972699398
P 7.150212924305773 5.33335256417358 1.6697858455913457 -1.1573064976199037 2.6282379586256734 0.9842064630656985
P 3.521037894618806 6.9981651634549165 2.0154464912573227 0.813150969745348 -0.06012370476477387 1.4800447361609477
Ni 5.077294186545131 4.996645438554766 11.790193978917706 0.170002626575804 1.3115081526077093 0.7116206770093293
Ni 0.18010715373274266 8.723217477826768 9.68505393321372 -0.24210792918248625 1.0459160242603536 0.8138186852363339
Ni 2.0127162824289586 6.431304507535119 6.85982713086604 -1.0068236862445823 0.09808012940388915 -1.7130890124792693
Ni 4.168472779011305 2.7752093020925335 5.730631016736508 -1.0967529044065627 1.1607006109031173 0.15458063559377896
Ni 8.941345420964948 6.419651517960628 9.88037890394714 -3.2184436881599154 -0.04602634613144332 -0.2059322505928776
Ni 5.105984200845237 6.555696212393438 0.142172993266589 -0.7767333503482623 -0.741928069743619 0.14838170587191865
Ni 3.629966799562132 1.3749596203928918 3.6377606096156705 -0.21878031020013933 -0.2700571060972446 -0.5217513934165853
Ni 3.0323388977873833 2.616669028265322 1.5265677160895386 0.24124121030681678 -0.0840853577866939 -0.19843080000950988
Ni 1.7535653448175104 2.514186061599812 5.142760514305707 0.04046582132453031 -0.4122349971512965 0.7342417568429548
Ni 6.644411698170781 0.6397845244104606 6.792983123522675 0.6995755729193371 -0.20759446878664894 1.1455311022515304
Ni 7.321281792040011 7.411003291305798 1.0012190889776713 1.0762817810364045 0.08993178926514189 0.7641182326874131
Ni 4.479442726217393 8.688649736571024 12.697112344269222 -1.2512605206705611 0.1793223613148331 -0.6759941860549713
Ni 6.717058912952121 9.325279290902444 13.115642831775558 -0.9351457009833056 -0.28375902906436934 -0.735623724792146
Ni 0.4359447672901169 4.621961303747143 5.81598939824315 0.20987143774628372 0.56975208966558 0.8157992060014725
Ni 6.41548773991123 6.781499665850866 10.618434179287231 -0.8749772590235253 -0.10761429414656949 -2.35914244511075
Ni 2.827875971200586 4.314661442785938 11.777978366984863 -0.5829004541220799 -0.42690442623801317 -1.7947968711727218
Ni 8.599058646461147 3.9213008538641216 1.20904005132914 0.15159249949973247 -0.41806574490046067 0.6336792273368441
Ni 5.890115825450092 9.009866117455722 10.733431767450204 0.36973337634366 1.3572128537336756 0.3547556719879052
Ni 6.536954553701291 1.932673005519603 4.976433882376724 -0.4351065024328312 -0.6426379791920287 -3.1789497438303513
Ni 5.279810290732991 8.485099674075594 1.329388140860291 -1.1957725149055858 2.031913517788204 1.0394119045932486
Ni 8.651557646654458 7.245495442577132 7.386347577393152 0.4480131831921703 0.18076552151926287 0.10730447621563455
Ni 8.35194261095221 2.4432993704232504 6.396307347558843 -0.3071696946788258 0.4992642680576627 -0.5599011650134293
Ni 6.453026946933771 2.4475376679903116 9.558795514437952 1.0334456597074846 -0.7314793636064693 -0.8448902098301578
Ni 5.766711504200804 8.377549380209027 5.208200760235103 2.2483651798551665 -1.0227586123072836 -0.2282203725671166
Ni 3.103635446311089 3.8551740968782595 3.6629007003931244 1.9004535273722885 -3.084867165621629 0.04399723151655648
P 7.901835409330314 7.554052820398894 5.2609214559934605 -0.17740586101841058 0.6234526645128295 -0.17111308603116338
Ni 1.6830698811086775 6.383416402497182 10.5110580747932 1.5479136320887794 1.418987720948627 2.1686530114355036
P 4.342662151547665 2.9194604584079387 13.096556520314222 -1.9231345139095717 0.5033600353935911 -1.2898869747935076
Ni 6.107973635336745 4.052334110734121 0.24080330086894183 -0.005928192558976887 0.5988356372950977 -2.2355176344685375
P 3.578930244902949 6.835973433262237 11.712498066814723 0.31989074178992 -0.20667555651680533 -0.1068787015321256
P 8.384721883784053 4.514392380001159 12.653580836532637 0.8394775234550188 -0.5541794320383037 -0.38905470238009127
P 1.1406143672233864 5.6875065718651525 8.593185576975362 -0.6917478493448022 -1.325676216577975 -0.257647419578982
Ni 8.691099565714183 0.31076036106266236 5.017197921526115 0.1122602775590131 -0.07598895393180462 0.48602720054209836
Ni 7.830278042494789 2.1061730725175845 13.288977092846737 1.1598166656362672 0.6610933576837389 -0.08771986921548763
Ni 4.895708751880756 4.815469861237536 2.362660868866565 -2.1096533929728443 1.8673006947694033 -1.7886318800125907
Ni 2.6312096491492394 7.220782907532268 13.789866551273795 -0.4817578837427832 0.32822265869438316 -1.2225482403375332
Ni 9.290571825551082 7.861259531963021 2.7713063423549538 0.5641316581550091 1.6046082565673463 -1.1200301297669484
Ni 1.9896059170138405 9.289603071821467 5.615552388598075 -0.6719231013093913 0.3867934171497403 0.6193558687356366
Ni 6.117027756732752 2.3456601724058106 11.882996860238842 -1.2005892195679388 -0.1285189055097206 -0.7174028309087451
Ni 8.032924555838559 4.425844563138558 8.187034644340729 0.8550041583357081 0.030678660030779428 -0.13123836132341268
Ni 2.2768693426635096 0.2413696492031777 1.315968107223225 1.320505728120629 -1.5817349515135986 0.7887344885741965
Ni 5.603224997388737 6.985413010994902 3.092522723239652 1.2890030295266575 -0.6716593061250432 -0.4414244742310591
Ni 4.168547298528967 5.861928817894209 6.574917590480539 1.9674698454918378 -0.7557464636839502 0.6054060914237638
Ni 4.299124123353283 0.6050342103364421 5.75089007910706 -0.22460437308108416 -0.8724506359469297 1.0606096217167864
Ni 4.028227046770265 7.087709678866256 4.631415036056616 -1.4009689157737033 -0.6419939178501266 0.5255003189360562
Ni 0.8875535371929153 1.1205686169721432 3.3050114018787125 1.2848962064471356 -1.5827348535330228 -0.49442390924622587
Ni 8.311897685148264 5.95874830121736 3.505981226075075 -0.605728507760189 -1.241802717691771 0.5914989944243684
Ni 2.4012051578835814 8.2894486804524 3.555442624429664 -0.268942275766511 0.24724679307094838 -1.6526495762462894
Ni 1.0467104600287847 3.6440416734606584 13.4371032640806 1.3053747860164615 1.2495502228476738 -1.0997168721308932
Ni 6.165102160564846 3.6638266054000823 6.289258197448557 0.7734073712988229 0.6120163976514298 2.593609569918527
Ni 0.6612647753767091 4.217068819467037 11.001463568579096 -1.697694789411386 0.12244981649750525 -0.13434888192793637
Ni 0.5582331587624081 1.7617438618809822 11.755142792291124 -1.0456784543282507 -0.2743845298280049 -0.5690818030714327
Ni 2.07005905127034 9.20459493204784 11.112003026597906 -0.3936999144615865 0.27429017034198566 0.3797059141753396
Ni 4.903402892079421 0.430774975752273 8.538707152094137 1.3931435061920137 1.1659037523706113 -1.8245825870755867
Ni 1.9338466879227896 5.563580613992226 3.476682946212047 -1.565436214353575 3.6528675627034253 0.03446203833261162
Ni 9.289919779771534 3.073073129129709 3.6926079061093255 -1.0745984797967107 1.6464552745101193 -0.2857074110399918
Ni 4.502925689220824 3.576946162745182 10.226843428909902 -0.6891404936289421 0.008616023803785162 -1.660562403335463
P 2.554333451740545 4.798535300848707 5.6180609018613925 1.2619431971953878 -1.5899267432957715 -1.0214897728971892
Ni 1.838051847967499 7.932425671330817 8.425114256839102 -0.1472172532501723 0.6020531157911309 0.9192100035896555
P 3.501783914242728 8.393813264938892 7.11501642461975 0.6580630554978473 -0.22589866641247547 0.07902259855180584
Ni 0.6105141893665565 1.6460709405891896 0.8114914655146851 0.35506266170536266 -0.1330713007670934 0.060921518075720875
P 5.0986812881143 2.616929846577141 7.861238107601693 -1.0413281477793548 -0.21651773941820776 0.1809511551675077
P 1.4083536792454507 3.946087908426649 2.055091806147804 -0.4439300142617323 -0.0019370691217127929 -0.13363642924194405
P 5.779323932565201 1.253595270939617 2.944463619571687 -2.0911414502115853 1.76908403978765 -0.7276350501597145
Ni 7.145248061441501 9.162454144809633 3.1794618500147114 0.8457371312114855 -3.0158757260535802 0.7100936988418416
