# total energy = -340896.9398452289 ev
CRYSTAL
PRIMVEC
9.04753575025527 0.00000000000000 0.00000000000000
0.00000000000000 9.04753575025527 0.00000000000000
0.00000000000000 0.00000000000000 13.24198310943333
PRIMCOORD
 96 1
Ni 6.219990919866313 2.0961421604231507 11.564620981458756 0.41885558779160764 -0.4138020845281002 -0.8037438174988353
Ni 4.744111629294249 0.43961795894582995 5.971684011875735 -0.015787858961876036 -1.2331213878676892 -0.17493477377009872
Ni 2.748614258010247 1.5131822810090216 4.896422372081286 -0.19962764853108847 -0.20477782527346025 -0.04085945721852318
Ni 3.34887302602866 4.267152680260762 4.739636718047555 0.191938764527263 -0.16850958697004526 0.4208409936527527
Ni 4.906071569098268 4.567422301076123 2.4773501324754688 1.2072828295380302 0.06080710398504366 0.5378889224083961
Ni 7.212686556718831 6.113989989485671 2.457566790518289 0.03364288486542593 -1.1189620935137503 0.2939241425228293
Ni 4.948205943695625 4.554782893450503 11.362429363853135 0.8769598366711929 0.728749623380132 -0.18520144580342943
Ni 5.898097688295598 8.159357378545202 12.370833332502071 -0.9234209563472097 -0.6041657912587595 0.05264976498523191
Ni 1.7892587908788513 6.641986088423324 0.2730564423927848 -0.0033403772271426344 -0.25137649896860575 -0.28731435051579557
Ni 2.589621909975164 1.501194295966827 0.4201811376128891 0.939921267995078 -0.9910725940579126 0.24658216290375595
Ni 0.504318697537333 -0.197851514643555 4.706054979118413 0.2078317816084356 0.22722484142306673 -0.07245060176124297
Ni 8.585279177674524 2.387083771745302 1.3214876145324204 0.5517695370452304 0.21219648633503455 0.6772380857644014
Ni 6.993926186654513 0.6093108276672551 4.870626942531247 -0.7442662309584924 0.3570449822427141 -1.0757696172866764
Ni 0.6831142921085331 7.33671017857423 2.4889897873862483 0.22345303308546033 0.08500529849780199 -0.10191724376179222
Ni 7.78088990511121 3.949276554621167 3.876233083193885 -1.0206683054371584 -0.76565986614292 -0.6022528905067627
Ni 7.679394647599256 3.763394929948045 12.482039310274997 0.37250219733804885 0.18691585739137487 0.3964468810791043
Ni 8.140529456377045 8.963475225032088 6.846555398458448 0.27868547119620396 -0.13009756285075016 1.0564061251584
Ni 6.923346359247599 0.7135429647831814 0.5866585120822418 0.19826573518655533 0.4841338401741275 -1.8186474525380745
Ni 1.9354398281065777 6.48309326328293 9.14136516126161 0.6619587910078277 0.00313520319487202 0.491720908492766
Ni 0.16498724530976824 4.966671964428547 1.2276320963182998 -0.19460834093962612 -0.6250246369856397 0.4693070595739402
Ni 6.476253326156969 2.0828332351423446 6.994574894977173 0.5903419980017898 -0.37677022858578335 0.9831499967767261
Ni 3.4406059923251204 4.515263256722725 0.6723006772236797 -0.5104930468939467 -0.8751112134982284 -0.9909332402665708
Ni 5.839867747366116 5.37646200708222 4.657550234507311 0.1783386572453251 0.4818566141041765 0.5177664406269082
Ni 5.37004730414266 2.9315916236655997 9.165769984546754 -0.7182410105393243 -0.727717839681508 -0.2534632062943054
P 0.12879800653975013 5.564659800940853 12.26661838570432 0.6378845236674434 -0.16887391228799947 0.9193383016374038
P 3.889228058979624 6.158684816737324 12.595708027314704 0.25449241888976815 0.51040382961425 -0.3470228221200217
P 2.3543859770717237 8.47185022033566 1.4896704495153228 0.2860429400025396 0.21198257055201555 -0.3037439568267285
P 6.452024025067915 7.821015726743008 5.969380509240457 -0.4827662704026396 0.10481667679677431 -1.0750296537968582
P 4.5722355901647616 1.018200640500779 12.589524036540109 0.4611965146516638 0.40718200810842137 0.7028326464040541
P 4.074675401930463 6.180136524310941 8.222689224957925 -0.8939550856776088 -0.008923527741874954 -0.5923695699547799
P 4.779333686478599 1.0955027870672018 3.8344678480604673 -0.19428078239687832 -0.4269383647997421 -0.05063530565836441
P 0.2137851300834107 5.49628757228888 3.530166645256577 0.43564591987606904 -0.017144372989770472 0.2129876147777622
Ni 1.6053314339560039 1.1614955137824976 2.6609101594415514 -1.001790751806365 -0.536396911243902 0.08946487693105237
Ni 1.7892497433429704 6.458990627696208 4.8320129641451475 0.14707507124535316 -0.20968786098056788 -0.3386639086323651
Ni 5.867544159625794 5.719490282470721 9.281385731308031 0.35312225014954024 -0.9663871754960903 -0.5216927722645079
Ni 8.81446230907364 2.4709091916818546 10.36390439963255 -0.4858461948795439 -0.7940214480047486 -0.35237431623992216
Ni 2.4727548890015587 5.192127511044732 6.9741021307858695 -0.05680261081134089 0.155794453396222 -0.04158142298621226
Ni 0.4826959915355664 9.190034571025745 9.176760931134874 0.3379663683447083 -0.24407508021118607 0.2983616094688926
Ni 1.543382955779471 0.9538998029952117 11.475516324335699 0.15222576220835718 0.6650489998973772 -0.6879066212218411
Ni 3.9664759203307614 6.857326489924661 1.5524766340933651 0.6733495493432726 0.9607590306760356 0.15954543579822203
Ni 5.761081804915226 7.840332215848733 8.022271829138546 -0.9782535879163733 0.4626620434535968 0.05326708685425666
Ni 5.31835873165507 2.813638898386286 5.086695670670998 -0.1033002401522479 0.2997482054037741 -1.262727126549264
Ni 0.9050250141665815 7.244217219263772 6.963310229987131 -1.1802142554560124 0.565637039055942 0.308855567021681
Ni 5.013836768975686 4.448745772926337 6.9690970339365546 0.19702826323502842 0.9294442797231541 0.5139246982833149
Ni 8.071931039328051 7.306265220334995 8.96014844608868 0.7845140227349457 -0.2932374008684498 -0.009709513978280052
Ni 4.564789468134781 0.5537725286623408 10.438589094068629 0.22663708724039675 -0.5629512646936627 -0.3500091584418553
Ni 7.959044934142042 6.974899218696977 4.6313576181321015 0.19758722106229196 0.2912414534843436 0.27146221397488735
Ni 7.1168279140606785 6.040605425955679 7.013272532628644 0.45728998050840597 -0.19602681855370757 -0.4634107486941632
Ni 2.38365475564644 5.343746117336879 2.6935780972467227 -1.3126618065961781 -0.6761430529280097 -0.34770287890618184
Ni 2.349482212624275 5.1178924791419345 11.383550836367098 -0.4919898458834365 0.46909314379092115 -0.01300901066515824
Ni 1.0702511144236055 3.303454395906534 3.8737169634654065 0.4716827588949683 0.0797219386116756 -0.03513618158150078
Ni 3.4898245875172247 2.6728230499359347 2.8189136118048514 0.8712969819584606 0.04655136539697789 -0.1144356879437771
Ni 1.3125079351706255 3.433322725940995 8.210294100801091 -1.7827121720940458 -0.0026605775512986442 0.5865663330094414
Ni 3.745263668042718 2.482824796437002 7.0403916166780585 -0.08173871193138826 0.3267653574225663 0.2539596863147497
Ni 4.104315129476296 6.945377109117595 5.952258047585851 0.6711972788869602 0.08635641320905772 0.262923837486573
Ni 0.5769631726322677 7.33812159417165 11.136415584273097 0.09853984264912706 0.40170658681614685 0.05425901845388075
P 0.18163742559139134 5.582003927224541 8.085515009699636 -0.03556941246417745 -0.569418103364929 -0.06588966071427362
P 8.596253838698058 1.8278646264826581 8.108530131473474 -0.4436626195329585 -0.6069757499037288 -0.255785683779895
P 1.958456759387591 3.1204589351794194 10.411615675346898 -0.6601363930871083 0.22204226878086272 0.33750819776136715
P 3.9919537813713797 6.223428983501056 3.822801955295633 -0.06862145782313989 -0.2433502862300196 -0.1651095601495608
P 6.867197351570725 3.865315421646401 10.289868413519134 0.4071303289348795 0.8761550813817104 1.9368217815886772
P 6.4213890685751815 7.717720009590755 10.213356116835113 -0.341235011793651 0.49616840274115837 0.5609617450674597
P 2.3205843830206754 8.386857668270473 5.895013383313799 0.7568432962925546 1.3208569408124606 -0.5265876384629641
P 6.901957984425148 3.924676304560996 1.459716772474422 0.04095921602118107 0.6849030585088268 0.5305139701005638
Ni 5.29949461934339 2.7429866906923257 0.48733647268888086 -0.758799391577661 0.6278250825489122 0.3909033255530558
Ni 1.55551570139576 1.100180363117628 7.09898707805713 -0.6304290958306626 -0.13566708651872764 -0.5016556511079747
Ni 6.8323824335010155 0.7376664097024291 9.21559928841082 0.1384456777051293 0.327552629210552 -0.5885648514967089
Ni 2.7419733666736654 1.5145303638552758 9.194597243370483 0.2174765037870513 -0.25788036152539456 -0.011907807181179493
Ni 6.376259959601245 1.9115543333809975 2.5384879514370726 0.7578344565612303 1.0085931194401792 1.3057185425091256
Ni 4.322496457244237 7.099456645169349 10.56942008192082 -0.8075415939783704 -0.7434979853339002 -0.6246546552407307
Ni 8.004961178737616 7.030595849579806 0.3204003881503664 0.98882802099811 0.4351730940047086 -0.7232238084658964
Ni 7.543826369959827 4.023412063629275 8.271233778726902 1.2881879898245299 -0.7068086003326666 -0.4197482748092062
Ni 3.2237546523316722 8.388793840948985 12.342561592381431 -0.2761436786109567 -0.6521790859132445 0.854818010466831
Ni 0.08256962195628367 4.784183165710762 10.184846426520805 0.28752106720996284 0.686802846634701 -0.19801608106959445
Ni 8.605183756612506 2.226625722897513 5.838601997096378 0.9745691970862507 0.8813525664222499 -0.3449767382242704
Ni 3.564683899395804 2.874800240941181 11.83123557830434 -0.3405459561464264 -1.0240359363578106 -0.07815407990392347
Ni 1.1923114209928485 3.2936740096192794 12.755671175949807 -0.44221560267378685 0.5439035040335923 -0.9434675905854397
Ni 3.253656758418052 8.407097006036048 7.926094713217387 -0.0369899469607879 -0.34709995521486026 0.7456266016411287
Ni 5.599890905661083 7.829013748461725 3.5598163250918793 -0.10581272216145646 0.13849658554772276 0.6911243568281904
Ni 3.0031033472682456 8.313844053711597 3.770257485913709 0.8874494233486071 0.06624138762673752 -0.6435098402740207
Ni 3.399367323779971 4.204941823543683 9.16496203959259 0.5037729545612938 0.6997357526462852 0.024096121717255274
Ni 7.173284537957505 5.965139929173079 11.33303211026891 0.16102896232228397 0.1150077583971632 0.3169116045569381
Ni 0.5086171818343493 -0.05652538516952049 0.3347995415048213 -0.17629668711463187 -0.22707057523338958 0.20367456490695246
Ni 4.663154278231942 0.3158992390496179 1.7539534963643975 -0.8955427418797028 -0.04501410281684506 -0.8614149469580584
Ni 5.847847674013071 5.6531899395354746 0.3149727713754136 0.16809898179518792 -0.12508494012750718 -0.05324908913212765
Ni 7.837943666376176 9.118197136131387 11.208570587676874 0.9972820653027341 -0.1751818567838983 0.737805305824497
Ni 0.13498561632869868 4.915996715959616 5.8300086475166975 -0.17022348433735845 -0.6398940978983044 0.4351730940047086
Ni 7.85545064830572 8.78123070978309 2.5432152889348436 0.7246510278307262 -0.04338376630227367 0.8451776591635897
P 8.631276850093027 1.5127751418943811 3.595542330024795 -0.30737975380710286 0.9190295121477334 0.20085097941522828
P 1.8115790618970355 3.2113595281748375 1.5910508033215889 -0.3941693978988373 0.5358757486331094 0.49137612355883753
P 4.879408480857251 0.9709272655230685 8.11742838301234 -0.07678239636737744 0.02006720306352028 1.1118164836079047
P 8.73298020093024 1.628683124064611 12.424330507412256 -1.1780406448434615 0.04717125836916392 0.961079390129932
P 6.322825212688641 7.817297189495958 1.3860517353321216 -1.5501116681813627 -0.6678286195250435 -0.11282977690923794
P 1.894798296929568 3.166565178028494 6.145631031968359 -0.599454244715703 0.23355618295773328 -1.6261906107238124
P 7.024172099104367 4.0256106148483335 6.052169081565059 -0.2776567728213734 -0.1870546969620843 -1.0072944552334138
P 2.392132296766845 8.394729024486855 10.221050141348233 0.0035242111031745754 0.2985667835011632 -0.44674794332650153
