# total energy = -340878.42353798327 ev
CRYSTAL
PRIMVEC
9.17101775876060 0.00000000000000 0.00000000000000
0.00000000000000 9.17101775876060 0.00000000000000
0.00000000000000 0.00000000000000 13.42271151062582
PRIMCOORD
 96 1
Ni 3.7364010439073665 4.895636035223273 10.779255729375775 0.10246771694862354 -0.7043259431201289 -0.9806979356918077
Ni 0.15008829172307778 1.1619954676721838 11.371532897997863 0.48727701378879945 0.03152429586052635 -0.7562460290281879
Ni 4.607473485088488 3.4215966870782824 12.556007447387222 0.21094307354390768 0.2860349695827396 -0.056904426496527806
Ni 3.4226788671780857 2.4642799945535527 1.575598282104368 -0.17474734034964098 0.5861978939264291 -0.5142532852673273
Ni 3.9624299484814385 4.641369566858583 6.121306796547499 0.4682734761031032 1.0251057723832218 1.1892236580434745
Ni 1.7093584937453359 3.03270884850168 10.355957314930778 0.19411288936044635 -0.48590713002446634 1.653798859359384
Ni 7.785396229355237 3.116623661325374 5.51049316675828 -0.49804479382826483 0.35525883687656884 -1.4756550917336846
Ni 4.475566736143877 2.4491844992630827 7.3834708718813475 -0.9658277034481948 -0.3706905980506067 -2.8901482672460674
Ni 8.7015167099451 3.6997261437454045 11.753919402059632 0.7297448974138658 0.2208744737250067 0.44957512836265157
Ni 2.0356174518002987 5.436726085124687 7.186962556487406 -0.757288097139457 -0.26705791425960457 -0.36392036920630877
Ni 0.45972478002471306 6.673346124594291 8.472455866888021 -0.9958633305783363 -0.1116136451139497 0.5647371529494919
Ni 0.39090087698259174 6.810672945055711 5.558197132920437 0.12693921972742656 -0.9584861754814591 -0.5241304351717231
Ni 7.25529305877216 4.858172427530946 10.20217310303634 -1.1359755973526113 1.1489126171292534 0.419552099638
Ni 5.3656323551783185 6.583094138474294 2.195204166653595 1.3172332280169443 0.9681206132474294 1.6621899116365566
Ni 5.2265997254070395 8.980306479893457 8.596696562057842 -1.1581084246959088 1.4230978864622588 -0.6037893817559472
Ni 8.719611128054515 7.899153534083662 3.211463907648179 -0.5430506691149938 -0.022630078694690057 -0.7476294910037705
Ni 7.502222712900898 5.672146111920776 6.030193651856558 -0.03976956658845409 -0.5093671608196195 -0.7184603256389819
Ni 0.4003204293597738 2.134068327828971 4.309053151550064 -0.3492357706109405 -0.48486351925130045 1.181501092588236
Ni 6.854968961005268 3.8160880175275933 0.247599138427769 0.5397169767560704 -1.5701223069753345 -0.02202586945178787
Ni 5.759793528987011 6.840882277672241 8.734145357055933 1.596472257723773 -1.5525007372388295 0.3903451390567406
Ni 7.670189903815209 5.571916058439887 1.8442669168142303 0.31226639247544286 -0.7672310672847819 -0.07567579356675999
Ni 5.460928401085531 6.826291188360493 5.842100662391252 -0.7345227784184833 1.1183188035027967 -0.17361682628962358
Ni 8.380292640659558 2.8605871865262613 1.9863461586969875 -0.1982055713725812 -0.2347147220422087 -0.557471472526014
Ni 5.112347185717687 1.308447450839568 0.2563629630326129 -0.722147287572266 0.22376002280291787 -0.1820886112060606
P 3.9717201895077117 6.459202859082461 7.666784704907949 -0.6239853970878478 0.7555430894238924 -1.0950953141984816
P 1.2447088771647405 7.994238646581592 10.35948815678183 -1.224627234353749 -0.04086408520421349 -0.48987999862928533
P 8.210115234456666 2.036452014419638 13.094190284647638 -0.32158304189067843 -0.4712225314290981 1.0297185885648845
P 5.723540495643617 3.638491257928595 5.692571802753665 0.2535876476873117 0.5864580895663513 2.648641719093006
P 2.1286024012231874 4.92721184949125 9.282999590622543 -0.513608966815109 -0.14450191120153824 0.46734479364124676
P 8.314444732891895 1.979573362055425 9.09399408488664 -0.37759246737676255 1.1221690304868221 0.31767265109267867
P 2.808128964739209 2.345643708358219 12.31933741086568 -0.7051145004596953 -0.3762984311556874 0.2967850090103921
P 5.6515755190067285 3.4604176054042606 10.47837297755941 -2.1461751420479622 1.2274881008413119 0.5011707410517563
Ni 4.814912736592218 1.2603454625051118 11.181535088136547 0.3280413959215125 -0.27299459145901367 -0.3640684647483988
Ni 1.5221688495328316 6.568237089646493 2.79895794694427 0.03642636114783404 -1.0035136480347426 1.06426007398518
Ni 5.8192767504049865 2.0373966292525165 8.927633656290004 0.5437952605905022 0.2064755246908573 2.8274328904947175
Ni 6.48564290338527 4.559894244768343 3.999846783983011 -1.7437044233722807 -0.5447159726325587 -1.6666849712934326
Ni 1.7176949489209357 3.484326448795667 2.9971839939712037 0.06307378853203331 0.22670856390828054 -2.0262437210969364
Ni 0.6815185085810821 5.738947805539115 10.956194009897095 0.6009632251610617 0.0028778357684273014 -0.4494882250758001
Ni 2.4554024493280515 0.35962954050540796 0.5033302183343106 0.6582908552379373 1.212336332801538 -1.207552024039017
Ni 2.2953223337173876 8.073888936130638 8.352765830748048 0.8418892182203049 -0.2747210872318172 -0.2320862832804261
Ni 5.855924137513564 1.7295530749297923 4.913517685719845 1.1109070844197577 -2.398492150552966 1.0259508939923363
Ni 8.37914626343519 8.965449431065656 9.44604561338809 -1.3404070950302465 -0.8449110357657642 0.5786457926107841
Ni 4.115613458710309 3.211635405680944 4.288221184628859 0.5450332467626614 0.7973741665270655 -2.630612115284805
Ni 6.295922058261362 8.54543515809303 3.593850411709949 0.19590700514639162 0.7486892997268525 0.4168552695321272
Ni 7.065590555683842 0.5929494042264566 1.414042549730498 0.9867634251595974 1.0461854758716562 1.9721870484618487
Ni 0.977850601367599 1.1929293106945136 2.3359141755795676 0.10424949143939465 -1.47497066407215 -1.2999456445810904
Ni 0.14093561596372842 2.3105187102036018 6.86076412714989 2.1384525765927234 -0.2568398360760222 1.2487696359279075
Ni -0.05101195228079041 4.199216456928974 9.184248822311975 1.3578186056384745 -1.579344596904551 -1.0281764408887455
Ni 2.2478806586641666 4.8925087181552 4.576259008921633 -0.6592994990081097 2.448825094479563 1.3906047989305599
Ni 2.337967566463855 3.049464298013034 8.065237915044673 -0.133424313231138 0.033541840511187394 -0.24835056765808838
Ni 4.7332723361816695 4.62381623879907 8.536254052178515 0.0921791905384219 -0.9583437363663236 0.5454999019864347
Ni 9.190827193376286 9.16981639160808 13.44257707443823 0.28679344501531895 -0.25927132833565025 0.5361092048001542
Ni 2.2408740010688333 4.978899705783527 12.799414513580922 -0.289137005546831 -0.8789670969092088 0.35934123447605854
Ni 4.291706171390936 0.2953324518468686 2.3616590567335214 0.0490839020108445 -0.5314308254878782 -0.03341611356660052
Ni 2.7905022685373355 7.441831560721224 5.953147014259494 1.0293426932827048 -0.8637842185211833 -0.6657719941063308
Ni 7.418509662468693 7.483192850976399 0.6560753539125823 -0.11324732406263076 -0.8213615305805985 0.050577455837235476
P 5.053790237097 3.939263957531422 1.6468864376279895 -0.12626121982379546 1.3813465135570855 -0.8393852208515286
P 6.112978595287915 8.508686889788708 10.47315100002697 1.1395651144760826 1.3126844323039972 0.8850210164127726
P 2.762897504974568 1.5852562809442186 3.5254887279646927 -0.05972029867876812 -1.1159595592420006 0.8203935102403742
P 3.866831258986992 6.304836287558044 12.332021845577861 -1.0210783963913834 0.08288490972068951 -0.017300181841344398
P 0.650610344408578 4.858502584171564 1.4487539349825636 0.2636602014319653 -1.7016316625719468 1.3431378636978482
P 5.726952114263334 -0.11499906053786081 6.428069087872201 0.3385091282220557 -0.20815522638612535 -0.8765736569763678
P 1.1526135164679607 8.19423103163583 1.5409006533789948 -0.35994724349117363 0.14722470944934002 0.1262769035530793
P 3.7048894267639554 7.186015190349188 3.732547382229933 -0.6048538184647195 0.7456086039189997 0.3955333681258994
Ni 8.234840298431823 9.329584692613716 5.216575802957171 -0.18809856484556636 0.34064880027287786 0.4027828505994612
Ni 8.409759120834698 7.619941897316738 11.455545840711961 -0.33928200183233825 -0.310159373434769 0.212749273514711
Ni 7.70784610288123 8.125980317205894 7.267660176268635 -0.2690888286467043 -1.7506317466197334 -0.1695729952375531
Ni 2.467187207194548 0.6216592754335138 6.7755699573438015 0.7460014684820443 1.3239013840657392 -0.6628687044166068
Ni 1.178246511204816 2.8687127082925774 0.3517424652017602 -0.15273201242081438 -0.38919148506827167 -0.27023554065663785
Ni 1.5096412392249448 8.800958055895626 4.420259996229717 0.400451117142491 0.9008512985768098 -0.5200205267684077
Ni 5.748146336387438 2.341837735973319 2.7428771731282158 1.0217170584166468 -0.856637323063757 -1.367872904550683
Ni 2.534502477809402 0.6131173894593075 10.93494659586978 -0.4302172926613301 0.07084957582271025 -0.0010718929079400895
Ni 4.05200327928461 8.382805499535372 12.457685882709457 2.4736418964129268 1.7127362571255405 1.1485814590420798
Ni 3.291615851870609 7.352780977932364 1.318930841280963 0.10823881510444586 0.0071180991020199985 -0.6529655863702819
Ni 2.5144821459630498 2.6756811257446964 5.608424963179759 -2.036107501264893 -0.5465751373284844 0.9391684489894535
Ni 7.086766435772356 2.0306834442266215 11.029522716880091 0.8208226273579929 -0.7036253175086785 0.4615343576070568
Ni 7.1838324881139926 1.3058520528036002 7.3267875621961664 0.12178338655809995 -1.2270499848626286 -1.4611419857191739
Ni 5.825989935430882 6.614055494550009 11.272567527870892 0.13919515427664414 -0.9384176868663581 0.5581836681016902
Ni 7.105888007874804 3.6420862969042114 7.685549524418174 -0.7071150758294918 -0.32932026263393605 0.058091247715777374
Ni 1.9502536181650045 7.455129536523884 12.356317705920214 -0.7435008135473776 0.5531013684827765 0.24568433367983494
Ni 8.743254011929867 4.507408509927906 3.624534803048257 1.8888712218513277 1.1076957765713116 1.2861660742984946
Ni 3.5808330690518124 5.2428966240286465 2.7638705499626113 0.2376900026204487 -1.3555552635255943 -0.7698597631568805
Ni 1.0167632298715261 0.9478705441959429 8.75607784611253 1.1055255083928701 0.6948190320709582 0.3196701411386817
Ni 5.371804450154312 5.585443309687422 0.16359444962968472 0.46313795464875074 0.35274378376419896 -0.30496883037276507
Ni 0.2335335484356707 6.329222023874787 13.47130161927376 -0.224452163773936 0.48283954684273617 -0.384283506243693
Ni 3.546790250996998 7.632331942357701 10.336266222623266 0.8462066146487363 -0.9386920235736673 -0.6318768840207828
Ni 6.983895129166523 9.169972298910595 12.661308156606934 -1.4549320002537203 1.0959442924623384 -3.390361272370245
Ni 4.169474846219986 0.1219130908534655 4.755894485776445 -0.9938290737571271 -0.8106680554224941 0.7068209416278407
P 7.030438044475839 6.5425398977850735 3.781660933827171 1.0118859312588377 0.7397729710738292 0.5323841905400831
P 7.7778117976388215 5.542412894193567 8.133559246311632 -0.4287245101658874 2.764395868737891 0.42799354553713387
P 5.466137539193057 8.294635334454826 0.7734350344308604 -0.7547234217360743 0.6007637075557459 0.33961084592666674
P 0.7170562025364716 8.652066581994786 6.546417404108774 -0.5402502235517211 -0.0667185843734722 0.85521987389094
P 7.593767812529982 5.5267579668176054 12.396934309530442 -0.39092569415055906 0.7030136520666087 0.05537410589493044
P 0.6076890640264829 4.186496255247393 5.703846652030764 -0.3879383293874609 -0.17479233465496347 0.19032308330071093
P 7.661028057038065 1.3382716007087103 3.496737587177558 -0.04693163155453208 -0.14830225878423492 -0.4819571442377828
P 3.313681320685233 1.019230233658365 8.866009919318689 0.2904536674757256 0.6853200914415875 -0.21679027635330406
