# total energy = -340873.0035372653 ev
CRYSTAL
PRIMVEC
9.23052495261033 0.00000000000000 0.00000000000000
0.00000000000000 9.23052495261033 0.00000000000000
0.00000000000000 0.00000000000000 13.50980630390349
PRIMCOORD
 96 1
Ni 3.182112668973124 7.4955830748305745 10.643376652484372 -0.20873038216330503 0.7880827139228106 1.5849498589064706
Ni 6.078254448176463 4.568915950013192 12.843177792061686 -2.3312966265430752 -0.987840717384176 -1.532001331733897
Ni 0.9433042545151373 6.8663012750447265 7.335838689063657 -0.24777695454280554 -0.687224764663468 0.04539102654028957
Ni 0.8278654648815267 4.270373085424439 -0.02418028284564509 -1.7525788430437752 0.7319840711570296 -0.25310093785888027
Ni 5.4591723783281765 6.989362632083259 10.577543626341669 0.11416340811899693 0.4066829569848157 0.04709901037033179
Ni 8.110492947455532 6.323749486565062 0.06554041850558039 0.4152030786406849 -1.041820256924425 1.6345176425322687
Ni 9.177569309421141 5.054921543381991 10.126315881376268 0.29311835879208226 1.275147611700804 -0.8556353641618037
Ni 5.358411969279825 6.0771560157216475 3.0634025813396293 -3.424559001297877 1.2438696275231287 -0.03657548513118862
Ni 0.4329079223345611 1.1084198826808493 -0.002119328501053639 1.2327120682444126 -0.8683656672442787 0.8194360314231114
Ni 2.9105598589883814 3.799385555954657 0.15822319527487255 2.704007854568137 -0.1346684700508842 0.25602993858021716
Ni 2.9006462753205606 7.077126462170445 3.3901373148653082 -0.23246217856260612 0.5647566933335176 -0.016559189910261802
Ni 5.087763750728459 8.05770357595063 5.3928039817453115 0.5650659970438203 1.1636023579309445 -0.08952401230376195
Ni 7.36453731381377 3.2323821071993355 2.8291429377745594 1.8491073116898284 -1.0187034684013034 0.7905556009433353
Ni 3.132729361130629 7.533705142380016 0.9354906152462266 0.16495118019482558 -0.7870092783529736 -0.9424352926661833
Ni 2.0448658572470197 2.335830460950037 11.536225935224207 0.2850818616408509 0.2566763139149644 1.0522777048123233
Ni 2.563547508515339 0.12354872874957641 2.3431271908284472 -0.5546787402722253 -0.11555231804672357 0.5307055172860795
Ni 1.8196041292865972 8.492876669078564 9.084250549491035 -1.3567107172862765 0.11033246440868096 -1.010977817622272
Ni 5.247479521868402 8.755328181580559 1.118998064136457 0.08247147633235474 -2.360504358455283 1.4447357764470086
Ni 7.351817650597515 1.0470553536085299 1.5737841764239682 -0.7759607338482959 -1.1435459535007015 0.31559879928278556
Ni 7.838007854462921 0.37460885055840837 10.54701089630776 -0.7682070580448059 0.5159389004998662 -0.33613342890102754
Ni 4.691709621831644 3.8586455253656515 6.8531062397997085 0.6126144362467449 0.1633100450469768 -0.21883610313873925
Ni 3.713430908734224 1.391418543455255 7.16299341940499 0.19144305583776705 0.08593140985649718 0.23816694225686727
Ni 7.91023671126059 3.052165340411133 9.755957687502246 0.3256304724871747 -0.41943331467194855 0.2924349595718125
Ni 4.7138536508997095 1.5210889562723346 1.891440688778975 -1.6181307165338132 0.13984924292087528 0.7958993817537519
P 6.9870180787763445 1.2285643938729842 8.676267813355931 -0.13134531921492218 0.8357072577793091 -0.6247713833242531
P 8.872565077451126 1.9084017781547853 11.768851775894303 -0.25878487561753494 1.1129004607007027 -1.3969219993978392
P 4.516043503784816 8.746596105091026 3.2920556041227305 -0.29540406950246545 -0.13192561719842438 -0.08269644785896725
P 1.8311422853245636 4.529593914235804 11.490711140338123 0.023787332227584838 0.06881994698719116 -0.23988263939639332
P 4.199759570472086 8.048685353191354 12.496625121725195 1.1884556695291983 -0.6727473969828994 0.39577350916116355
P 4.334829840314933 4.883427622558491 8.865512956480721 0.003035444392214127 0.6633446156117608 -0.15521981183967462
P 0.12473577424276237 4.107020487501328 8.27139207187873 0.6839239824250093 -0.8271418847078014 1.0528641734434125
P 5.796963434495677 6.093872496189453 5.386008469365191 0.11945756663840072 -1.2611826648802795 -0.4251586471915
Ni 7.785993847043769 8.393546991378921 3.653146351067058 0.6815467404420843 0.2047865670242086 -0.6454823906193593
Ni 0.574830933811478 6.292125708496204 12.060541898848987 2.1503269594328067 0.648997088640837 -0.5854700146214691
Ni 5.118898310981306 2.8696317118905075 8.994409851317016 0.7622338711805067 -1.209131709821311 0.6577429531542672
Ni 5.703587445311623 1.084798969639925 13.155659672196785 -0.45891954569202903 0.26795728614542236 -1.3383345287719337
Ni 3.0864567401559686 4.543836614049069 4.135297277266693 -0.11690806074366962 -0.09031205542269607 -2.2573702115672543
Ni 7.900138517096162 6.546242057076373 8.116597093525858 -0.4677597696914783 -0.14454767683780914 0.23068734605037047
Ni 3.221951614141014 0.3701865061121766 5.042062499240799 -0.5201848202604138 -0.31798041214108463 -0.4779112563031834
Ni 9.371382639284484 8.468323473029772 1.6263243237584513 -0.9678311070314686 0.2629634324752568 1.7413881165342784
Ni 1.0556028196014553 1.5265165048725942 4.397941707737643 -0.7730579583792041 -0.8976495038100606 1.7514604131686158
Ni 3.475984887997709 6.239022499147069 5.5013014167064815 1.4806078077532694 1.0427383978633205 0.19001403670072436
Ni 5.208471323935246 3.6450973334149728 3.1046611812264304 -1.9678465121049655 -0.056059047777097006 -0.37833731596258713
Ni 1.5186520977171163 3.8907308296760283 2.3440188595270612 1.5543879269592134 -0.2430281270039105 -0.3012592427316618
Ni 9.059843195734564 2.3032467082988206 6.883880809584172 -0.1227794319227821 -1.0816368747007308 -0.04509740655927072
Ni 8.94022482445776 4.626449811280907 6.343840646910852 -1.7878564352991466 2.3447676644463167 0.5661409752755541
Ni 0.14418356700787524 1.904035739910019 2.3855746823134005 0.5979694326400605 -0.3512643710051951 -1.0709837658622587
Ni 0.6890346792227848 8.966033371883483 11.323190037401613 1.1132778986447793 -0.818995344341267 1.2133516614399296
Ni 6.016622233884062 8.596775456569242 8.077067370939785 -0.09083733179854678 0.4274338163789219 -0.6365334089561877
Ni 7.432418593416332 9.21393757725281 5.743828841362117 0.8932107513124165 -0.31064814014572956 1.1726729527736448
Ni 7.839152439541888 7.320876931366105 11.307721523890875 -1.1861964411813766 -0.860118596744138 -0.6878595700339896
Ni 5.804144782813706 6.783808074635683 0.0142371614983673 -0.7699523228706869 0.3999096428167242 -0.9005350528879716
Ni 3.960827435237881 4.068612273682146 10.904034674011825 0.02255525959269664 0.03899437898532639 0.5467121771269811
Ni 7.710746608626569 8.63903279924269 13.26446817584474 -0.29655001018145055 0.9588052493837745 0.0948744779823979
Ni 3.1893586309649673 1.1304716065006106 9.72742521219908 -0.099609421564222 0.4662867846903776 0.2362465853057028
Ni 7.166099491010411 3.701781986398293 7.6991438389147895 -1.1364556223128233 0.5076794887045515 -0.6551191423781749
P 1.531094845188459 5.227024678844296 5.453989438635922 0.6758939130316811 1.6789308785403214 0.24816930488521777
P 3.386716482363172 5.458738543661148 1.755005224313715 -0.22037130883634307 -0.42161952368998995 0.4259361487874728
P 2.3158925273164312 1.956354354648573 1.1518310409580936 -0.722373287540143 1.1059422842153146 0.8076956030577317
P 8.802754618159016 4.52332638787598 1.8165552869351251 -0.46633614987107425 1.0798905814335855 -0.011030289672232617
P 1.0260282180449403 8.685914634856154 3.825976851885996 0.12563901285876425 -0.3623309132320018 -0.32243330570611567
P 7.899760065578117 2.2399160774376314 4.800480280327794 -0.11759094574330717 -1.0390146691548299 0.38129177060522074
P 3.9615197246001586 8.44969627392208 8.937169520738907 1.842876243178452 0.19760958965979514 -0.6997334386534402
P 9.275662096793516 7.435861579178061 9.746527783335535 0.16766112292682092 -0.4726196688869409 -0.5048610454191498
Ni 6.5759181944060225 4.053658823456942 5.020365227574524 -0.1060027266850755 -0.3658561527764409 1.290227903072694
Ni 2.9275624857259284 0.45390828937614275 13.264846627362784 0.2817363422073858 -0.08646877041720592 -0.9122834516731515
Ni 6.51201527100535 4.916112910982842 1.4499133023578117 1.292223336236168 0.580884966353948 0.5807384134737548
Ni 0.8113815936394466 1.5843826650342023 9.682167025903276 -0.5622637517083348 0.24265377438362729 -0.6381172085035398
Ni 3.0018589800856 2.2141352215863996 3.4011880991922308 0.07362713856784739 0.32379984703633913 -0.21879110883341676
Ni 1.2308997166550686 6.217718447838568 1.681430556995778 -0.7547671304898163 -0.24932270176337062 -0.5771067302584384
Ni 7.408474612006345 5.979312452519695 3.743647954818933 1.2148105053736433 -0.7110810024557754 0.4073244472235566
Ni 2.2209196573367236 5.7709425849988545 9.579357440342584 -0.4590100485233063 -0.7615733547783723 0.4349589211113734
Ni 5.599208670529766 1.1884116108608618 4.26253267763352 0.12971986779635722 0.08281034772901223 -0.8110766037148225
Ni 8.83184000189952 -0.07128365105503845 8.219906050479876 -0.9234482100407193 -0.23510372995051126 -0.26839128835904746
Ni 0.3314146096146779 3.7226060504156147 4.449927100529821 -0.7011120641685216 -0.18714622823462607 -2.613425061982557
Ni 3.0598174454955123 7.9379375162765395 7.005456052125014 0.7776972569234284 0.9166345295529956 0.3362072195617565
Ni 0.8683376240527801 8.983202148067978 6.1455025137756625 -0.14571907143809099 -0.33665073485707825 -1.0656505265748033
Ni 2.147223147091026 3.2406618879721796 6.055540895726363 0.5084546763076792 -1.3039845905371543 0.3368888190098134
Ni 0.3703369636669117 6.5677676409808035 4.0717340371797786 1.2457868991504994 0.23694206871083062 0.45989245112825955
Ni 2.7955752111764247 5.265285204266191 7.390106790646386 -0.6774077785730463 0.729983238676917 -0.08091955846420257
Ni 3.394617811617971 5.907000520998553 12.44253147706176 0.19857503889685804 0.05303234513563125 0.6238560705988352
Ni 8.090776546417855 4.368798171690706 11.99700542728408 0.8040641769527314 -0.08011351762313944 -0.524399886783026
Ni 8.147525813074989 2.8892650382047105 0.3120295844184116 -1.358763228939931 0.11990211037498706 0.13377526881265348
Ni 6.52907328089188 2.3972688342210002 11.468352963093992 0.23217138679506466 0.6624223609078076 -0.08532540084138207
Ni 5.419268819486474 6.421029987752363 7.483878769345662 -0.9019776988717692 -0.9340822927157977 0.2083773696992605
Ni 6.140938942299526 1.7598457115347625 6.430208821643687 -0.05478583749162823 0.8872751025542719 1.606097696628679
Ni 5.368224017174511 0.45226802511378544 10.212427447518817 1.0088995949370045 -0.016976222843022377 0.42349874299057383
Ni 2.6258258595458654 3.290949787248052 8.74318173395627 -1.0158816826817925 -0.1636676854967117 -0.16661236994733242
P 4.179803175788819 2.958429360758695 5.006356060039467 1.2682143749160804 -1.523025610597848 0.7386892510913472
P 1.6139664971155478 1.1526156355686754 7.5981443592733315 0.2175875754436188 0.362711179389556 0.5865038552026222
P 8.399602215667645 7.039567456635657 5.964282388938398 -0.36803567692626293 0.9147370554199665 -0.06716184255847787
P 1.131570038955425 7.8926064088345775 13.41768288834665 0.48958637864826654 0.38594572443746433 -0.8015367825451872
P 5.947337914507282 2.7990458885126452 0.9494702451018265 1.3959388095489635 1.8148525042720163 -0.6941847409210691
P 7.087058506887927 7.579710078134594 1.7650424970142626 -0.03296951294748515 -0.28565264654265643 -0.5773237313652508
P 6.623787696176337 5.215929587998187 10.51403392329877 1.2303487102185584 -1.0543333017897714 0.6191463238279917
P 4.400218878213296 2.008894501983056 11.564367036274565 -0.9836732162700478 -0.6455551528388237 -0.5099163484548702
