# total energy = -340890.3248086965 ev
CRYSTAL
PRIMVEC
9.12090276499666 0.00000000000000 0.00000000000000

0.00000000000000 9.12090276499666 0.00000000000000

0.00000000000000 0.00000000000000 13.34936315155269

PRIMCOORD
 96 1
Ni 6.498934968960097 2.0984095767892157 11.126360142936319 0.8632491719533197 0.42137089801429367 0.7833585689742638
Ni 4.6628243090438835 0.5690512888213114 5.8548432782057835 0.44696520154363023 -0.12747349496434174 -0.25508685794065744
Ni 2.817410328479139 1.5250970022747734 4.413993316945019 -1.1934682922524413 -0.5641483703255574 1.5591292982989406
Ni 3.8198248865531927 4.231232319075401 4.623885351678482 0.13321913919886735 0.8246461148691411 0.10889830306531567
Ni 3.6905178504412044 2.6492482473056382 2.589456170333631 0.09090829424579827 1.051607675328492 -1.5408358993063915
Ni 5.171807157544511 4.687678768619617 2.1223218471267202 -1.0973355163829102 -0.39945892843255076 0.9465644843432085
Ni 5.312278178434737 4.5771060664410435 11.624518304235302 0.06827024513130822 -0.39932214574437036 -1.59109171013815
Ni 5.614152691674384 7.846511843997257 12.36871828561911 0.9058736914920658 -0.07183713654696015 0.08753732089103633
Ni 2.0350010619376575 6.4354534868877655 0.2782659689586096 -0.3819083211432971 1.3441457361370721 -0.07530786870437998
Ni 2.5534514073335552 1.7330809441850272 13.49553830674974 0.8068414825875524 -0.1761341933948386 1.9124389818689385
Ni 7.954950254968227 9.286173351649685 6.9266770259425545 0.5299388143233841 -0.8867516259506342 -0.5950715422669751
Ni 8.905220612897523 2.445934207524843 1.1129617217253565 -1.3237090655492751 0.9140433717870516 1.074663271596375
Ni 7.116711943632961 0.7482359807828031 4.655830400932812 -1.0410152445246266 0.7293528041817697 0.8471761776508571
Ni 0.6619020772546923 7.584003146364534 2.659152635435285 0.977889262598419 -0.6283357036367437 -1.1049308122316648
Ni 8.008991602853078 3.8252883072085555 3.556229889421213 -0.3381072647979467 -0.062316855761350744 -0.14509455048021463
Ni 7.691073421946013 3.783158858114864 12.355195635429393 0.4577255253839278 0.6569050306340041 0.27708393103703893
Ni 8.4482542719053 7.39798233790689 9.379543119440813 0.4352319722671021 -0.1292454992631 -0.8022813740206958
Ni 6.853619508234053 0.427151934584458 0.13121239266441795 0.3374025254214382 1.1599737600394215 0.15175962120521605
Ni 1.972285735683441 7.005783526253119 9.070291620181036 0.4644921546838001 -0.5278438794675684 -0.12934114430069985
Ni 0.18751025185166753 4.947907240603191 1.281190385487813 -0.3359141138013699 -0.04676065319430656 0.6693072609530989
Ni 6.651719208355732 2.223420667778206 7.046581323567709 -0.6818156778327548 0.14805671843233212 -0.37450740069353566
Ni 3.183924678420886 4.4074481572417 0.2955108594979999 0.7330456796523246 -0.8282996524613283 0.24996959131875016
Ni 6.232559008626414 5.8463799926863995 4.760168966186609 0.21100169469598498 -0.033295014607703954 0.6695880254183113
Ni 5.20541768361298 3.0855466230139657 9.178901504120821 1.5365401001445151 -1.004073891413587 0.2503051202812979
P 0.19857299461108283 5.575553031885576 12.397325996613343 1.3187481219995738 0.28398605747351086 0.13146204729844457
P 4.174865141028417 6.15865233488617 12.555329216474751 -0.3242683020323254 0.17717703283705613 0.7093120834808107
P 2.503085783195134 8.42612696220595 1.1205256862487163 -1.1972565556502799 0.7019008786184041 0.5527293298553383
P 6.553915769812397 8.06879736117898 5.715449435912216 -0.01398782963865978 -1.0968328657148787 -0.01166020994674766
P 4.786148033052503 1.1054442738052392 12.49083896257524 1.7238089699999344 2.1910565759416842 0.20564505836976196
P 3.9661515269104353 6.323430561196332 8.06871527305561 -0.8142804553641009 0.5836365609571561 -0.005247621552184511
P 4.795159484817943 1.1629150810664115 3.707558432762431 0.9651859560991377 -1.0922257059601708 -0.9087273588907769
P 0.08074187814613569 5.694881800556884 3.59853445984476 0.8001352742119704 -0.050238584440577994 -0.6354419756642218
Ni 0.5528252031019613 0.26238465335741085 4.893022209228155 0.5434844142183027 0.43242072807055204 -0.5916458044148778
Ni 1.9808776259294374 6.468617088729 4.543228297926494 0.046468575875184485 0.6920245000449566 0.2700144257847672
Ni 5.883702726111683 5.817557940481146 9.138613565261382 1.2022239269578845 -0.07548450349156033 0.7683762366328186
Ni 8.902010055183519 2.6316357843916047 9.914452133572274 -0.5075177663157067 -0.20280476070748943 1.253096031217403
Ni 2.5926712884989325 5.417478668983914 6.53993342613181 -0.01161804385490257 -0.7332369697275243 1.2630600844086506
Ni 0.8293937720873437 0.4500298945675081 9.266406531542335 -0.7395497993194295 -1.3037436781709417 -0.18201610609691235
Ni 1.5943337738855587 1.0584533836275596 11.579157319351635 -1.005699599942468 0.44860942201527254 -1.3654426978426355
Ni 4.381371496718022 7.147394659967921 1.3746103182432219 0.34501324788916066 -1.0865291697960255 -0.44430179577885415
Ni 5.567955320022609 7.763256245095499 7.620430207154831 1.2465016658293373 0.8070679967760617 1.2656180749438137
Ni 5.810635175410327 2.8715428853899563 4.647727391065993 -0.2751512327907003 0.6105963773754516 0.1317024454440248
Ni 0.7381081305395392 7.890967123253083 6.992395865421832 0.9752978477221591 -0.694304811438701 -0.17071456504116406
Ni 5.398215322699896 4.9541824215896515 6.987897436261188 0.13004922611131797 -0.13069200190163946 -0.6731117223008536
Ni 1.3288242992985528 7.531092790401661 11.395830825521028 -0.707913146250755 -0.02519835364249854 0.339033633266958
Ni 5.059182252281703 0.5628490750556239 10.307096045272758 -1.2106337482881344 -1.5775458531329154 -0.827595170195136
Ni 8.563843470512003 7.391324079011373 4.831508105845911 -1.1939359759174792 -0.5105670946649917 -0.11058648940101601
Ni 7.673059639317729 6.437177337478523 6.977858970863371 -1.2450844737668365 0.6640192730812823 -0.4686005204252188
Ni 2.553633825385487 5.436140035696556 2.459019054389924 0.5764724391085492 0.10256053377274595 -0.27118093528904264
Ni 2.442595957174487 5.259331338861479 11.467222866415389 -0.44608999802752847 -0.01724001802737031 -0.9674703812579404
Ni 1.5841366047825607 3.7208448515748973 3.849476028804477 -1.3593707806169428 -0.18802117464041165 -0.0851791050715049
Ni 1.3708807811714723 0.8759979359949275 2.3812323486850864 0.3487655158427413 0.5479789596545466 0.36206917493018287
Ni 1.4347635829580538 3.8877026436770845 8.21156684952355 -1.2440727446728703 -0.5598006348798229 -1.7912382072871857
Ni 4.162141481906161 2.964101804940246 6.919975898804833 -1.3199400854251462 -0.44380660130999044 -0.5428262118090135
Ni 4.184934617495063 7.260274950503434 5.79963080642753 0.003470732157419829 -1.1740721471140165 -0.9216494662690835
Ni 0.3043034096011216 0.40968540611197035 0.24676328348021526 0.61585968265692 -1.4544036385540757 -0.15652953179003365
P 0.34741974035576584 5.884231738462286 7.93391380521943 1.1250134419141529 0.21789430805076024 0.33503891028526817
P 8.69696304390937 2.0099003379918163 7.885334965899682 0.45393520510356017 -0.9324452713330071 0.2267581861992933
P 1.8127611492689188 3.411965485141062 10.26755602042624 1.0390118409413525 -0.14645337850095422 0.9765898270607051
P 4.46653336426247 6.207047844063726 3.581006821324875 -1.6702240947949427 -0.43959436300085586 -0.24683361679292978
P 7.019683781810338 4.180629551469468 10.138066566262319 -0.12854358810006894 -0.4591064648918545 0.3372654856229418
P 6.541830573871903 7.658885756682613 10.361989285460131 -0.8889566040217529 1.5539433832226268 -1.4271697425387873
P 2.518107909771733 8.574724707309747 5.509602521480345 -0.9123574994441964 0.48708623793423206 0.46683571521531214
P 6.898868306015784 3.7889779939714936 1.1553565890846096 1.6931645056412001 0.5876122577754525 0.8021409917880895
Ni 5.155015575864172 3.068727678625837 0.17793786457653654 -0.10544685418160549 -1.3670915462999682 -0.1775750396064232
Ni 1.5418429794421298 1.176860941136612 7.027665483672622 -0.0037975193692192668 1.0497611090380565 -0.5956857788122063
Ni 7.327952047770201 0.6333746302033088 9.106988659688195 -1.0033472976602076 -0.11657895953902504 0.8709704518569774
Ni 2.814965926583251 1.7134527617971456 9.1784746458793 1.1869389757743558 0.5197269067873888 0.2886693218817932
Ni 6.305462383081033 1.9972952506033161 2.2858915538428337 0.8309376043048077 -0.040837088621019986 0.28516773648643795
Ni 4.194830796812373 6.936856865330619 10.430271098569055 -0.3991321412207513 0.6159702400928552 -0.07736809366751836
Ni 8.636737724064025 7.263813860710915 0.26606584964539837 -0.6563080204799535 0.16910916822725713 0.5932231762043266
Ni 7.8792650052216455 4.192842440046315 7.91581154983596 0.39979060074035666 -0.2755548959870222 0.9102065145394647
Ni 3.4752098237458813 8.68124772873543 12.372310097061652 -2.0335225141465365 -1.4131752280319083 1.0515940484817374
Ni 0.1525835795385098 5.023337105077068 10.091904766130673 -0.3368911330026585 0.6911472396463257 0.5091324191009942
Ni 8.79260482853731 2.4775472559246556 5.734298693218348 0.3257518285563874 0.5591362618229466 -0.37066051614361967
Ni 3.529387985169681 2.895366682972273 11.589115520806601 0.26503111363756293 -0.3238322429361713 -0.8792185507983826
Ni 1.0607153674715162 3.4800986275376586 12.625720694354268 -0.276898040278478 0.18918279904868063 -0.8797019181927044
Ni 3.31471842165612 8.805757170081607 7.840147278165351 -0.10171052706762483 -0.6195137344697395 0.19739233144266652
Ni 5.683179682525449 8.037467060759662 3.650062999064248 0.44876780197000776 0.8048455352034461 -0.3395483681198475
Ni 3.3052509247608497 8.304828078573776 3.253159625851152 -0.8526603406938799 0.17880891201352433 0.768826951016992
Ni 3.485279300212527 4.464645337424974 9.120658156409718 -0.07192558249570838 1.1849414857283527 0.42397593973730857
Ni 7.403290703218111 6.287457721355345 11.700275609112397 0.7319182509161007 -1.0743578245408143 -1.4403875267806419
Ni 7.979905044472522 -0.057614917522198494 2.698680803108427 -0.061982612350383576 -0.80691270214512 -1.7978999355780778
Ni 4.471203266391929 0.47399506614007275 1.3087875004743434 0.5259561755265523 0.17191295622463942 0.07925399783632156
Ni 6.247927729501684 5.689673765174226 0.20132933137577513 -0.21133902343074568 0.5177844383490373 1.2395656008311362
Ni 8.2677516095186 8.765552231435796 11.358398641264584 -0.2650154299082791 0.5953402225473295 0.48948764828687313
Ni 0.18318694402087943 4.998893086118181 5.724326810409487 0.20505421886329844 -0.41063731364687345 0.24039660291833437
Ni 7.1920779617886605 6.022449896411152 2.590110139049807 0.8986213808050265 0.6757113647072299 -0.8290308742003981
P 8.693442375507082 1.769619279987004 3.49589147038367 0.6215397637608328 0.34136408117234757 -0.23435373915836413
P 1.7847782201025522 3.276155245477698 1.6040329417067825 0.24469034519768182 0.1568185237853622 -0.1619753853959533
P 4.980368532944489 1.1414900808669999 7.952362654901572 0.13978522245215927 0.26112997881094385 1.4204607059497278
P 8.57423217856953 1.7404141498726933 12.09531010938345 -0.2534380094833248 -0.3430507248461511 0.2679999664578997
P 6.520907223315305 7.905587930115432 1.4824732002603456 0.27767091388876053 -0.6978241374458692 -0.748492353224698
P 2.1108504879309775 3.1174880239072564 5.914328892850545 0.12034536855999274 0.7398434193004483 0.49388397758235586
P 7.184243106458182 4.166574240568108 5.807854212208624 -0.0847535874983121 0.01775578132152426 0.1237878185826384
P 2.842118853613327 8.838838683799473 10.354687090841294 -1.0461121994315596 -0.010951871025813397 -2.287905918262266
