# total energy = -340875.1316458542 ev
CRYSTAL
PRIMVEC
9.17113694795848 0.00000000000000 0.00000000000000

0.00000000000000 9.17113694795848 0.00000000000000

0.00000000000000 0.00000000000000 13.42288595606582

PRIMCOORD
 96 1
Ni 2.777396257762053 6.600513053690347 0.8222621201221995 -1.1953685945989478 0.5127327348577427 -1.3108520070809488
Ni 2.4991898211196832 4.491298314123551 2.2039975218992574 -0.2802510159111109 -0.09018787114000597 0.9681794915098229
Ni 1.3816501102042615 8.89037167598484 8.971843470278973 -2.6080296019985987 -2.146231449207194 -1.2601136001858169
Ni 3.6914559551688453 -0.05435090837229851 5.451221949852573 -1.0010883264227017 0.7503067807256175 -0.6433141793234469
Ni 5.099207120876129 4.253756698317583 8.85643388403511 -0.7914709136687531 -0.7173933178270483 0.9820336237840958
Ni 4.430741297438217 1.9856703549282804 1.9436610454282295 -0.705315817837224 1.3795583113084113 1.43831624607391
Ni 8.826448852071957 5.776000336582749 3.940328510565109 -0.0005335039059668231 -0.08977957995799377 0.7009919936508896
Ni 2.2262201036242657 1.6064713591856705 9.529054232470516 -0.8774426898448824 1.8617149731515097 2.0931188856529306
Ni 6.113021273907087 0.5544530013377976 4.616506342988435 0.023193921617960054 -0.27547622023028684 0.3527054743270958
Ni 6.738813797536298 5.950591268982973 7.671421202128371 0.10038949426335614 -0.052234788935000366 -0.45297232696965856
Ni 3.378481738690932 6.6971860073296146 3.220861995049788 0.9775902433007616 -0.6908847300135585 -0.13036907134458192
Ni 6.992762577184466 1.4972981460064794 2.273917352204771 -0.9956360450588788 1.3166614146738744 0.6052294566365835
Ni 1.0220956896153675 3.971689213057233 10.19073524885954 1.2570136211042544 -0.23923703539259442 0.23047265893640306
Ni 7.984538488341298 2.9961553852791267 10.553381259683876 -0.2719944323292735 -0.31387281773061426 -0.13136768781242536
Ni 7.885325129791862 0.6308788361316615 9.004407425927104 0.8947212744196721 -1.160724779272833 1.0786088865076844
Ni 2.3097049624591257 4.091088243835114 8.207181592318502 0.44127689290960137 -1.4616153258111666 1.2430828699557752
Ni 5.220798053363505 4.4470200653643825 11.307680670106443 3.5888437515532967 2.242491237572893 1.3993272664052223
Ni 3.1650510416894075 3.7085234408649534 6.146003433396025 0.18859555908664294 0.11662035429992175 -1.9634504399197992
Ni 0.7302609435993185 1.0731238951033564 12.860695306763649 -0.23458462422224763 -2.2975874072160885 1.0528328059848449
Ni 1.968740436285069 3.1862913946567306 12.355417024154471 0.4658214150181848 0.10220623575712075 -1.3606401342476695
Ni 2.9042422516701 6.351480003399035 8.295222671945318 1.3924449374630923 1.8901688576168287 -1.7255791745264797
Ni 7.630853595342684 3.517176841421855 3.53392333732787 0.1641983611892011 -0.3565199629771795 1.3505071595787257
Ni 4.700391063390383 5.583030445915464 1.1194445560412043 0.4961025825002295 -1.8123400222628077 0.12668648028667212
Ni 0.20747679495213447 0.9696918135984067 2.365891015317073 0.788837589810964 0.21160204728414525 -0.439296886365095
P 7.201057437544496 4.002687655643395 12.33858523667566 -0.44233490186047036 -0.16404640899236908 1.506018791627206
P 0.3563115065952649 1.5430162632526379 10.920994358231484 0.2121741177375314 0.11256238218046422 -2.162820721024443
P 1.8175450740142232 8.023699242732693 12.845688575519938 -0.6789437556015985 -1.101987927553257 -0.07463475389675533
P 3.5670678259392274 4.712772098151129 12.631042702884491 -0.6566733742391723 0.9116941548285846 0.9294051989551025
P 5.607865884531832 3.82374960437162 2.4089916901034405 0.038711300527268816 -0.8154086554312732 -0.8527534146283184
P 1.7115909298728254 8.40152256794633 6.747349374611724 1.2485210102522108 0.2983086447437701 -0.6484646131761348
P 0.2799938912163468 3.7728406236628094 2.1581051530527624 1.3501585179900555 -1.6723426837998423 1.5036582618148298
P 7.432665327802165 7.060784899273686 11.19551858342464 -1.9716003227204433 -0.15159121394815184 0.45601754155388563
Ni 9.139606491287067 4.924872980307979 8.200202357168186 -0.45419925739822425 0.8256673570448038 1.2194348915195323
Ni 8.850064529485971 7.353674326028613 -0.27996912914682537 0.35178861893978125 0.7437226997501966 0.7971301688370593
Ni 5.601767078520058 0.6650293984565401 0.5447673637001511 2.133562338379958 -2.0031202477055956 -0.6179137369724712
Ni 5.1935689480267255 9.100996005107262 10.676201124510465 -0.5105467829500175 -0.23306227404045024 0.5628731031575597
Ni 8.357446084198077 8.281004658471552 3.9226236308572435 0.39462345471712035 -1.0591721179393114 0.9557934591406442
Ni 2.8581481178126893 1.9224995642379015 3.9625831912691267 0.8136273951611342 0.3572622404598428 -0.7350295428515728
Ni 7.563124749632979 0.13253209876113017 11.440271464143478 1.113627054454082 -0.12535799128323571 0.583304374428718
Ni 6.958379985097035 8.348889413507875 2.073607800708579 -1.7396287106410102 -1.8273362385613239 0.10165396279807655
Ni 6.253908278347505 5.881294158870241 5.309516880004259 -0.33719040941063216 0.39912159969779004 -0.06932156921395803
Ni 8.338195867929334 2.410816746338543 0.351160079021109 0.17268814382776712 -0.44634942233650227 -0.7482912929574854
Ni 6.323361297786855 5.819920911004385 2.888389941607916 0.635280767496009 1.0988236708926624 0.42982699920144685
Ni 3.9494308638984714 2.914578122911107 10.707395829425426 -1.4983957278643099 -3.0637301265326977 -0.3536585822689845
Ni 8.056651137469993 4.13592593194273 6.2630115487945535 0.2532246079209381 1.4732840203983466 -1.405534937877831
Ni 1.3508901171764551 5.409154862190306 6.302407084289559 -1.6203616627468609 0.9952256969943375 0.05493830390909249
Ni 5.298963652819675 6.660400577384912 9.803270307465182 -0.24241491889994377 1.0497986471442113 -0.04398283333885328
Ni 5.26861636095056 3.4072974507044584 0.2255210067238128 -5.5278717967646735e-05 0.19999840160694587 -0.5954669779331809
Ni 7.5879601882493475 4.221318387244431 1.275012716366808 -2.2138720311743034 2.6495981694690043 -0.2797619920898343
Ni 7.197343127116272 5.211269242166161 9.81292109478276 -0.43333295547217626 -0.6197389631066681 -0.02857215521073789
Ni 4.8831534787327 4.330849274761155 4.356504613012791 -1.7871972044485929 -0.7841756655589204 -1.1797190609871488
Ni 2.739785425499967 0.4631763446268417 11.8016426869443 -0.5997591775506316 0.10548722050123768 -2.1036922902934028
Ni 0.7034427051938589 4.626251593015671 0.3303938738294387 0.14455718991950586 0.8787400685000673 -0.8361559152809536
Ni 5.244395388503799 7.861819506020166 6.748207793021802 0.5746392425545523 -1.3399247560771892 -0.16059804543245246
Ni 5.330420652248827 1.0808276500655976 6.935752956236509 -0.39912957011759004 0.8757151656308144 1.069125115386965
Ni 6.126071801658599 1.8661887839186613 9.518611058928249 -2.0573612684373472 0.7819269787340598 -0.5490264270824545
P 7.086409055659997 3.430720534244416 8.242041083522645 0.7373137109000593 0.491300790236212 0.29109927147952447
P 8.069261450652233 6.597367353747431 6.046540619924002 1.819361190775647 0.4989230826681601 -0.10197457936228889
P 8.08344919937436 1.2015289822775714 4.14098748237566 0.8684407434565883 1.4471484996535593 1.2531597945758028
P 2.2164620140054265 0.009938761014977286 2.8418262455432832 0.11180904895420743 0.04946545371997933 0.5456138018564797
P 3.987536937550987 2.1790254333436776 8.567988790202447 1.00187276999721 0.6519474295184127 -0.18938977285316413
P 4.893205044731053 7.709780399158218 1.0460928863227492 0.5235341963486209 -0.013068403148183945 0.15054708895435362
P 4.608771406160871 5.63901106530775 7.329660621274883 0.7941785424079032 0.15978120595811193 -1.228348649069394
P 7.860865707786746 0.26739916896676824 0.5790609957600428 1.1348509968298648 0.7548815445804935 -2.0565652548986133
Ni 1.5654855485591748 7.532814142311303 4.403431486097072 -0.8918308402457544 -0.1313160086388835 0.6028964376280327
Ni 0.9966641271031113 3.5557689853279397 4.353767028660138 -0.21607525256415047 -0.15730086273841942 -0.06086418247522422
Ni 8.74710017596087 5.158746141370023 11.424258659186247 -0.002971681033814237 1.160682098960356 2.107929211192886
Ni 2.4159434118431777 1.5141363532810925 7.137377648758398 0.4557774005186215 0.4609496887481804 -0.7633900962721368
Ni 1.1493360424083865 0.6721636258197872 4.866064899421813 -0.9733972882653364 0.124588717217379 -0.7905581720464965
Ni 1.722981481852711 5.948775383884731 11.925979457807504 0.17188544542081363 0.7238840677577145 1.2055787023627302
Ni 5.565733681797861 3.7758579276896866 6.546583100499913 0.5953438220917554 -0.7825291310944329 0.05719727514659827
Ni 3.005088072580583 7.746382406365724 10.396884063194372 -0.335590411913364 -0.944696063675902 0.5746479843053006
Ni 0.1939750472671206 0.8208992891848316 6.959551139274033 0.6371867262694704 -0.9674387566890564 0.49263005057059667
Ni 6.723892357865385 6.245149842646386 13.38604003682209 0.21516559626568751 -0.4906796117124453 -0.5155079836100347
Ni 4.655241556629534 7.188520493457134 12.332826679841386 -0.37174217924357267 -0.29450778294044117 -0.3667910058858844
Ni 3.626267514369308 8.957999639189087 8.465559113956274 1.029809348506478 0.1299019019001763 -0.6116369028248241
Ni 1.9847440701054393 2.3268916729344116 0.9908881451088023 0.14101189577040876 0.010988123580387527 2.037093005106614
Ni 6.289217155257778 1.982616366353963 11.985389165271673 -0.6870363028017458 0.2494358303024672 -0.03166750630660998
Ni 3.2718305881481884 0.09388309380651425 0.7708028712017994 -1.483107948467304 -0.6865614200478563 0.5018212301515614
Ni 8.205663769168204 7.37083352309332 8.986514537913612 -0.4887523127827453 -0.2616251732798075 -1.1884387002483339
Ni 0.24400268172370415 7.66067813241079 10.829409551322039 2.5442726713566115 0.8048699606834784 0.9849639100570133
Ni 0.9086569806826779 7.4741922355033905 1.9766542102813998 1.2622507011334776 1.081529145478273 0.5487268935641646
Ni 3.2106499341563888 5.215891495143506 10.434294047559229 0.5079139733128607 -0.18310496828571693 -1.1707610804629125
Ni 3.355397987214787 6.761970918107321 5.859076162713662 0.09703780418230384 -0.6134544156495371 0.08990376424068387
Ni 7.501668961535385 1.946986499653597 6.561723730341775 -0.92009034931208 -0.001248784805436559 -0.8511680724190697
Ni 4.5095121919271355 8.922314745667563 2.9428600747593925 -0.6906427892060816 0.5821581766394167 -0.8919126013262832
Ni 7.51644366301654 8.740175967631714 6.9856191786843596 -0.7583790162107907 -1.995448075872318 -1.0778514395163696
Ni -0.0028843225424105903 2.4588184766627945 8.571734282495994 0.6830860599047461 0.7755915234343351 -0.2766419584036139
P 5.856669656401647 8.779978701603294 8.606687319296105 1.057434052202282 -0.3903849911557406 0.9951573056502473
P 5.203161957182088 7.545717931873058 4.391995078432888 -0.02291778513843795 -0.11633161941490934 0.6328096802476972
P 8.270650444956825 6.532288966590211 1.915043429970875 -1.5954759552487747 -0.7678262776666195 -0.6376261277997342
P 2.437642321653491 5.170870384298693 4.577002588078486 1.0215064850677376 0.4681225523475357 -2.7182479094269185
P 1.305942375426521 6.281605111664135 9.432638070663321 -2.841468028431545 -0.38874591289042076 2.2667796778066123
P 0.8739625699420126 3.23534780571986 6.642436154503915 0.2339379917771842 -0.8413971090752348 0.15170125716345487
P 4.187962962485298 1.464006919205365 12.74350010017318 0.8970398952505195 2.791365198237883 -0.6235583368527583
P 4.598463048330443 2.22065322355036 5.206414959426263 0.1259575725404476 -0.4194204591561422 -0.2652758826585173
