# total energy = -340857.2173944223 ev
CRYSTAL
PRIMVEC
9.35488928069971 0.00000000000000 0.00000000000000
0.00000000000000 9.35488928069971 0.00000000000000
0.00000000000000 0.00000000000000 13.69182606900608
PRIMCOORD
 96 1
Ni 6.476904458841244 3.0335006347379467 13.106157969201519 -1.549560423663583 1.4599243112619888 -1.9846756678471627
Ni 4.847357562387151 1.4467430024543149 0.8425537278249047 -0.8128761188174065 0.6153056099256629 -1.2690708093791048
Ni 6.852624882295166 6.0745693750101974 1.4346564853340182 1.442181385456271 -0.8727889931229549 -0.3806425670569961
Ni 2.6660031590771665 6.150643335708534 10.182090830805079 -0.3978663871344503 -0.33743157888716085 0.032559421993260056
Ni 0.6892878971434978 9.478280403338402 6.615699211091237 1.387659857369623 -3.495105186947555 -0.5970024407411009
Ni 8.868304194118732 4.07957372367655 4.878109890351199 0.3492501687886437 -0.10464081334054236 0.6533124281867394
Ni 3.1472280253195604 8.347732663009491 10.27963145623712 1.4041141462709044 -1.5140653160807664 2.260722930089571
Ni 5.073624272595054 5.771180956489813 10.200492833767413 -0.020351567073158498 -1.5280505746162651 -1.6708157056323547
Ni 6.226857619748051 5.968962028438194 3.8542630831665523 0.2734885003762968 -1.0174891363782284 -1.279968173017899
Ni 8.25259343768951 0.6767766680438967 8.368909326171423 0.21508692050895215 -0.6166081307871702 0.8874900467785554
Ni 7.851147068352604 0.395296465037462 3.6247745490451577 -0.766893224329389 -1.5528768896313256 -0.4607319163104195
Ni 7.510825546433666 6.53866543873923 10.407143276367307 -1.7138567438832288 -0.7898518900080913 -3.0842051065575977
Ni 3.087347378193386 1.650978948096972 4.466123367113798 0.8899842739553189 -0.651152444420943 -0.8242185404134194
Ni 1.5443425636896504 8.208064164088418 12.73504108682724 2.6857527650126904 -4.629963382866271 -0.5664176259757084
Ni 0.8180944339683047 4.569161861053266 7.6484593569076305 0.17357723130093974 -0.8281788106127479 -0.2617043632571751
Ni 4.550218209993978 4.072426588165786 11.77748957443857 0.9751183847215013 -0.7411145727033881 -0.3054532262083514
Ni 3.524941040218238 4.207183770145563 7.253258311742171 0.159481415329506 0.06512012953810076 -0.4110000963029309
Ni 8.220889717472263 0.655179970347367 11.16550674144003 -0.7496897159669088 1.879204388185525 0.3858446800832258
Ni 8.374431517391322 7.052931774384787 4.7432320302980076 -0.2580246004127427 0.33562846424015097 -1.7887468083239
Ni 9.105684512948086 5.373392348912995 2.8028670621525245 -1.799657798809449 0.39384980977588946 0.2344470702031188
Ni 9.00841237284217 9.006232683609175 13.20710845182423 -3.4325649023214884 0.11260969047863188 -0.8265603011727185
Ni 0.820755900006017 6.760872126942327 8.47806124034163 1.3418091175840956 -0.029961836469412917 0.5208468793244448
Ni 3.8105364590770088 6.9323566047535925 8.117254381588307 -0.697287805326425 0.8621880776786571 -0.17270228489515418
Ni 3.161793588134035 3.926873863804569 9.665060125338279 -0.20235404632331602 -0.7307417141094964 -0.8764479300317809
P 4.149875717607687 1.9938543548253835 12.29531451001645 -0.1787747163414792 0.039681634860338114 1.004917984581437
P -0.08092072890269103 1.438314247094108 4.721654042380302 0.8711218898331772 0.9740110105899354 1.31627317809652
P 0.32187180902060203 4.177846836949549 1.2344796262072253 1.827034391050189 -0.7154444216307937 1.5597293937767849
P 7.422786682177389 1.4133086276958475 13.71989484396481 2.062658255170228 -1.056787933977851 -0.9510639148754589
P 9.360970090111996 6.662411915881088 6.457653967409242 0.5491133303693059 -1.1115015234706471 2.017302452743248
P 6.815270808873073 4.021863410893958 4.21459097158198 2.1952798699944127 0.004029689984683382 1.5123128521660343
P 2.240786015744382 2.339330420810329 8.111653609297347 0.3329354907890202 1.1927602104418233 -0.6645985426235199
P 1.209577846081438 0.19267330232943253 11.150117012868355 0.843496929027057 1.3368188634583558 -0.36719672596473535
Ni 4.257251138278556 1.7569979098031026 6.943741505167989 -2.453710190486006 -0.6933640447919865 -0.499334716284282
Ni 1.8045862322419168 3.2674570640425094 5.632693980101475 0.3429483949403319 0.5801617150346783 0.21061037279483727
Ni 2.3031176438964995 6.1458629872190045 1.4105451933635444 -0.9478400086215225 -0.5784627300657006 -0.013004125569151799
Ni 1.9893827176864505 7.120118590141729 5.808743643945793 0.19970606717750766 -0.07150880667326394 1.5452473981105257
Ni 4.8899035994329 0.38600238240664586 8.828079105136098 -0.9636211827151793 -0.22463008411269703 0.07443523629143954
Ni 6.232723135409371 5.64483382009142 12.323834761366797 1.083842881213114 -0.05388492294391366 0.7147782488017045
Ni 0.6263238784671296 2.8650939155432273 13.283330219775278 -4.408536121961587 0.9653618195553696 -2.838372677335673
Ni 2.060816653236438 0.24660611076746147 9.054021200681406 -2.3001389699933483 0.7172835317220615 -4.3808985627499775
Ni 6.195556159775518 7.587535639612019 8.870263107961604 -1.539873278282806 -0.3316229426251837 0.9106875679409413
Ni 4.054109714697102 7.916612584457738 4.913215983847589 -0.2731496289796393 2.511784726031235 -0.09497912188106222
Ni 1.566130101130185 0.9384263764747861 13.18739208689951 2.963729383067328 0.9974664133993983 -0.2951287043538917
Ni 3.7082126786886165 6.585271497789784 12.47471883720391 -1.4190396572324853 0.007485766854083882 -0.45743241962354125
Ni 3.332249028109982 4.066654621398587 2.3891826264868463 1.9859846164665733 0.9318405478694726 1.1760238715237488
Ni 0.7228307886191441 2.1090223983764442 9.858183397848427 0.22831190383965838 0.3994766690443636 -0.30551364713264156
Ni 6.856806517862328 7.991386215527808 13.228467535329697 -0.07283986677986165 -1.8210496342216638 0.44303372769970795
Ni 5.892279999928078 0.5661101972778878 12.329215693756575 -0.5201668225382848 0.34549867216601143 -0.16033990667505932
Ni 8.816665204564524 3.1289859909661715 11.526285535525115 -1.8313042220701363 1.1953022601373866 -1.283853109894602
Ni 2.906498656080714 8.474631737883193 1.4582205162738906 1.912125821503894 0.9402596251711032 0.1261059251928538
Ni 5.673759138153305 0.8970880556521249 5.227114620622348 -0.166563518987268 -0.22478486452300642 -0.9128771193930922
Ni 8.220936491919323 2.667350263152494 2.921999707836388 -0.6262263706032247 0.9028840127361224 0.23571539539258113
Ni 5.54041454447474 3.0812012158497053 8.447829044228888 -0.39504460141493897 0.9500277603014606 2.94987293680021
Ni 5.935396685227959 3.418856594286224 6.337741123948418 -2.5836437169550663 0.23973942895030972 -3.6896045131131423
Ni 5.259384311649023 7.694041055567573 11.239716272678553 0.8797970490096718 2.1227153683631252 0.2249946665409674
Ni 7.761527227785699 9.346909691325768 6.065862779434453 -0.03410954008919932 0.11172394543956889 -0.3786088244564189
P 8.690542585512018 7.564288739423213 2.5643557371932615 -1.9075132624325473 -0.9254523849549416 0.3444964561537422
P 5.409670610052709 5.460093463983358 8.006131392218993 -0.9636916309417983 -1.188254866372302 0.2657595071631552
P 6.496091337025243 3.873906479953858 10.598636927141886 0.2128778286727753 0.9251605647461356 0.5834151889749695
P 4.58967713353377 8.203592526949485 13.5818671926466 0.3870214740001464 0.2717010694585708 -0.06301208205616245
P 6.200392637601519 7.732798362401465 4.934300969093283 1.5505731811988133 1.3872613363796236 -0.6344621282494557
P 6.407977633653671 1.2990105888601025 7.468302896611447 -0.16533633144838622 -0.09695912842556849 -1.0321395393015516
P 1.6872104347896255 1.0330043084300473 2.693441985211487 0.6364367354773233 -1.0295208707317818 -0.3083809413781076
P 5.053286743013378 0.6290396028634315 2.786395908364826 0.14505444127089856 -0.24131731496039083 1.49521321637127
Ni 8.261405743515608 4.51842094088261 13.562767314934131 -1.9110205042548574 0.587327122434866 -1.6559166770333351
Ni 6.8250560231980195 0.13344001355056764 1.4613974367182039 1.1083611780694527 0.10039849312442065 0.4428573500228437
Ni 7.955650537973991 5.090603396877824 8.651563567799062 0.05714276775957901 0.913336318417698 1.0552774108705956
Ni 6.780414490923983 5.9012326290953565 6.53616300582152 2.7127467771030314 0.690455870006256 -0.18389275429433494
Ni 2.270412950512168 3.104158114466739 0.6445369126633411 4.038759808195135 -0.05726129561531429 2.672393827207282
Ni -0.03237353029914712 1.4047582587732848 1.1034503676581284 -0.7986111242579601 0.1708513477293445 2.1592923961562103
Ni 1.5316199140893383 5.462516380341064 4.123143185623972 1.0698771630616413 0.2179819826685601 0.26419884754425466
Ni 9.550687247387236 2.1146821064707004 6.977902754833769 0.010337377370266066 2.6220739959068067 0.38209446901217425
Ni 5.4145164427681225 2.722328948226784 3.6702860860345092 -1.573335928816626 -1.0199532816480048 -1.5507246191750133
Ni 0.10086441764012145 6.39563853451925 0.5566000167016544 -0.715643167905161 0.7846032400146422 -0.6005667610535914
Ni 1.3410888814352524 3.0834370344191715 3.169260660862689 -1.0568707234996444 0.18633324541502747 -0.3797025717412299
Ni 1.7863722625567642 8.571941297546756 4.011965002407127 -0.9457988098217776 1.1986158978916517 -0.8440975387255333
Ni 2.3103957478590313 3.8580873619581757 11.870922467929804 -0.9381862875818423 -1.7093467718280173 -0.8216649207536302
Ni 0.940278644578361 5.662046816609489 11.80010876154783 -1.3489953509198895 1.7711789746434659 1.880351871526407
Ni 0.673639973624055 8.544587600906086 1.422786066159139 1.0475597305113635 0.6942940128054236 1.1725292281069288
Ni 7.777336990891969 2.6414185097024463 9.351968815519774 -0.023400124091495184 0.921314194416852 0.24382799719738654
Ni 9.232845524725322 8.384469313730392 10.027592025699171 0.2526862189189648 -1.7793432556218127 -0.580183055190917
Ni 4.719597837687545 5.9385867025174495 5.687283501776226 -0.6024302966248916 -0.5169056352885097 1.5248287252448578
Ni 3.1234478964342713 1.5725007808197529 10.462376414433603 0.5954384386880907 0.6868920639143977 1.1751149865562343
Ni 5.882925110516084 7.851689651938499 2.5968331067648815 -1.3366196029633561 0.4695965657899009 1.3410472997174065
Ni 8.187399213377322 7.7780760271555165 7.958442036974529 0.2498186675631827 -0.5551279119945021 -0.9997816917961362
Ni 7.845169294018339 3.720149517578321 7.005286387120559 2.47341589644505 -0.7043118020527418 -0.06633317600959544
Ni 4.6035878540894055 6.142701034597751 1.1028834613597618 0.3269072823170693 0.005214197211087793 0.012465479456862404
Ni 5.670419442633224 8.297684004655322 6.8056315308229545 -1.0102897904163115 0.6982406561579975 0.6979604059134173
P 5.913300436436829 3.747465794661344 1.3639335213793422 -0.5562874795202419 1.2185997972127462 1.1372341523500609
P 3.069124053618821 6.994894040472774 3.3389574193073224 -0.6646869885722683 -0.7141850953023958 -1.5192877408219705
P 2.8376186053402 8.948092045913631 6.992224155034592 0.9010407888797966 -0.5674283266284099 -0.19292144015550647
P 6.418408335348044 -0.03325569637069818 10.195454290330114 0.573308953778903 -0.06168127905988086 0.5149084023528229
P 8.435677978371649 6.87886534709581 11.992520126973728 2.400740323157194 1.1611898918347099 5.314577963600402
P 3.275212267365053 4.813118667139252 -0.21709798309520817 0.4665271828359579 -0.13093754225354223 1.8407933925074942
P 3.4258727613452193 4.68007342992187 4.746654984333856 -0.9914939978660472 -2.4205488732426894 -0.2794256917963381
P 0.9935547397796678 4.564914741260221 10.045556219837025 -0.16644679090374562 -0.8311661753758459 -1.7522399716471178
