# total energy = -381176.3165646117 ev
CRYSTAL
PRIMVEC
9.13098663341983 0.00000000000000 0.00000000000000

0.00000000000000 9.13098663341983 0.00000000000000

0.00000000000000 0.00000000000000 13.36412191228267

PRIMCOORD
 96 1
Ni 2.7633378669556765 6.042476035816496 0.25989344532680186 0.506978605982785 -1.1511103961115208 -0.04892372228389639
Ni 4.985326931506456 -0.010593770650398257 7.083091662694477 -0.5904116748974606 -1.877966402013366 -0.7786969018325364
Ni 2.8281313478514063 4.245799195989816 8.386440471731076 0.7655932745710428 0.5726885465860847 0.5921109169767544
Ni 1.367383504946078 4.023359231488565 0.8463173630701673 0.12213202814677031 0.7646813042797347 -0.6194828812318041
Ni 0.8511896575185834 4.238448751778844 7.091604481499309 -1.2732912752183556 -0.5791399586383833 -0.5692795209045357
Ni 4.623730731259584 4.249762044173123 12.529438455113144 -2.653775697885462 -0.4044738651486389 1.076844338408094
Ni 7.539729563138557 6.764362705226801 1.1203693162150241 0.0473823459387055 1.6222583655489415 1.1317317344745927
Ni 6.0722613140974815 4.459217745732756 10.690014901530352 0.48970567783495017 -0.5702313432948437 -0.4817293444976929
Ni 6.3117305686030365 2.8406955854095415 12.437293103864656 -0.4257155481362346 -0.23339163235541097 0.9946433421283064
Ni 1.085026006392152 8.58301782979362 2.8368952687876696 0.41393398212027427 1.6322159909822858 -0.07461084263735536
Ni 0.19436035451667577 6.095070518617991 13.19330135709109 1.3864231567490446 -0.6790298875575015 -0.03963895454786077
Ni 0.41364830244447653 8.907377866695962 7.25244133182199 -0.9556327651930637 0.16538595373939904 0.3990925462320675
Ni 3.8182590105359315 1.7670193953580593 12.856298556145877 -0.31242554376112647 0.1988537464795414 -1.0746928392827297
Ni 8.071719104281035 4.141085041689896 9.023281131972436 -0.2391511605470075 0.5467607709767294 -0.1567485897793752
Ni 0.8712896983156199 3.092509933794892 10.11380673159225 0.22222738820847532 0.3588727794800723 -1.3039455097691028
Ni 6.514895020397004 1.6520967980421548 7.049988183883967 -0.4829956128046263 0.5357579921083224 -0.0009063138643532779
Ni 3.6603294663458876 5.512933599082143 10.300784683444862 2.158020471422322 -1.5068145480556243 0.09901395407206819
Ni 2.439251759651259 8.877994351825265 12.277471619251616 2.4363403317489913 -0.5112291537290228 -0.1436950990295267
Ni 5.266634366601672 6.256369396862505 11.979505612207953 0.1836137896013354 2.3494059345492766 -0.505105300219472
Ni 7.857478765744322 7.477447103557134 3.418422238418805 0.4110900849135759 0.7077645364880326 0.7932529452698402
Ni 8.095021382077809 5.940674666241173 7.3416875948257765 0.5032620763631461 0.5321623043372641 0.8876219443707294
Ni 0.6574602541757937 2.4160590536936555 2.4624727716673145 -1.0003758737367094 -0.8379065794234731 0.958724259634194
Ni 0.6087482668755484 3.2338119513909205 4.737287332980505 0.5997301240849091 0.7714623317573102 -0.8288118162110564
Ni 4.966188383598134 3.745749845965329 6.574921213190189 0.6110758881150316 -0.18369812178502556 0.25957574694994645
P 4.890885137128703 1.3783863437960437 3.313126440272626 0.12769666671874136 -0.29687705450356616 0.3775580145944014
Ni 9.102589229163524 7.11012577471364 9.026448671223102 -1.0649157052913079 0.143033811296444 1.5404818584010824
P 2.2462318339670935 3.2862238144604654 12.131628762020659 0.6883467940830532 0.23885291258029834 0.4510895081246489
Ni 7.316796525361041 2.2761906009934307 2.9107192954283088 -0.7441659579352022 1.3781071806841816 0.2850983167010832
P 7.904101583311064 3.329659917704686 0.7435581530007681 -0.22912874331399893 -0.7050214265252568 0.7546383182214358
P 0.28938927133264697 0.1260715319514297 9.663502996550843 0.4000844778316916 -0.07355129102458946 -0.10958093095463708
P 5.944363584826555 2.7256542852678693 8.99835719095595 -0.7476917117002736 0.9571126921726999 -0.5750771014229192
Ni 7.577623157518105 7.231677468299316 11.994833799409147 -1.1236055058230325 2.7763322151641603 1.9530174175119333
Ni 5.613073129096725 0.5060931500533604 9.258757406038912 -0.25936697337325004 2.0929059983111764 -0.05520312753470493
Ni 2.2641285676981573 7.092037290264029 9.47138064684921 -0.15860878291656555 0.601011561900494 -0.8041533942324279
Ni 8.611963057307637 4.459582985196655 2.58018397229009 -0.9160961405510222 0.2491956892672031 -0.4322628623364491
Ni 6.662077393361812 6.898250361705675 9.885427973407998 0.3691047416207256 -0.18829911089214668 -0.15175525032984186
Ni 8.971221724985554 5.623071559420968 4.854330145384345 0.2654273206347171 0.16469535543027766 -0.15845143140309484
Ni 8.814734876677912 1.9860535018584502 6.332108191392637 0.2555332014494567 -0.8661375492447083 -0.052416308818187145
Ni 3.356486756328087 2.851232743943035 1.4664054022011281 1.1229655582461886 1.4243443572748502 -0.36401241469948276
Ni 3.4160116579570703 0.42137403020460584 1.6715174934363386 -1.227194995080925 -0.37934364573991447 -0.061599260869035846
Ni 3.9123629584095774 2.948167297661901 10.532250628197726 -0.11419040470219043 -0.4282835659737269 -0.25880004512618654
Ni 7.119631131761619 5.132984115774333 12.975439669269818 -0.41472459634236963 -1.4358243328899918 0.14773147388242944
Ni 0.7209169586336525 6.454849652531965 2.3250368137966593 -1.029737871838594 1.0908252260682183 -1.6311261003522166
Ni 5.225435355073834 6.24764930466191 1.081837465872311 -0.7058452079781328 -3.5172791519414326 -0.17934678679486532
Ni 4.0319788828365875 5.9480251104521455 7.021723214871462 -0.21904796203922922 -0.17573721506673604 1.2358344159234782
Ni 5.584840118537311 8.042709959860836 2.1833229887050836 1.0343889974573606 2.2542635476174726 1.2800759022403567
Ni 8.357226793211092 5.5323826005347785 10.987406569517034 0.7415357194012068 -1.4723643367975547 -1.5659771744587094
Ni 6.465377680078861 5.530885118732792 3.1635946644562862 -0.16348950804763457 0.3780807198670908 0.8754863374494599
Ni 5.851282307451828 5.18328672093986 8.517837195066155 -0.47129066566287214 -1.1493923849791496 -0.9939427165168561
Ni 1.8321415917712986 4.81246822422953 3.027414217242785 1.8274861338756268 -0.8505183546502126 1.6175054242449884
Ni 1.2854876861532647 1.4261140107410804 11.469823984421783 -1.0775508775568152 -1.1026733836560558 0.08869817396835693
Ni 4.912087288008056 3.5932715007739824 3.8657054430937654 1.9243766138467893 -2.8179622320001214 1.2583102284284908
Ni 6.477028818977248 5.676405652136858 5.771242818234281 -1.7973116671747758 -0.060681119930140644 -1.7471543295940946
Ni 3.714795801399866 2.115731773515885 8.05121547387639 1.131254280617542 -1.2395044085758977 0.19436280058772332
Ni 4.514524131553703 1.552788187807944 5.4816152281514405 -0.2056437728181813 0.4344945798804453 -0.3991871628284029
Ni 7.382357009130959 9.139478415017349 10.619585775706657 2.947066063479034 -0.996925967514896 -0.5802751006840909
P 7.640882632665459 3.9468780877480585 4.630962472644789 -0.9929263594371995 -0.6873448351811001 -1.1216378405737006
Ni 5.485266709691774 1.3686253191233355 1.230511842047147 1.4711641458418663 0.2720489397162928 -0.4489614060380526
P 2.0695472433058226 5.275710567279568 5.429802357802691 -0.1293876812679191 0.5449779680446937 0.12198907481100282
Ni 4.2736487051121355 5.585817134103243 4.7312197923864785 -0.9602517520223142 -0.028217342974480437 0.46255071468671305
P 4.122156506473317 4.884940864853743 2.54428823777807 -1.1394656127837408 1.3641193510455216 -1.7047429545074189
P 3.8424926489656475 7.574436443195585 10.977182603823833 -0.26820334071795743 1.0594066025476208 1.5251884225771217
P 2.137280901885942 7.92079302681126 0.7507698062154591 -0.022678672544438363 0.41282943620218576 2.5260322370891855
Ni 5.5211971419528645 7.653830371660688 4.539431636794314 -0.45470936426542335 0.18898328144336485 0.1335433553075055
Ni 1.1458931630509648 7.574728634766704 5.158697887131501 -0.7760193550003732 0.7182561800479759 -1.3554272225881623
Ni 5.544472026789845 0.6223461321165181 11.533558270872206 -1.7234117345615156 0.31747827569368553 2.2163608590344284
Ni 0.7634655299805976 7.755595217289621 11.252657164680578 -1.0614141198959526 -0.2684522235039699 -0.5559023282666814
Ni 2.009894507864475 0.964999187568255 5.531730648091719 -1.2466998978830723 0.28865492370408996 0.43761101402223984
Ni 1.4614691908465296 1.6233341902600875 0.5671383609508243 0.2338382329745263 -1.1090744020863932 -1.33485942573914
Ni 3.3456300132636816 0.412957999857707 9.901504901510183 -0.5201963902246396 0.20851826615249897 1.1944090588991558
Ni 8.244687383397132 1.7272539487260266 8.64758942771503 1.8971884834677712 -0.8926546216986303 -1.6926353726106074
Ni 1.2921167824230366 6.643075810252452 7.248499484907858 1.5161137139693632 -0.9586826077629811 -0.5270090422710989
Ni 7.3394687650825885 8.576699187068163 8.178348026470447 0.21877336822160384 -0.01644708981242974 -0.31426979605871685
Ni 4.586832414419161 7.608065866834109 8.979086243741964 -1.1833337749216009 -0.7356257816746751 -0.6846837434091693
Ni 8.118497148619934 0.35104443213482256 1.9322382061488723 -0.2646624174442345 -0.4137892290122938 -0.5274656701925432
Ni 0.27997522415064335 8.502966470293497 0.020972050017095945 -1.2271854819992285 0.5207188383870128 0.7859990919209043
Ni 2.64204184099473 2.7311511391995533 3.5300658984475546 0.9281368737656401 -1.8436072078072054 1.9393818290063694
Ni 3.308658648530478 -0.10904954673640434 3.995926095355091 0.8195887549508917 1.488722980661236 -1.0258537062928397
Ni 2.8415356361765096 3.2031592293831745 6.033820773620743 -0.9776131261188968 0.8371601881757518 -0.5462545207642722
Ni 2.606147932680029 8.932898974235924 7.722992116544654 1.1094945203429472 -0.06231968397482815 -0.040654540296568696
Ni 3.305417148288372 7.6573092775543286 5.727822237667278 0.7828402345769486 0.2122700198854473 0.6651472160381383
Ni 6.710553801207842 0.7115093031422671 4.719859931960551 0.4051811756283086 -0.41868280965916926 -0.32131924670633044
Ni 9.105766812499446 3.584377919828035 12.353233241248242 -0.3809040482484988 -0.25126619864298666 -0.737393157987743
Ni 7.55433001070793 7.700690594878965 5.8787565330249905 0.6477585882480457 1.2651424208589759 -0.263495650829643
Ni 7.457431980935454 2.364222442779752 10.495432664039358 -0.41757543552760346 0.7912354006191792 2.6467542722623065
Ni 7.333195777290118 3.856691333124732 6.755590566402601 0.5183662789944363 -1.3589028398415888 0.39396319542530217
Ni 3.2590226053865674 6.921790045153983 3.1082672773661657 -0.3782668677359679 -0.3263485816001218 -1.2887330636947225
Ni 5.841201698248207 3.990332452965474 1.4112113275153304 -0.040341637041840205 -1.3253509720280723 -0.3439035597647497
P 6.7427313979773675 8.859102340555076 0.2189373180424575 -0.4013435470497733 -1.3782236516573878 0.17954861839302627
Ni 4.471325433961017 8.010021027841852 0.1151736994473353 -0.6503587448750541 1.9970475591489545 -1.8618548411634837
P 1.5669412170340407 2.1258397756792973 7.618698900726877 0.0570419805156566 -0.5993963948945741 -0.3494440299670046
Ni 7.931065386733427 1.3431407355297644 12.843027580225097 1.2258739622766566 -0.36574251001671204 0.21915466282042256
P 0.972733133216322 4.97947396909747 9.226376188268262 -0.3333682074510646 2.3779086699746594 -0.8105055617027009
P 8.892722633207004 0.12778998362907576 5.065055967179687 0.16637994222155217 0.3578749343431772 -0.7485247491245303
P 5.971163030490164 7.0587000581966235 7.431467107446855 0.3143325309758522 0.09500740401583638 -0.6823029018818185
Ni 1.57597176277895 5.436050691931348 11.23412126188769 0.14885118930916946 -0.9283914129786075 1.3342906977198634
