# total energy = -381172.9368749527 ev
CRYSTAL
PRIMVEC
9.23078928796047 0.00000000000000 0.00000000000000
0.00000000000000 9.23078928796047 0.00000000000000
0.00000000000000 0.00000000000000 13.51019318541207
PRIMCOORD
 96 1
Ni -0.09623282585072077 1.3712153066102204 8.385709724590866 0.348564969796161 1.8623585202727795 0.6697446056008337
Ni 8.935136464676749 2.9012740375421995 10.282527103796589 0.37243997664154566 1.4577057063441154 -1.8854742803546367
Ni 3.8876577332752618 0.4127482873169707 3.1180314346786213 0.4029635991516995 -0.24646132105517554 0.08187729439178157
Ni 6.046397839165519 0.9567528616981454 8.694538707707933 -0.09742886897313544 1.5186436794800686 -0.23900435055649805
Ni 0.4595816205130933 8.870622477427517 7.005899629952635 0.6236156724532549 -0.18015025653276717 -0.43775756690243317
Ni 8.070405342696386 8.485707789445588 8.923590593271491 -0.727307748727283 0.9646002587989969 0.5278683049476005
Ni 5.922022182534221 8.964213451346525 2.0575078844902186 0.38422179976782217 -0.6220609263716254 0.24628442915767904
Ni 6.42524789849918 4.539573005201105 10.268098456855785 0.44653325621253426 -0.9468730167225627 0.8775925851591853
Ni 9.032179753838454 6.580768238630107 2.7651309705595892 -2.3672090241689685 -0.9586424985536652 -0.7031846304268341
Ni 8.015648299863013 9.278697216061659 4.266465330977595 -0.7197073106722056 0.2342866333658546 0.3246115443043571
Ni 7.047458490074755 1.6326681861133296 11.042677997054648 0.9044878668881325 -0.2124559106440083 -0.6124084908835259
Ni 7.849041781639895 3.217253190143207 4.8500247610980285 0.2674214682466104 -1.1575636079360323 -0.4717789181532004
Ni 5.504347422904342 8.270925781244827 9.651641416325058 -0.7035355860083496 -0.07095293416979392 1.4854270835187835
Ni 0.5537670572706849 7.534613401661274 4.994637077372551 -0.5463067141584462 0.5422896225792532 1.360261153641696
Ni 5.194239052373804 0.8429003050044811 12.106376015724237 -0.938083700565707 -0.06244283981625375 0.690251981525566
Ni 8.756677612839662 7.889777255345841 12.914137474647498 -0.6535232586459648 0.42002441128872825 0.950510099254518
Ni 0.3345819625170721 1.5604834128569283 5.3962548788081195 1.0791130798376125 -0.5968898264226365 0.7889892848974799
Ni 3.7566359082622998 4.561883823226773 6.711634063301888 -0.9267978432392425 0.7969198525984662 0.36681825957939407
Ni 7.6508475020250355 1.4771939999294972 6.6639025742952995 -1.504996263899963 -0.46507142422603776 -0.403960158737014
Ni 0.5248626863630418 7.3376191246708835 10.533519652730112 -0.34291754170239647 -0.43620410637238427 -0.9449313196151596
Ni 2.8970463359883083 7.194172657099978 6.1765630469204 0.08953943892272967 0.785580516326247 0.5123462980526015
Ni 3.5730724298765195 0.5442408825903005 10.055987839112875 2.6999066879155698 0.013980116329175923 0.5462066982454722
Ni 8.326928980649761 4.1726675873756 2.5153411934873575 -0.658646181694827 -2.2613721336377957 2.798959465645373
Ni 3.381413549170297 4.915635366130235 9.414794129097174 1.4476917737515391 -0.8402632525811078 -0.23124810364984688
P 2.042487543947659 1.353510652504622 7.054158197035048 -0.4750362487482336 0.5191805473656156 -0.08343743979004986
Ni 1.253255048625111 5.611701503847046 6.545932162441829 0.7408327797969112 -1.5651873315675624 -1.2425120850539697
P 1.362427595083354 7.848072548750902 3.126150837051554 1.9671042346223027 2.814173968602282 -1.2479895632287732
Ni 4.739502673226732 6.082739457108032 5.029155614404816 -0.3942334183675533 -0.7488957593107037 -0.27979027422460845
P 8.4915508791478 5.284100787367547 9.76626197469838 0.3665251538190075 0.04505344069521273 -0.06397830262417369
P 5.721815590826025 0.8131319322072216 4.008015227272479 1.9464999281083897 0.9151936833414109 0.7422764542219733
P 3.077655961760015 4.292686311401142 4.00716414848805 1.285771152852921 -2.7259198241498797 0.09279599818681439
Ni 6.813199516199952 7.098717063718335 3.9237251967720312 -0.2667426970120309 -0.24831457221383044 -0.00028667800248337723
Ni 7.119717109646508 0.7881340313816895 0.24812823497681577 1.0821739781511235 -0.7097597125411905 -1.8585653717789345
Ni 2.361466703109834 0.19399703966604986 4.841985666593042 -0.7779263422150989 -0.22334658941458307 0.5771805209191673
Ni 6.567697440812836 6.488746498912324 8.76766963687978 1.7719441349442646 -1.1934767768928736 1.0101668916852022
Ni 1.5736280569895515 4.797536646303841 10.538099047360868 -3.1390187119633683 -0.18107019724387524 -0.00013806823976105254
Ni 6.129511867093989 4.947490820415125 1.9583562830252172 0.012628487397287927 1.063298995623491 1.4753373033829495
Ni 3.6295371687524036 8.586360317270115 0.39645409783459223 0.19012947923266607 -0.5090447444831944 0.34538657206817935
Ni 1.0929439287857345 2.9295387147431073 12.139692703974152 -2.7050216405446315 1.5268254439599125 -1.0207819481968872
Ni 4.828450560067996 2.5669163832080084 10.344241392615043 0.5112726053724486 0.4366602200731964 0.028162578477145043
Ni 5.157620510748722 6.300410702396933 11.200734035038968 0.708456934569367 -0.10645704061367472 -0.40990223525306185
Ni 5.915652937835127 8.031728335030872 13.36655323333464 0.22253514925688125 -1.332118629769209 -0.8010654993357236
Ni 8.733009868769404 5.468199651539627 4.728175571530705 -0.796663513613286 -0.7384254559069993 0.9254361870050257
Ni 8.075362276614376 3.797832921439195 12.190855277407774 -0.8068959899745717 0.03975156886632509 0.4861135896083176
Ni 8.732585252456131 3.853928428738319 7.026354136226147 0.5810225203730768 0.31411527275872353 -0.43932542561018534
Ni 2.1781893791960423 2.5617656027122195 0.4467000538789107 -0.09002306342736754 0.5619361931655872 2.349383051731141
Ni 6.677663835161111 5.634889246867517 6.585192555998623 0.5234611770188404 0.735405695244069 -0.23723851690532693
Ni 1.6810190610899318 9.352728147201855 9.245497758837365 -0.8751317823235186 -0.9250757183418132 -2.3520719114172137
Ni 4.388224981887555 6.51765733137256 8.078528437385085 -0.26211368288045184 1.3857251022407553 -1.0356146423343455
Ni 0.5110460407607167 1.976542784338486 3.1003600114149314 -0.36403658306919884 0.41395403672493225 -0.27420789504082455
Ni 4.03198112584097 7.375179206816702 3.050493440815733 0.12479517680123026 -0.4399630591941842 -0.9607523458078164
Ni 2.8936770978503814 2.4016944833977365 2.760024497853011 -0.33445784097081754 2.06394123564771 1.1834710718304136
Ni 1.9173641933734233 8.386024494510053 12.200244836404758 0.44727141993013936 -0.30391673495916693 0.020239209865010304
Ni 8.879244034744842 8.935127233887329 1.8138916593813987 -1.300470920956941 -0.71526932950551 0.5762492673541495
Ni 0.6998682998784879 5.862695898938455 12.480432526112622 0.10296651096191298 0.0052440220077587104 -0.8481922776201973
Ni 3.0772036530784854 5.983065392961916 11.865259488390077 -1.1701339884018749 0.6788740787059276 1.7963750142931192
P 2.1436754575584867 4.8728137340156 0.20542752620356927 0.7699134992129514 -0.03962249948762854 0.5257183484841332
Ni 7.437579343288987 1.7013821825481956 2.3003265693932384 0.6821329519628575 -0.4670871691044859 3.4243018909817478
P 7.816060171045889 7.813217087904844 6.30212670614992 0.15933409111836427 0.22497795437041898 -1.3808531188604347
Ni 5.1379220061286235 1.4129569363628351 6.272093409696336 2.1099038184207535 -1.7672711549486273 -1.660635422665243
P 8.415516866703685 2.7246890359571663 0.6396540143406161 0.973953932099755 -0.20994265730385134 -0.3560173123091482
P 7.840466378269664 8.723954464349388 11.136870818443775 -0.22461491460404542 1.3819216693342653 -0.4178364024984739
P 5.313103927721973 4.44775434285054 8.357026892629278 0.5343382289426605 -0.17820033189524795 -0.6809679851204787
Ni 5.694473992567015 3.479222993853779 6.004713440307302 0.7787616936322008 1.2967222525477862 1.159478565570558
Ni 4.241723123018969 5.957117643905171 0.7940463520045444 -0.894113465632344 2.755674943925125 -0.3265226452841409
Ni 4.195947638290261 3.814706804497085 0.8242218026151807 -1.143128663457625 -0.4112232680573305 -0.13877169358598035
Ni 2.2778726741315767 2.542584022299585 9.839474134817115 -0.4759281644348836 -0.5021984109853221 0.7043526825930062
Ni 2.895467870997663 7.487656375886938 10.038303492744 0.5566605465889445 -0.5712548994633516 -0.5942390190633507
Ni 1.034531493342447 3.6680849453660516 4.996677081834145 1.2608160255694802 0.8343306891467567 -0.5114325279890805
Ni 3.871079235478779 9.357712773488103 7.410286668213897 -1.9724518720874613 -1.423760202636606 1.5111689683695781
Ni 5.357282485881197 3.2231885877396094 3.632336867183179 -0.497517203459569 -0.6880827417883892 -1.0949325633683724
Ni 7.2315019695103215 3.044591274061239 8.478105311280117 -1.1207089010015279 0.05155010416314993 0.4634863391271051
Ni 6.343075411091445 5.220546802217889 13.191825466580704 -0.5745291993392492 0.4121545216223483 -0.9288637246293358
Ni 4.730281114597173 8.505341678539752 5.197250135882275 0.1317286706962699 -0.39615454664966615 -0.2637453049466038
Ni 1.7968100835615815 3.606977119412423 7.9341579677933405 -0.663894831688276 -0.39988701710890484 -1.4009802286276132
Ni 1.8815394996383727 0.4338304872709727 1.9572079728214964 0.16044737878720108 -0.7660558160297581 -0.6125331893868483
Ni 6.011486993582947 8.334128996396563 7.25968910808011 0.3610898417360491 -0.6885897633317948 -0.48773852680625024
Ni -0.24015560215564516 6.686811547475317 7.728343671513116 -0.7900976874703103 -1.1454097461823178 1.5201256633422335
Ni 2.70868284710466 1.5209479417754488 11.98881083552626 1.203716195232695 -3.258473707498607 0.22317458261309303
Ni 1.4232400357755755 4.529659137365123 2.4168652858078254 0.28951624326312075 -0.45293118931907794 -1.0111909620743422
Ni 2.274586513098421 6.0876963910260224 3.9719431483810004 -0.760259263952639 1.6699060493338918 1.4198248721379416
Ni 7.4993425552913635 6.642263757739333 11.315395208885734 -0.16185377221642447 -1.237549855952688 -0.44645483756611504
Ni 4.085732012627674 2.4566176804406505 8.045184979845857 -0.4931612404837184 0.6349336685692355 0.39595245794118905
Ni 0.5363467114791912 0.7935220431655465 13.433239225334155 -0.009974851824524757 1.256394756573333 -0.14570801569449746
Ni 1.2200057451379553 7.071310849933392 1.027104400175938 1.7662470845594873 0.06338154958043923 -0.8819081818154038
Ni 6.133028797862619 2.7483475492380047 0.864694198822686 0.5955482247930776 1.096647232066634 -0.07403414419827894
Ni 4.170627582914007 1.5433233753270497 1.0566392340008974 0.39858758157119095 -1.521858072652308 -0.664070952254824
Ni 3.299757985970025 3.648691056796781 11.809962444375694 1.2814470715562705 1.2900705515592235 0.604100742348779
P 5.596710701830627 3.24384709445928 12.41681300235809 -0.4354569437937146 0.20615465101632882 -1.9239482680601188
Ni 0.3948119403969562 0.7496499472150319 10.911859249408904 -0.6933581312547156 0.016008202502798236 1.0553470877662663
P 6.549448170131518 4.879469133186682 4.513553255986892 0.0808694219525575 0.8022150395591345 -1.4740512375816743
Ni 8.6020157361247 5.078946492530779 0.6384309347426016 0.16192730576683725 1.5505215020252716 -0.9992178488728661
P 7.405456196110946 7.051501575840267 1.136293562055135 0.19646673430460357 -0.1351037578160899 0.715644967677374
P 4.25317853268792 8.118719294515312 11.757124482662526 -0.8109529336527647 0.8502620156650323 0.3063631396171304
P 2.0527060278344664 6.501272680153876 8.324805899083396 0.5885553384150122 -0.10808326336318805 -0.37220857735703
Ni 3.411072075573471 2.628328825212464 5.34664584723371 -1.0274835285867787 -0.4171648303527461 0.06909865456987455
