# total energy = -340862.11749307945 ev
CRYSTAL
PRIMVEC
9.36013983553047 0.00000000000000 0.00000000000000

0.00000000000000 9.36013983553047 0.00000000000000

0.00000000000000 0.00000000000000 13.69951078673508

PRIMCOORD
 96 1
Ni 8.694259555182187 5.843282620946374 6.073404468632808 1.8501627495375363 -2.630395114177993 1.5383367870336218
Ni 6.332967700386668 0.9806899386076516 2.5350534920523735 -0.6760908595338356 -2.010923545800098 -0.561238138657298
Ni 3.536270217478829 7.886853886696069 4.793103003659834 1.287816208307408 1.9033611879373866 0.9069985491251283
Ni 0.6490423973923342 3.6766067951233032 7.071208487048714 -0.6557166667528578 -0.03801684556340549 -1.3840394870082164
Ni 9.147458809260101 6.365288263489875 2.2026075309028816 -0.86425730150286 -0.019097897171715495 3.653991134784907
Ni 6.163230923290364 4.475747460070432 12.616180641077012 -0.27124624130933933 0.37300536222671243 -0.049844948546585124
Ni 6.035109328226162 3.453751224047649 9.000619742421362 0.4024213534949844 1.1388614035408386 -0.13674000786793228
Ni 5.76566834082712 5.085710337331808 3.065046141979588 -0.21292025187493654 -0.5606912650148925 0.9315428141233957
Ni 2.8678345462105805 3.271967946889419 3.2507709740531836 -0.42104771034692 -1.3234938642146756 0.6866961458535077
Ni 1.3612732272773196 8.256607493491884 11.989812246598436 -0.5909102118004339 1.115610660543014 0.8543171595710125
Ni 6.721834712875142 6.843928377838426 6.5168439048283835 -0.34339550978007954 -0.04185730235541823 0.30594713512563443
Ni 8.161012384608872 4.658550992478662 3.79688833700035 -0.42335707520638705 1.7259342438730534 1.3137462979096084
Ni 1.895437691561643 0.2937352305309194 4.453820396321352 1.1411463429202733 -0.05492776238613121 -0.1438740478095522
Ni 3.9583750867815186 4.642152027359398 10.182764228218433 -0.9652391779345764 -1.233000803129425 -1.9404138698153097
Ni 5.366523894719381 1.9942901291327295 6.607575485015067 -0.34592496107015264 0.020861159719725363 0.9755104779535974
Ni 2.651034985655567 7.423732884315404 7.697426183274767 -0.5883285671161868 1.7239290405175667 1.5870357949012217
Ni 2.9281700080591953 3.07612573958899 6.507062558624257 -0.6030296207717871 1.78617930470704 1.012763962988417
Ni 8.65158667734045 8.046116667235037 7.785446130930029 1.3285877337978151 -0.7147970178547819 1.2430687288883882
Ni 5.1344766662538195 8.233338185679962 1.874997018029995 -0.5927313241695727 1.074143908757795 -3.0840546970226628
Ni 4.546875163233265 6.2409575250885165 6.417974619005463 1.2714084563733459 -0.6472117146056402 0.2887659953606575
Ni 3.197133628322917 7.623590591636476 0.4710743132607094 0.46346731296371146 0.25218973889852053 -1.5493555067416285
Ni 0.6491341267634351 2.0292128111304306 5.325410416186361 0.38647537168868923 0.20049308185517728 1.2210778264395938
Ni -0.014418359514676743 0.6770619762076969 9.433127471218086 -0.8956954654074832 0.016070423199301354 0.13425246555938813
Ni 7.683158522012612 0.16663108267474575 4.394830922591545 0.1535352250484001 1.5191535292369513 0.30695217935138097
P 1.872421107527243 3.7514785542494393 0.6970337067299417 0.3637596752587284 0.13109078000195487 0.6427858176238027
P 1.4986894412704184 2.154629325761146 8.501669996499876 0.5836895256822786 0.3696284753346795 -1.1055715311394574
P 5.2916240551735205 3.1618178204490683 11.093521753529533 0.33034227614054723 -1.0471635235142094 0.20764537662924237
P 4.935077605788254 2.5053350478436625 2.642416168828045 -1.618264671008516 1.4193525604872137 -0.059391454584439646
P 3.241940618063736 7.425501950758064 2.644060745409926 -0.030240286941780176 1.2475460479334515 -0.004503544297308373
P 2.137013542453809 4.523764977799782 4.854175108519229 -0.9683116462123129 -2.1173281359092826 -1.718807145909969
P 3.2842110098894177 1.125790827465428 6.100543258282804 0.25811433191307165 -1.8871655520141304 -1.0868330741896897
P 6.443567113542615 4.927954539318071 5.461131508842073 0.5397786832319413 -0.5998152275995476 -1.1411599697670283
Ni 4.760417395100206 9.37249529293438 9.749736075642808 1.528333910184639 -0.3737373552967305 -1.3134763320776734
Ni 0.2161892794329952 0.1387846664476857 -0.0842328350483819 -2.612298661687598 1.3570164214521532 1.1312504239628
Ni 3.9848736428617895 2.34089610993543 9.219277290748163 -1.099704787946035 -0.3585565337912341 -0.16027100111033687
Ni 6.933523637040248 6.331535598980706 1.3934459001699753 -1.3563412497619995 0.5964216285369663 -1.143393229972921
Ni 7.519898961732821 1.967716691933192 7.958319490909591 -0.22168514255176014 -0.4324338406966747 1.8468781652489932
Ni 2.462278404265687 5.821173970483075 6.3208313429816245 -2.6410366530522387 -1.1849188600205334 0.8017926073097352
Ni 8.157942258718963 0.5550553605455593 11.779318612299614 1.4837805490542961 -1.7647481314164575 0.2096788621195034
Ni 8.44014111681296 7.768420036436912 10.201724127616593 0.3084570460316817 -0.6490546813516499 0.58407596248742
Ni 0.6629468852260477 4.197648343256254 2.6986940100264314 1.0989689382212748 -0.7312777891186245 -0.4836358174917864
Ni 3.5102303082540622 1.6429759979561764 11.783963113722093 0.5059175117081223 -1.5910904245865694 -1.3072802305692903
Ni 5.521228287123028 6.068627989237625 8.939985692109673 -0.44053512964757036 0.21763205552830903 -0.8237128044215943
Ni 3.981560153334267 4.245619060286063 1.556346967091281 0.4790373994878266 0.8882822036625475 -1.824013344835678
Ni 1.8423937787015596 4.559296068891521 8.800428814119556 0.9959684886976331 0.2536413837433825 1.0127351666330107
Ni 2.2306991827955382 1.1509696038186354 13.781297160352986 2.2939999469751458 -0.0059325634343510725 -1.7189994644264333
Ni 6.263084895831633 7.775000214792416 11.340619150953579 -0.15669073995824628 0.332511258767408 -0.5786848733788357
Ni 4.539134327529138 6.081404580212394 11.611759939759962 0.1178316009992035 1.9471254775075302 1.1545073376082118
Ni 3.492586444527001 0.6774653982377428 2.4302657897654623 -0.3610368770109266 -0.09489376125610753 -0.8651073082079811
Ni 6.886788458478328 2.850527647520216 3.6950453347285763 -0.4051912029306377 -0.5493542427355184 -0.19643845216982944
Ni 7.59319821735437 2.803623986439948 13.410122684319097 -0.09381261237678683 -0.22493501694762552 0.40344002456748584
Ni 4.351959609783753 9.046331857691309 7.277947769230335 -0.09805390415164403 -0.22449484408641338 -0.20288549334675385
Ni 4.456222208221811 2.0868244722657434 0.3616598938171478 0.777178665415797 -0.6193265581595979 0.5545080190223161
Ni 3.6946999455659615 5.822353348111514 3.973077058535415 0.26989281260523845 -1.8514853250037018 -0.4976079634011623
Ni 4.661321593891505 3.6592343754535817 4.977032560899026 0.55719944981155 0.6593455217546967 -0.7629414387704926
Ni 1.497322860843813 7.069273746129677 10.16762607394481 0.8392553801418836 -1.768745939721941 -1.2350191191110342
P 0.8711594534292276 4.836103486398359 10.994186332739181 0.4690355510801084 0.16696281130821566 -0.5380372750608025
P 4.636564023834169 9.348795418686676 13.337748210520484 -0.2063171447361221 0.12125913862351376 0.34279592852286767
P 8.114202324927687 5.808528421467022 8.230200666782714 -1.0035038778427299 0.7067890599486408 0.8828903432230151
P 7.799074494636449 1.216144257999818 1.141592615658545 1.749043319086691 -0.2939771072479518 -1.031384920523714
P 5.789415015774364 8.662247876695954 5.300723983192327 -0.9182203859828767 -0.40189993377387556 0.36323182777971635
P 0.6458468456276557 7.60247411600345 6.271964860562595 2.2503981511247955 -0.3573314031348814 -0.7116291616497615
P 4.289499396175964 4.22486763010946 7.856053410313963 0.24278412931390447 0.7301783854068586 0.2582662841099036
P 9.201195372473395 2.2668106025615877 3.4592905548453543 -1.6320586394688152 0.8966483162390558 -0.3812172086135434
Ni 7.470084297141085 2.324001057401029 10.63438255466584 0.5342351277058928 2.208483770279196 -1.1859473012850479
Ni 6.000336408466993 0.9724717357682033 11.636528741985188 -3.0416381797296648 -0.3843578111250542 1.332222502336925
Ni 1.4248004968346493 6.74588091229945 4.329209789736739 -1.1826110378229635 -0.061907279027757896 -0.46150221881754067
Ni 7.712474480205269 2.9717320991922165 5.883624823950956 0.15980665987940865 1.0693277183160745 -0.2983389837610733
Ni 1.909384300024944 5.946543684414249 12.88334898650633 0.28795069854821376 -0.946045635725261 -0.97090126131636
Ni 1.4759068607337242 8.860598601491795 1.6569422627132844 0.6073092219837476 -0.7835416315193473 2.1318720951617287
Ni 1.0683944495480053 2.6755491920752883 10.456179531022519 0.44972425234600605 0.9046588452483582 0.4264197732921108
Ni 7.740788903427743 8.497312851372584 1.938083424997646 1.1735594691436564 0.30317265770429075 0.9756385188910296
Ni 3.687239914059082 8.510491928363408 11.545235553404007 -0.14638807248065758 -0.9198854323901254 1.0463973347721462
Ni 7.521012818381903 8.0071878453566 13.383518358657863 -1.3664459422961692 0.8983393307882335 -0.6683289562002296
Ni 0.22021413959354508 7.335878611136518 0.41484701681782793 1.8023453729439411 1.0461890754160823 -2.011615686771116
Ni 4.767222216813507 1.0488598375594762 4.363404252849577 -0.40133454818870884 -0.07016180572706626 1.4036683169827373
Ni 6.780887835556325 9.055401833262408 7.130115591547328 -1.1608168247660073 2.0062899036828283 0.7568530664845675
Ni 6.0831736466550534 7.493859052508054 3.561722309917357 0.6724951717627773 -1.4468417670464178 1.983102924043404
Ni 3.5127388257494747 3.71327046314394 12.500296492928864 -0.2742377198374954 2.4261518212517634 0.9262987921156369
Ni 7.300881048019551 5.5218273360771555 10.372296765206706 0.6572428735893971 -0.11902356442477567 0.595934918708535
Ni 2.4768053414032996 0.382417876091686 9.720336812204968 -0.9807676125874787 -0.20537894919256888 -0.19585172642842397
Ni 2.012336478875846 5.838902075469311 1.708972472421304 0.6279284408959961 0.09815520561619868 -0.22941927797122424
Ni 1.4930920776052814 0.34808675493618646 7.286249277314965 -0.44341090853346865 -0.48182678930750567 -0.6794695461980815
Ni 0.534377875474232 3.184525519866497 12.779999937723318 0.929504186426812 0.03486775841146253 -0.539126394359923
Ni 8.24971843051941 7.290949939576891 4.524002725353452 0.3743325656785682 0.20758212749147475 -1.3690957212141905
Ni 8.770825499631716 3.862180928944377 8.988536737813794 -0.7247312462493583 0.4086272251953801 0.7948349450449794
Ni 0.9388969139172908 1.834353418520368 1.6789301673717674 -1.2385304746984023 1.0701214178619636 1.042303881429063
Ni 9.089332340429834 5.236811075870777 0.14347596856970332 -0.9839172139600538 -2.7761229273668317 0.22740764685783416
P 4.751553342607088 5.873740516207837 0.02601650887499611 -0.1384724171780067 -0.040800578956129735 0.9595639819266701
P 9.675108616168279 8.617300484856509 3.502266701220119 -1.4222645919276862 -0.7194936519995029 -0.6479197964162583
P 8.475503725386348 0.8912023210147751 6.464182821690548 0.9494852575344294 -0.25630170418436504 -0.6410094424496702
P 7.312010254370467 4.298513210907614 1.7412490428669416 1.4167408338959793 -0.873489104513773 -0.706037526494597
P 7.021218787840693 -0.01085121019564058 9.730187423444416 0.21510440401044892 0.9244941348067304 -0.13691484288289968
P 0.9302855852016959 1.136601789059463 11.893326052396159 0.8719063334076855 -0.6598905956248894 -0.7026506123002351
P 8.538357064870283 6.534734876249024 12.225197300955283 -0.5185727385782876 0.3281622377700929 -1.3104262323974398
P 3.686041816150825 7.224577187487452 9.585137079342147 0.2798756348495632 0.323301824353998 0.5361143470064766
