# total energy = -381169.41012273 ev
CRYSTAL
PRIMVEC
9.26891524747762 0.00000000000000 0.00000000000000

0.00000000000000 9.26891524747762 0.00000000000000

0.00000000000000 0.00000000000000 13.56599438099270

PRIMCOORD
 96 1
Ni 0.5540938878645874 2.9632443345184325 1.6105416528970233 0.5055357028886712 0.32540267274708473 0.10777730208699504
Ni 3.6618888063599786 3.5566217381449943 9.104287995333655 -1.0333548997658915 -1.0943031573144897 -0.7177733268742864
Ni 1.3190685695819875 1.7264373859990485 5.165822179034383 3.0696238663093136 -0.026207511633303253 0.6886015904063367
Ni 5.993178512816632 7.151134801011558 4.140260292729249 0.06393125143632215 -2.4259990977239836 -0.7661913131663579
Ni 5.066120167415003 4.210098786951266 5.0181831925629945 0.037117216567271565 1.115028305676983 0.14613738992243216
Ni 2.9734957545629666 4.128133771170241 11.720693236273025 -0.7742645770927956 1.3582950310542605 -0.07467074934101334
Ni 2.6508911662718218 5.156167677119024 7.485200402761171 -0.09854267086260449 -0.05724149812097238 0.2976990361842292
Ni 3.58505876951627 5.821036222520895 9.743924700188302 -0.2675654500236424 0.8950771150971939 -0.09878152634628794
Ni 0.40866183006643925 5.384451785868417 7.133908522392421 -1.1573939151273873 0.20390853529462946 -0.8716448522161828
Ni 0.8254969894233578 0.04208087432385566 8.34955731852875 1.8706984075970428 0.1205772820651407 -1.0589286344699373
Ni 5.90380763391121 5.682586438429389 -0.08212722179438835 0.7293592319396729 -1.298899462704763 0.9084599641620031
Ni 4.535076217495034 2.0093710178791575 10.713241883082732 -0.3171476318271441 -0.42960254189546654 -0.05287370807057991
Ni 2.1704184168608736 6.5046928587277115 11.626233723005534 -0.5900630333087903 0.9261365555061598 0.018936946113819
Ni 2.026388745909686 2.625976322619284 13.369748158091426 0.49360526999967247 -0.11598966269445832 -0.6316812230702088
Ni 1.1695146252614124 4.984720555451985 13.522704721126601 0.3995417179543442 -0.3704759109366394 1.1433276668423085
Ni 4.117493056693636 0.6376503763595789 1.9991121827025837 -1.7326828754507966 0.9504995577315566 -1.0295571232863558
Ni 7.69338486922614 5.440074545079311 5.403999927707406 -0.16221475510026903 0.48603645651347904 1.4710926691739825
Ni 1.7996432770584783 2.561853968308175 10.66615394084924 -1.07422129896295 -1.0812694640589828 -0.9940784707637719
Ni 0.29633370236689255 8.141898399547078 1.687215971967904 -1.4855911199004739 -0.0014225913791394854 2.6960934848170663
Ni 1.1117507466741285 0.3581323396751399 0.0899195986763411 2.01867773582422 1.2507321589709168 0.33326150666987125
Ni 3.7261316565667286 8.377097118923253 3.7677787456662766 -0.21935340909478995 -0.2072543118384108 0.5301738131523257
Ni 7.580072382748358 2.386662204961216 2.1543748518020274 0.5263495543102289 -1.2389197397170213 -0.1536357551820064
Ni 4.353414751443657 7.9131508450452195 6.114627252924698 -0.03396015899552861 0.2748169893797332 0.409568763173043
Ni 3.452782082847604 8.493051246190088 12.884940337111917 0.06701683234018135 0.17531349726575615 0.8201024613625166
P 4.932768286600617 0.5568801237284092 9.050620977198166 0.42172648158149945 -0.4850337262805775 -0.7725329391136695
Ni 3.445320606232911 6.000649258346375 0.06988669258027298 0.07622960918770097 -1.0055383917742553 0.5442074084272562
P 8.678373933685942 1.5960144823402438 8.23090871765708 -0.7792100940235289 1.1667280480441198 -0.795665668476391
Ni 6.529060836392341 9.033354842244316 10.226887080181493 0.5518973208723463 -0.43536772651401795 0.3692798337460092
P 1.8583340471506928 0.3900739478265582 2.2585750678948364 0.42672573456830376 1.0711927965492714 1.0827087676086709
P 0.9193614383446842 6.034619832002085 4.841770713104041 1.077626725100073 -0.27362528306447714 1.331850720819803
P 8.473975819018614 4.209755837094441 12.901586381648967 -1.3974282496102965 0.835807273692283 1.7587615748157193
Ni 7.083286342850628 3.1387790477222164 5.88627084663792 -0.09874784489487509 -0.23934939260074264 0.3087630073078747
Ni 6.560881021756613 1.3489237449558067 12.164233066778504 -0.2409982410580753 -0.40663667712791257 0.7012547603939728
Ni 9.293106917586107 1.5444700457510452 3.4813053151288376 -0.7324782371846288 -0.5966771961911982 -1.6231556805522307
Ni 0.7422315448609145 3.781772953607721 4.172546704520502 -0.4598418003959823 1.7816094259481703 -0.2669972362249982
Ni 4.98760318803232 7.307621893789015 1.5338395270809946 1.1756909136643623 0.560616445912899 0.6503638870813767
Ni 8.149545254462755 8.738139897923876 3.9841828859969715 -2.4404399557396617 0.019068586595676836 -1.4108530076566346
Ni 7.372077929041899 5.681603933434164 10.782727231641372 -0.0003537837949929391 0.8557050410574746 1.393080257054246
Ni 1.5299827315289776 6.246618457009845 2.2484413630714286 -1.0451212962732 -3.2688344819076414 1.289369668837457
Ni 3.0261617298731314 7.94927180699237 8.5238258979368 0.7201171445161146 -0.288047114916762 -0.611482893745463
Ni 2.8217543462907546 2.903014924528033 3.369087487518377 -0.2735972580400191 -0.3983032175615528 -2.193284693941255
Ni 6.612638643391945 7.487142240464001 6.50269633442609 -0.6394289853364278 -0.6413300590138826 0.2096544366394712
Ni 1.0683814931584192 8.745999937885687 4.181663609363 2.2046242873237905 -0.7800590722873856 0.013989115190240424
Ni 8.111014374602785 0.3938945946098827 0.8552650369957135 -1.1431880559406504 1.9358339637541113 -0.36806678727451453
Ni 7.4442178948706585 7.509962309315396 0.7679175622455552 -0.6626218785131234 -0.9775506483120777 0.126944104823433
Ni 9.306361466106617 3.0341329968155355 6.468496818568661 0.09550182715375165 1.209143536895853 1.3393066628772161
Ni 1.8528561183565522 7.5521636795348925 6.485861204022033 -0.5571076614286921 -1.321533912274827 -0.1260665873144861
Ni 2.8270098211237125 3.6743184214411 5.452037006841947 -0.10510104080641254 0.11429222038737737 1.3868774706776437
Ni 5.849630825448009 9.195533048862048 4.735386740625616 -0.14377608877910722 1.9737075988714332 2.3171010517689834
Ni 8.10878983499095 4.800473062101853 1.5378409177077805 -0.22927272509103092 0.9062125628887232 -1.756567395377878
Ni 8.388618380329541 3.868465116063893 8.810190882168161 0.507320562703236 -0.31124129364503816 -0.26458785545255725
Ni 6.09171634870582 7.492008420864887 12.104434661337896 -0.2615351846691625 0.8958047372918378 -0.1622360952565077
Ni 3.900424335153905 5.534107688254534 2.880467361779088 1.9277984950441445 1.472709635952115 1.7508207227020878
Ni 2.7437008126605376 0.32806397925518666 6.333365306064808 0.3990997453209191 0.5977676010418995 0.2324009863073675
Ni 5.631394220612065 7.196784207629397 9.02279662111165 -2.0306163962433352 1.0026417869527506 -0.2659276573099033
Ni 8.61680979992844 0.8483689641990287 5.870670335718431 -0.9572641301488997 -0.5930570829401076 1.0327481194198278
P 6.20184032840664 4.237914801014238 7.563285450702557 2.115596755040473 -0.6938988342495339 -0.31479250133140624
Ni 5.562090542788393 2.937476750681358 3.213661685514066 -0.48346998133788344 -0.9628714490333482 0.36645547692333663
P 7.156019519242543 1.6573932377967575 4.380527254854386 0.012329725209946506 -0.5622809780995155 -1.5935897939696555
Ni 7.576179438427648 3.4230752101145736 11.08237271735538 -1.3630150622377495 -0.6391258522737122 0.32554485475190387
P 1.181378836524526 7.389114194902526 13.598959158345748 1.2766280529010723 -1.2192531145260292 -2.1387963330853874
P 5.699372443583686 9.07009682149977 0.3865341491692277 0.3378285572152634 0.5838435347616396 -0.6345035230103524
P 6.124315122934234 5.5328100401476314 2.6516224836692124 0.7255378013110537 -0.1598159158507893 -0.6457369298323266
Ni 6.21844095525995 0.30649521393544826 2.553853040837613 1.6052132371411967 -0.2964181125892766 -0.8061529411609599
Ni 8.782269202473628 7.588229027991749 5.82050325990556 0.9862494616376561 -0.5568688059450088 0.4618320913531337
Ni 8.086692741513403 8.653755695314981 7.874435513775767 -0.8263479280515962 -1.4816884424119579 1.2187291237017592
Ni 5.037942665665108 3.716371489019808 12.32269814602748 1.5903432620078999 0.7635299642841108 -0.8837935717635746
Ni 7.420072371167213 6.093514518225385 8.659526521824679 2.036397521701486 0.011319795888193407 -2.6452000404013085
Ni 4.418399114854352 3.3392564113236864 1.3573593845421812 -0.8948763119402975 -0.05293412899487012 -0.7400593919659965
Ni 5.643443810176165 4.623622162961067 9.496793179577647 0.6512455183553816 -0.29694621717860475 1.3670488659874909
Ni 4.956237179505464 2.6401299558995763 6.911562080623614 -1.6593606697178778 -0.4749388039384208 0.4811657586847391
Ni 0.9523346767410904 6.522702360668515 9.2074982912992 0.06575673468083514 0.702938575854299 0.10700957068303506
Ni 7.547075045172823 4.094311500155317 3.608771434886913 0.11812753497306752 0.048601305947471134 1.2069151617859666
Ni 0.4439226366970145 4.522071929680855 11.215577222420482 0.7878605706096754 0.3916898260100931 -1.270315223309167
Ni 2.1248060859032316 2.3329581111655284 7.387890698116018 -0.7091076807794885 2.5178592143600893 -1.701302304256986
Ni 6.272154317970687 0.5639532328025357 7.235002725052206 -1.2984875719783249 0.37442898204711644 -0.3336291744219351
Ni 8.824470572693123 2.1028480261514226 12.727303898868346 0.7263117033626008 0.03829323915324373 0.6085235540068229
Ni 8.351171963530339 1.1584568096075887 10.46537719129168 1.5854003161803278 0.5786807596137775 -1.0437627253627766
Ni 1.668775465477307 8.729352966457132 10.356930885214782 -0.06837180370617903 0.14592810212510351 1.68502233615004
Ni 4.136716786505899 8.384540057707847 10.745420775459413 0.29756071083415203 0.016571274095119846 -1.317464370191144
Ni 8.906287285833361 9.014863356720948 12.137182665098603 -1.2792210104392292 -1.4091141705886572 -0.11077572259368663
Ni 2.7377687070289802 7.785137859299234 1.501552188398237 1.100758168911214 2.2870409991588097 0.36934154022188004
Ni 6.66036428698083 2.1410266872395196 9.195126143491382 -1.0894656267165301 0.21590350287297655 -0.7614962216835337
Ni 4.323856181351416 1.7177246058526996 13.180285973134552 0.1470915263055854 -1.6576992228550549 0.4336412307412144
Ni 8.716079880106523 6.379432740751371 3.422402286881994 -1.0370398048166463 0.4532713462673162 -0.6566803162177077
Ni 3.352687069230133 6.020901837729111 5.267783952142785 -1.1488663372723504 0.034125223818483166 -0.8829793033923955
Ni 4.86715363696657 5.705489927516228 7.097104441406135 0.06954011298266734 1.0254369304703952 0.28130105444218007
Ni 4.083856163979699 1.5653621802721842 4.651670826791776 0.22280408664755175 -0.578519551445565 0.9317253624478471
P 2.715597462231037 0.985461779127315 11.73610466132551 0.3022563165376085 -0.5387859803013688 0.7026053608845964
Ni 2.891641965762533 1.0869471300021818 8.818004577554728 1.6525804135712507 -1.3078029358419798 2.408221204915272
P 8.810789654080347 7.933051205656082 10.241511574346292 -0.6777494781831811 -0.32742690226596516 -0.2296509343660561
Ni 8.907269790828588 6.53763458281295 12.405396332988909 -0.6643722855453268 0.2006496620376996 -0.2624895781626318
P 1.594392422206615 4.450534443330301 9.340349650700922 0.40282347402940943 -0.44178520000458754 -0.6178260623546715
P 2.7239024101152167 4.419344544189381 1.7650442709624234 -3.960820158294863 -1.2961015882446518 -2.1025432642906243
P 4.485589480046781 5.860299346669761 11.730420035725768 0.6066736452822779 0.5694903513637611 -0.25314490372293824
Ni 6.448059787776443 3.1974512799843327 0.4588103680492121 1.5163258299801692 -0.11622183330992242 -1.351871129805788
