# total energy = -340891.87541185436 ev
CRYSTAL
PRIMVEC
9.11182662462930 0.00000000000000 0.00000000000000
0.00000000000000 9.11182662462930 0.00000000000000
0.00000000000000 0.00000000000000 13.33607930269338
PRIMCOORD
 96 1
Ni 6.195158294055411 2.223950872852431 11.503061577138153 2.51437716934876 -0.1295889986454478 -0.016014887371017583
Ni 4.765977391390918 0.30562889044349945 6.1666300759083255 -0.22709191538962828 0.9720510586500872 -0.223554334550015
Ni 2.7927202059385223 1.5656760663054103 4.874150264167677 0.17068756845797056 -0.7588384723457124 0.6166364129219445
Ni 3.37179501499777 4.346195536321691 4.758420042343937 -0.12429098347130206 0.3062932056111435 0.2572586687809957
Ni 5.1652211891272595 4.701784572442303 2.69536853852491 -0.533665885465984 -1.8756891759434147 -1.2477278249269543
Ni 7.605623504722679 6.011992354168248 2.4179781101401265 -0.8021672170403346 0.14284637787598625 0.31002490473943384
Ni 5.1060489866783865 4.578273761817961 11.584945918765353 -0.24891723879483585 -0.5120835313095181 -0.12509753853299743
Ni 5.594698027782196 7.878021563270423 12.276914438003386 -0.1436794153002429 -0.6425652169725643 0.6609846000200165
Ni 1.941784936105551 6.565954968902105 0.644540550194821 -1.1745999945930288 -1.8783878058215004 -2.204392116708326
Ni 2.566573779609824 1.581494197418937 0.19859135127085523 0.36916387699343517 0.005970101540505848 0.23773139738134544
Ni 0.527453577378681 9.033501416172175 5.062856194675247 0.15458603491041764 -0.10328275665075116 -0.6123359857743776
Ni 8.596179294747223 1.9940048147988818 1.1111462601984903 -0.0012978928758171195 1.02766941934534 0.596702907222811
Ni 6.947321362695623 0.8861570358579356 4.936202715029561 0.3832887464305915 0.059136915371472344 -0.6192885058328109
Ni 0.6296445359411381 7.536082043513902 2.650839041548063 0.9448369601291405 -0.958816305127368 0.12840577697062402
Ni 7.661715909754287 3.6522388165024515 3.682678695886644 0.40684725047682185 -0.122075463877222 0.38303780676205
Ni 7.722209327071513 3.9007092181929823 12.800222134243443 -1.082316931486891 -0.42528565968766757 -0.10200209016611467
Ni 8.12522542105267 9.090505003871613 7.040196389662188 0.1132691784395017 -0.8791445030273376 0.38229964304444486
Ni 6.828585149250711 0.21490425457301363 0.349755644681165 0.0458733654933468 1.4550502709991393 0.3744024996845552
Ni 1.8114493672991647 6.653838537214296 9.352726063202365 1.2598989130718494 0.027349595657546445 -0.26276082954614743
Ni 0.12289849587155899 4.681975461243681 1.309456056024986 -0.3836723550222554 0.4785275497309437 0.7783420895962789
Ni 6.6624218779452535 1.921784476546685 7.099141707626771 -1.2272839552503059 0.42391577592333446 0.5584909149294639
Ni 3.4529540552213773 4.362806396356229 0.8783937595280249 0.13854363673557432 0.4520261610063054 -1.8809170000012574
Ni 6.121060919507485 5.694873450283414 4.418722943132946 0.4182094695671766 0.9633553306483023 2.4181256085131775
Ni 5.375531260689074 3.191872885408081 9.177716119374947 0.08545447022007864 -1.6464935839472226 -0.42077311652929467
P 0.038314319999578766 5.68230824129404 12.54885052693854 0.23036184439015164 -0.6006775755998429 1.3584860640191443
P 4.025741703872599 6.10443183581959 12.68835897166197 -0.1903120275571174 0.20673032101414077 1.1059389417812049
P 2.1963329261905074 8.450918553841785 1.306136617566082 0.5435895723375993 1.8094220772850647 1.2351733853007116
P 6.49961175885741 8.001350137361198 5.824252277288579 0.05252249537874825 -0.5694001056428001 -0.08071464154224808
P 4.923466203698634 0.7804060866122672 12.716991975815857 -1.2282699733126587 0.1461481885557096 0.046297083294326725
P 3.9902511389606246 6.323808174926313 8.428641959978679 -0.10067668648647178 0.5079918777386476 -1.9908432301104553
P 4.536122451604151 1.2925217261433677 3.6886925014943213 1.3671306270680197 -0.8962932468924821 0.5165932462544135
P 0.1577986144147792 5.427022193248141 3.6987619811565096 1.5259864929983848 -0.8833721679554399 -2.3362040911470214
Ni 1.416232996954631 0.9283949084251897 2.7468722276413264 0.5949345024684787 0.3415196329136054 -1.1817895703629324
Ni 1.6534320690441062 6.671624822890336 4.808589760034651 0.9146151851301216 -0.22043327242253005 0.5700032864444378
Ni 5.955663041643004 5.547535212895322 9.140201817757722 0.568266249148673 1.1801823737768127 0.33074979599161103
Ni 8.68120174948243 2.5634939821925586 10.407396310466092 0.2712660388036812 0.6453386659526434 0.24413987201085052
Ni 2.471409861781671 5.310664166566266 6.992839492867065 -0.3669817817404519 0.29862617598418895 0.14419286460155165
Ni 0.6960697524259366 9.200484751878681 9.119224570378943 0.10245743253597839 0.14044162508923555 0.3941639985821986
Ni 1.4957336847227882 1.167571246903856 11.30051387072358 -0.29813535239069944 0.3245416102983701 0.6378824667849143
Ni 4.129898994632232 6.879675161435933 1.7065376172905673 0.19006520165363397 0.3828066645878504 -0.5604683503708089
Ni 5.691511186239121 7.941394317817991 8.049910706460523 0.4792068351861554 0.03095556784124991 0.1781378540884287
Ni 5.18000057199946 2.91212158273095 5.179226066731805 0.9565920437825396 -0.5439274152929923 -0.5541218393274908
Ni 0.9822366922672576 7.494923922408026 7.1691032240454176 -0.07057266801223976 0.725610563530518 -0.7808329743389326
Ni 5.005591097550142 4.7313888973200955 6.944416512350582 0.43331212953656983 0.186890146359762 0.010474674279078734
Ni 8.338970651272204 7.317343532274661 9.188091756413526 -1.1817561460218355 0.7834914950077022 0.6539971129585899
Ni 4.804010155946138 0.3574159573696109 10.353278438275671 -0.28655664641416456 -0.8999763521710243 -0.09993646588633756
Ni 8.348364944577531 6.85537391968491 4.828914600623263 -1.093814133493213 2.2830997551228744 0.6996606764339757
Ni 7.330291437984523 6.143430454002709 6.921691616614905 -0.13144893467232202 0.2614606226774852 0.1773104730911269
Ni 2.233399837117827 5.417500334369319 2.576877433217644 -0.8053882950807936 -0.7218986618965696 1.9992885326643308
Ni 2.2878247778673058 5.334373139583199 11.52653364266145 1.5514926076892894 -0.25309116766686734 0.6600985978706373
Ni 1.3851343325015972 3.1736401202248055 3.9727117837875676 -1.7898104737017237 0.9287783640043811 -0.9148869507342696
Ni 3.398437996205116 2.652972120173453 2.5250001592074174 0.6191486378208368 0.5014972711532396 0.4975249167690528
Ni 1.0216544544775783 3.699875446376598 8.532983309637215 0.8290882098008947 -0.4620622050860687 -0.7446089590098918
Ni 3.6118643124909093 2.66761482564548 7.0808579162140965 0.9426996020711635 0.07427377101291079 0.6029326901826068
Ni 4.064102494188237 7.160820573594843 5.719217517619825 0.4675743931535496 -1.081882929273266 0.377229427610389
Ni 0.9218617286968495 7.33892944967555 11.573623562934898 -0.700245088182536 0.7789833227247035 -0.048301772429181336
P 0.16756558143124772 5.811322595232073 8.156586506114039 -0.04817784525680735 -2.5865688610216617 -0.8222624451283129
P 8.68972130742664 1.8759975474882336 8.169028705443257 -0.19552468210630844 -0.6701580389891684 0.5598510285017843
P 2.112531456230193 3.3169053710876977 10.64984652827027 -0.9759753334051577 -0.44597249861305777 -0.14937029503743307
P 4.000766186947382 6.162501507240388 3.7537728123614027 -0.8360502429410247 1.068861063092301 0.7675241730451685
P 6.947421592789085 4.029140415223605 10.434641583416873 0.6463365110895385 0.870845753353655 0.24447977184877248
P 6.432557826331808 7.832918021212844 10.201180182630836 -0.16449120983927157 -0.5855288928838626 -0.09856426812915928
P 2.527611608733418 8.689794202040066 6.015611571724868 0.006010724970454164 -0.36889211138928724 -0.6746466708881413
P 6.793449945579191 3.6898433252037908 1.6284419731962039 0.6447406273573283 0.05289196290302504 -1.0768204271486939
Ni 5.142386951471442 2.6540199802414572 0.4626794238879903 0.3180621732216135 0.33436168171258546 0.410138519633584
Ni 1.4926265518254884 1.202551549521845 7.052839049178327 0.2731041204536845 0.3792397731721985 0.8239676007448776
Ni 7.140437417315489 0.8970666259398627 9.540377755363254 -0.559468705461701 -0.5785092670329198 -1.04794848130935
Ni 2.768965673788198 1.640739294481236 9.247197442527648 0.4062291572768488 0.7471324967626939 0.298980216889498
Ni 6.4786272220172885 1.5940411827549543 2.540923076327745 -0.8939964804385054 1.1405380199123132 0.03797339391997976
Ni 4.2377374633699 6.876148884511431 10.557467184675005 -0.3702686800218397 0.2806415664813102 -0.41357222790548126
Ni 8.313457536572967 7.481237958737221 0.46036319754636673 -0.505429002107478 -2.2460925817709056 -0.24120392931097812
Ni 7.73181319239044 3.9349787983300644 8.038455317960565 0.12370014396483857 0.3265815235465343 0.3913825791823195
Ni 3.013253747033389 8.210849256348645 12.500894071947986 1.146452071403903 0.6762060449554612 0.5281282434772067
Ni 0.2663578286426993 5.051979407169362 10.412663857468816 -1.518178824028508 -0.40165825007671474 -0.20927468470254923
Ni 8.780958027956446 2.210747835995576 5.908336213875921 -0.10503882010990942 1.3668910002533878 -0.7077318834778844
Ni 3.980164346827748 2.347534578090198 11.44599694019997 -2.1366363493195912 0.5842657099007228 0.06609457763622811
Ni 1.0395227465937225 3.5432431457766405 12.776657128088026 0.4644283913254001 -0.6833362282423393 -1.5358027077578582
Ni 3.3088140689973686 8.61071265829911 8.266649171743879 -0.4778099548386287 -0.9614442296685183 -0.23786432341478386
Ni 5.562587950567871 8.442353436764183 3.7123513594645243 0.003695960794348473 -1.0312345109887788 -0.32817715016842836
Ni 3.002583797993101 8.32013650552816 3.5787765362740025 0.2677022327118228 0.005932306324034945 0.2992314136683556
Ni 3.401782036596051 4.455993047795191 9.180450578561103 -0.530140645921545 -0.8211591847618053 0.6130037012653636
Ni 7.189459044844736 6.0816796046038775 11.643770960617783 0.10454156875851672 -0.022861992199838043 -0.8915302782862
Ni 0.542772380390237 9.238754423927535 0.0330403947181794 1.0362782440602734 -0.1728236409643669 0.21537025607732585
Ni 4.197463189451819 0.3234224655808814 1.600556138829938 0.696902139852232 0.016653806506597126 -0.3107998352322454
Ni 5.952692586145879 5.690864246544962 0.5165248524607294 0.16638277043502958 -0.31466240351144514 -0.4329220931870028
Ni 8.046699698739092 8.635979753678033 11.413563393138567 -0.09304590941409137 0.23915887385649137 0.29151990395671085
Ni 0.17847517151317488 4.704937264472994 5.694399635296143 -0.5151261747905839 -0.04949090764127606 1.556664381698216
Ni 8.008229566503314 8.942310254775762 2.554793098897451 -0.45419128697842426 -0.3291379714198009 0.13052796551994938
P 8.783463780292978 1.519843578113567 3.7170056805317997 -1.4853687194770224 0.5413185169152355 0.5831400809367119
P 1.6051758349558354 3.1092103937825537 1.5037366020943381 0.05244587650454193 -0.18628953666128562 0.10605080631419156
P 4.892203526365392 1.1272787493324186 8.286799976442937 0.1434225620944304 0.6343261168922237 -0.268142405573035
P 8.328154913005063 1.4802618030230368 12.30444035521586 -0.05409832450630038 0.8554114210764558 -0.16717904108407983
P 6.24818912532311 7.636166347748336 1.631922690987314 0.5156738197639377 0.14459832757008645 0.009271397999596935
P 1.8101008169507764 3.3115202815208233 6.206304791630974 -0.11653216546148963 -0.21764953902980583 -0.4787908306946593
P 6.9915775048721205 4.140122464165284 5.865074171990026 -0.49239633729323584 -0.40259104630362924 0.311866843044179
P 2.4742071925719085 8.49207667494766 10.438069452613249 0.05944364797861375 1.0224904462475617 -1.2877095075262146
