# total energy = -340894.9930607848 ev
CRYSTAL
PRIMVEC
9.03622062109764 0.00000000000000 0.00000000000000

0.00000000000000 9.03622062109764 0.00000000000000

0.00000000000000 0.00000000000000 13.22542227416028

PRIMCOORD
 96 1
Ni 6.353565419611819 1.9782364971621968 11.393079138234818 0.29696447201104986 -0.620736294022931 -0.4367319538513962
Ni 4.5944753416434825 0.20489810673365633 5.905362558218575 -0.06929714373392581 0.41352440538668134 -0.2329404037506053
Ni 2.699254602073814 1.3588758727029517 4.9588853304825165 -0.0945122095469727 0.8953473380394451 -1.0387729854576693
Ni 3.3239646690599747 4.143161309537373 4.745096486414008 -0.23802321759015135 0.866778782373133 0.3318440574970543
Ni 5.127124394331975 4.578183036109649 2.832792772018099 -0.11697233832270176 -0.696246251435788 -1.3982844269630048
Ni 7.336064636687906 6.242302436784257 2.4906118855713166 -0.07964609106841766 -0.8609161529447691 0.9389439916834733
Ni 5.250613383475274 4.3408918861826 11.667322104589767 -0.6912732237012288 0.949205007289849 -0.08249153093701278
Ni 5.757979091247702 7.897647667368265 12.257188505387097 -1.5320219005591873 0.9298083479307923 0.10750219404873744
Ni 2.07698431461851 6.373472213339514 0.3882403095011674 -0.7916174665489464 0.0980446481802634 0.4060908319267716
Ni 2.679483351653388 1.618983479353755 0.256081066802841 0.4043445386596263 0.11214303525485847 0.6832205286000814
Ni 0.6122834565756629 -0.045097969194817775 4.542020081730058 -0.6807422422629179 0.050662045131241784 0.394922731125094
Ni 8.403034442854553 2.3767790016379196 1.2528981752368658 0.5811862996444507 0.8559958328250161 0.8714916144677701
Ni 6.77599969104897 0.8888351772644421 4.780897088352164 -0.23656257388422483 -0.9273858545322287 -0.49989341700122936
Ni 0.8965665675111131 7.372860126501423 2.578705999076221 -0.03871104341695269 -0.5782871237197847 -0.31884533124454123
Ni 7.573708199213856 3.8915929312445683 3.6181975623710794 0.38037260122506106 -0.1765874788821733 0.09893784941849412
Ni 7.47844836286462 3.872770483975031 12.47778885245694 0.8719664972216596 0.12005251990992227 0.7593318670423632
Ni 8.101965648746807 9.014515483051179 6.491473505782482 -0.3531384480994563 -0.42995478302856277 1.0268037289109349
Ni 7.043869411096091 0.5764132757397752 0.4687918897675303 -1.8762810438911426 -0.5109324484242103 0.2620267795936004
Ni 1.8114820843383674 6.66862228302981 9.243776143833514 1.168052423282498 -0.4109530451150793 0.5328462177781662
Ni 0.06385806654301068 4.863854110511542 1.4521115956636255 0.14926745091098165 -0.6705809854591999 -0.0834631508216627
Ni 6.299167372294193 2.0603847775881983 6.956466568458263 -0.09130810078737824 -0.36126801918512624 -0.48038491465465655
Ni 3.535267648873155 4.29855719321199 0.5964971793889701 0.12046003976098608 0.19343540367744752 -0.4181477630913057
Ni 5.8387267574985815 5.580155308330169 4.804451804289515 1.2592705354592313 0.1948309984733935 0.6128381222217768
Ni 5.245661534649684 3.0915621144151246 8.854010520314537 0.579797389716724 -0.41217149090321276 1.0820096846591172
P 0.2624308189374083 5.4553018498936865 12.530901949221647 0.04433327469973655 0.5830932868591764 -0.3568074123106113
P 4.116893016588479 6.11534353897485 12.545318335382866 0.046740341479332405 0.43353890083539526 0.5299663251272099
P 2.367860252019565 8.584852235226302 1.5096289462925534 0.3550161247381434 -0.5164826888184783 -1.4414252240165368
P 6.3006944935561 7.764489922306384 5.751670002105315 0.2539416885926207 0.30373495796566397 0.20309606669566313
P 4.72799453552475 0.8779049649662031 12.608747181452856 0.22195125172895322 0.4367787479289317 -1.6991279223134867
P 3.9280179360182137 6.133452124826099 8.34402430860156 0.5813166545747278 1.0996453954630094 -1.6565751365529406
P 4.614219483402454 1.1489102535215008 3.546635214242851 -0.2604902883444159 -1.763233494544144 2.0547685680095062
P 0.10739909494832235 5.496696775933892 3.6611403929803066 0.5490405681498415 -0.5025113142400507 -0.2815327108370119
Ni 1.4401205310804879 1.1738954031615727 2.747977902927076 0.1972511778791119 -0.1731666261260824 -1.8190554866097703
Ni 1.723089775557469 6.402848966135128 4.788052871353963 1.0474450593103701 0.12537804588789375 0.3839523481565194
Ni 6.151985413040127 5.76929243929449 9.219640398919001 -0.4884882604880813 -1.0800548749255916 -0.6835889676830937
Ni 8.622732071497978 2.3944809575673593 10.076991576770807 -0.34845029859516763 -1.0506818210801132 0.6017281283515444
Ni 2.5289670270404847 5.221363137766445 6.958515983264183 -1.3795148596649855 -0.5265025349483256 0.1630256810373386
Ni 0.6033231403430787 0.046578102110204314 9.258721148893086 -0.6854782142860066 0.2507046697125618 -0.541289720559829
Ni 1.3422311545702166 1.070728873888263 11.542645756074783 -0.007746733824954401 0.1018640219263536 -0.6198022122444358
Ni 4.01737712039097 6.8844343368648335 1.8080871763022826 0.5355913846234711 0.15680104028386543 -1.2430931543684203
Ni 5.554564731917626 7.984350202918533 7.888448794914886 -0.08366395397855914 -0.3946813045382493 0.0988450325943717
Ni 5.279926882727496 2.8141140006542678 4.7399783711315 0.11354402936744315 0.70719555135844 0.5522709021616811
Ni 0.7203693042808191 7.349772583163128 7.14627780147074 0.3086930733018877 0.44351298132897166 -0.6152230775141856
Ni 5.070141987955738 4.730380097732699 6.9871626094446375 0.35517399047224635 -0.36579830295531196 0.5790090894874738
Ni 8.36793776249215 7.089276419031485 9.384667086386163 -0.2718748760322737 -0.3153956821330439 0.052037585322529736
Ni 4.532098311637907 0.0643767455988299 10.277938144286521 0.06824890497506955 1.4990379894339991 0.09933945573228697
Ni 8.228572133957313 7.104421124563768 4.787338106313626 -0.46401290105453635 -0.0003414424998187668 -0.0267232749274572
Ni 7.43875224627553 6.397436270064819 7.024696358471751 -0.41687712390899817 -0.5195770114730859 0.4001958065985753
Ni 2.402306324507071 5.139359436868198 2.5932272053950625 -1.210339099865851 -0.23426066522392555 0.21428473632263098
Ni 2.4716141356243773 5.187639962917712 11.458386614543565 -0.5902556089355706 -0.03701694354398141 0.16291229538792587
Ni 1.1392414976029195 3.128746161709482 3.879638011543369 -1.1154309404320402 1.5412315920829134 0.7474916798743255
Ni 3.5400478095095376 2.7595984824703423 2.7192129022582723 0.19307184969044167 0.11803548947989348 -0.3138093114825305
Ni 1.0963736676237146 3.3970044392374437 8.243312920433931 0.1522689567414668 -0.08192897356532342 -0.02415551420028098
Ni 3.7501218633368043 2.693516602066058 6.677647660049885 0.1575893405131157 -0.19988321618532026 1.3615644458341518
Ni 4.201056374182559 6.790060050123093 6.104391639747448 -0.9096205601290076 0.8344214490883501 -0.6481280557723225
Ni 0.8371425743599229 7.382140324939163 11.584755447155327 -0.10276853601849398 -0.24795590332283102 -0.006721120773917458
P 0.33118922784924754 5.519386725570862 8.215923232522892 -0.7576786477096564 -0.9243123578132275 -1.0734332558440158
P 8.556270669833339 1.5440641753154778 8.010519097442096 -0.6993166628309956 0.4148613790305501 0.4362961518655583
P 2.0641799901917532 3.2235541870344853 10.61997445120555 -2.2065009355212126 -0.5469096378497678 -0.5747659979404037
P 3.9212136619932685 6.089093318466926 3.813550709406794 -0.7145823307408145 0.8088785676222392 1.2082125404411512
P 6.932073291259937 4.016527715665413 10.290886144618984 -0.07887707411287706 -0.5757129352347052 -0.24413087314978604
P 6.347709948737762 7.736739689198008 9.932000900984267 0.19755662493467266 1.0878252628996299 1.337121225190123
P 2.178840591921545 8.368922710524979 5.8046773750903515 1.4898573513759954 -0.16225897807464312 0.37866744560849624
P 6.717291366560164 4.190583394640844 1.4287818816163425 1.2936335863201334 -1.3408590949660004 0.4473220706624167
Ni 5.298803547319942 2.6686127784103477 0.5000879357940855 0.16110275298301285 0.2961520034120835 -0.2193611224042738
Ni 1.4380873814714403 1.0740722754675853 7.022963211382794 -0.060701945865747065 0.4439007036856936 0.20089905904434432
Ni 6.668631319250295 0.8112339229863191 9.011498289031351 0.5013252643517495 -0.07389247641409209 0.8820336516496745
Ni 2.7021552288493886 1.551609419420165 9.292089200276772 -0.2832656343677186 0.13112806099779353 -0.342060850129056
Ni 6.289254638422526 1.9752274357408066 2.6594075806026294 1.0718422572078121 0.43456914187212253 -1.583445249336486
Ni 4.13863416307456 6.826873612377579 10.3168472060714 -0.2702993040150377 -0.5811467046557669 1.1515379705672426
Ni 8.251487989106398 7.218864857001926 0.2815894136089745 0.3088643087724294 0.12103365287626897 0.8556929568726166
Ni 7.661440863899376 3.906647274572004 8.100095151106483 -0.09267052835254364 0.14376760413867498 0.3087426955929005
Ni 3.080754794715477 8.2831689781256 12.492072406177034 0.6951846429404931 0.28645868738371955 -0.018257917768923392
Ni 0.15355791642803868 4.67094887560512 10.319942111587393 0.07976024804877876 0.9046573025864614 0.4634094631425825
Ni 8.514225135918236 2.3732458394284195 5.982943029189583 0.7512290354295708 -0.1819402585536544 -0.89862446612882
Ni 3.8913218446300286 2.466653250578301 11.255852383088696 0.5556513885981398 -0.5721468151500018 0.6135467182530272
Ni 0.9113118720979737 3.3029012391102435 12.567668523129612 0.1652437717345799 0.20758546992558444 0.2425200770192404
Ni 3.1423547097593723 8.472152493341682 7.862037729682336 -0.9175536989331553 -0.8153911719297763 0.48363144661641233
Ni 5.535136857875617 7.716869040352251 3.6847086632483848 0.20691286933859204 0.8318272059986126 -0.422515296031382
Ni 3.1832074625704987 8.500435863458652 3.486088922507467 -0.22785219059442047 -0.619158922233482 1.2387564746662796
Ni 3.387145922688685 4.355846831084705 9.314942705504514 -0.2591474011632763 -0.4008380681682645 0.012125836729256536
Ni 7.286473858668119 6.300378225839137 11.587836798340593 0.7818837842009502 -1.6961559841693563 -1.745660261547071
Ni 0.518742309362608 9.207547225044387 0.5628462943041136 0.2486087064154815 -0.3374138382753479 -0.022803628158076857
Ni 4.5545985006446985 0.38910146131335505 1.4609327541007457 -0.023855209351042787 -0.9610624208490675 0.5463262545424721
Ni 6.081620364126117 5.953676518283881 0.4410967776041102 -1.257186656347009 -1.0945823791178053 -1.0797681969231083
Ni 7.888936750821058 8.707283986572897 11.273350120435182 0.009122016905926225 0.9388843420901314 -0.2763959038310788
Ni 8.865743148991813 4.717422157557703 5.921523838555381 1.3678001423312187 0.8550753778932757 -0.42287525047396207
Ni 7.952759576104179 8.629518273081953 2.7008820253831005 -0.6627872004463939 0.770774561661666 -0.3331545487783617
P 8.377091453843107 1.5922633753806295 3.450631696947728 0.27988077705588577 0.7865292533927616 0.6246083753838275
P 1.7663100181355755 3.139499264086221 1.6064393980769567 -0.9016542540940794 0.6294595328285417 -0.9954699517946598
P 4.4924835210331775 1.13621436374056 8.072453352643922 1.4587310622848362 -0.1379499690156334 0.020142022165513696
P 8.370946823913542 1.510892209916308 12.396134853291448 0.8162617474601879 1.308806951626462 -1.1638011042053116
P 6.274534635253023 7.807131846773474 1.395030694484106 -0.03986546873637005 0.6550659205427363 1.0251911330081762
P 1.7460146669270398 3.2505453776221502 6.089050848230649 -0.419922081382909 -0.5336661425763002 -0.592295779294051
P 6.840301436017777 3.9902684589370043 5.937248669442779 0.006445755625343739 -0.5007858469085117 0.030452917173218522
P 2.2876005416748564 8.47781820358556 10.35045381367588 1.6590382533814525 0.3496322347184107 0.15529823048609384
