# total energy = -340887.7609680273 ev
CRYSTAL
PRIMVEC
9.12580201732319 0.00000000000000 0.00000000000000
0.00000000000000 9.12580201732319 0.00000000000000
0.00000000000000 0.00000000000000 13.35653370256138
PRIMCOORD
 96 1
Ni 6.402927134436537 2.428896008175582 11.545174040695674 0.6179749292277098 0.2791899216364482 -0.2454897011705256
Ni 4.540195864919767 0.7488842784210338 6.1414409748756045 0.1716969835590914 -1.0152461059803224 0.6842363714591055
Ni 2.3181909075200364 1.8492068313689254 5.046338380511092 0.9273951105036092 -0.5956528686917419 0.5721529857975888
Ni 3.488273826549965 4.644357765742649 5.259989825200524 0.2980502488760609 0.09170585044642916 -0.48663629488100696
Ni 3.704956862570513 3.272777144752912 3.3668477340347103 0.23982350402368374 -1.7639680587173237 -1.0125904135250303
Ni 5.2428734714960035 4.918460346180368 2.7532489031998715 0.8772863667726762 0.42471384634459763 0.040661739385420295
Ni 5.660086874494127 3.4201953457247756 0.18806817214984262 -0.483456868711761 0.0910425058308174 1.2469079001288204
Ni 5.895523433047619 8.312291250738392 12.330123487510962 0.3514870285389624 -1.349080454434528 2.623298355232211
Ni 2.5636293447577656 5.721330129831639 11.794125911595293 -0.14232367260329684 -0.04988685752811408 -0.215452531378487
Ni 0.6178094757480749 7.874307523027383 11.50702727692927 1.2796038476999447 0.056381978334154516 -0.9558844761925538
Ni 0.3554974311315556 0.22327186486180636 5.129510024799657 0.2498220099972923 0.5087148719476013 -0.40591882512528155
Ni 8.802565822300382 2.6497677871852403 1.5142433666857287 -0.41947290966063244 0.12295966625438824 0.45346829276947065
Ni 1.4455634955272447 1.3291638945989224 2.8340697409655715 0.6448918082232119 0.3108754256651872 -0.5421027033794277
Ni 1.9860299765448046 6.756469818839841 0.5596708181554322 1.3557329267540392 1.069916243829693 0.7816860663678473
Ni 7.769734961127136 4.250570295757698 3.6293304311433783 0.4273456275404898 -0.32803342550171244 0.27135885562780365
Ni 8.116688816689182 4.0773260759205145 12.573867263369438 -0.8308098204776917 1.2744809246510826 1.1800376206688323
Ni 7.821222734426829 0.2699859312821898 7.18805909728621 0.5046574140487761 -0.3833378545009721 0.12888991569589417
Ni 7.014903397725703 0.9764516581520648 0.5102901924727002 -0.617876970197265 0.4971438792805503 0.1865366196750852
Ni 1.8371516472978697 6.892754541714289 9.572172971265363 -0.30193852818687356 0.4136231357480747 -0.6069086441112193
Ni 0.4594914172028055 5.060813727198078 1.5547801779223895 -0.19068252352265871 -0.10511209655000607 0.021540959395569353
Ni 6.352680470170655 2.36605573753721 7.0971405599182225 0.10546870855847643 -0.6268156674477915 2.2889909237963284
Ni 3.398348176409025 4.718787804564398 0.9098150539985084 1.2748228813715334 -0.34036803580766545 -1.6103695845311556
Ni 6.258748593074988 5.832318130340479 4.948261564274569 -0.6107948665395029 0.43978411041415866 0.2609715988562086
Ni 5.427597949895933 3.586120672583166 9.287585757232463 0.40134328993945717 -0.5499880196647754 0.2591098630571215
P 0.42482249647158654 6.084025993359295 12.794089285296689 -1.2137473542164516 -1.4029928881822675 -1.0016907358933909
P 4.181953392631077 6.502288863555124 13.04794353687986 0.7730335328991719 0.33144656494831953 -0.678272954786819
P 2.6568311577158967 8.71798789196689 1.678261400984807 0.07431747976665266 0.8710038761980743 1.5874762248727499
P 6.406705216348284 8.176444566346467 6.012243349616284 -0.2680056228848546 -0.6832493249554878 -0.4879375301909339
P 4.877257351418206 1.4329060085427223 12.923487678193833 2.0542929139246686 -1.092390770783125 -0.21563070882756413
P 4.251711020972597 6.286262885258359 8.326289317995464 0.807610499543093 2.3191306806045024 -0.6754822794155593
P 4.686455089073292 1.3433545162722693 4.084801932688879 0.7206588759521976 2.66237758062186 -1.2553218352241282
P 0.2658218279577214 5.8071035401903455 3.9484451159808507 -0.5240746422331233 -0.368935563032713 -1.7543536755560107
Ni 1.2762798736361918 7.447721921663648 2.7420296425662944 -0.20232756396075477 0.17183119514411052 0.7146959735005434
Ni 1.7294398096062202 6.708887888675963 5.130992054998854 1.737962635792497 1.1118002856579885 0.09083013270969519
Ni 6.044985813604582 6.187959749139198 9.62029697405136 0.3473187560938857 -0.3691361090792933 -0.6500970065732352
Ni 8.976257206421806 2.4935249359509157 10.523705715242997 -0.25436257818012326 0.8949022800822266 0.12827927869508873
Ni 2.4906868116162464 5.568089667362929 7.218044656575139 -0.4505989416414756 1.639975580323047 1.3701401033183047
Ni 0.6242322149980438 0.3080414370314017 9.436431233593208 -0.7163517639364115 -0.8497048576099818 -0.09020535464150271
Ni 1.9112531572577272 1.5900614399489665 11.75317478896058 -1.3364146860414015 0.6847194817431111 0.8886652980335793
Ni 4.27535597322703 7.174906079268336 1.8563441208935072 0.5636274648250809 0.35194777022546486 -0.23163094091056236
Ni 5.620006353343425 8.297452697142981 8.04003208224795 -0.3367034424718846 -0.048517487984413216 1.173211084665302
Ni 6.731428618922372 0.9599157054368849 4.846591919901197 0.7164697775715145 0.1434359318308691 0.34005641810451753
Ni 0.8080495887070858 7.864844066644578 7.295324683273791 -0.5359701081191286 0.6123989778018293 -0.08568047018795566
Ni 5.182807444580267 4.749852033616535 7.06004965141073 -0.12980702819352483 0.20902657324748516 0.645797607866933
Ni 8.246804497601454 7.364010942493479 9.428336647468283 0.7581386180652104 0.5791564136986154 0.08812481796339017
Ni 4.584675022499119 0.377181248596533 10.998931839770036 -1.280052248091273 2.442258239895323 -2.4437823898493334
Ni 8.268569534701731 7.396672186846475 5.143293635716328 -0.2526592223357713 -0.29363386497592014 -0.42187123468947996
Ni 7.3542554604556605 6.414243128568338 7.396874779644641 -0.93763787127754 0.7979336385749612 -1.377040172872248
Ni 2.7942931090121195 5.516939548726846 2.915209981791443 -1.4905376652724716 0.017756809762788775 0.9236932361719898
Ni 3.357537591120788 4.945929009355142 9.596776132700311 0.8563802127476283 -0.7257553166384985 0.8894255732383715
Ni 1.3704581473782762 3.6983132789189397 3.9157482810011492 -1.3557357549675169 0.6755552987453398 -0.0933680686402005
Ni 1.0132560164855753 0.3875983512589932 0.5067721959099508 0.030073422346612724 1.0549297977231897 -0.35499092792716286
Ni 1.3141793281760052 3.9855935170391743 8.705347744005635 -0.800110334511306 -0.911882873800623 -1.7304884389026391
Ni 5.592364299935986 3.210000754726575 5.199243926056708 -0.9671099125947281 0.22259428462959083 -2.2965743925705415
Ni 4.04103276248328 7.271648703293514 6.157655699370269 0.7627509200262413 0.2514019528899025 1.466012683547914
Ni 8.517275008954933 7.96245364183308 0.013399414664292907 -1.5224813080586037 -0.549785416735666 2.2984415276862675
P 0.3028187407075068 6.004065718695715 8.069255637093326 0.6391898727424282 -0.13710227630335745 2.462059076671334
P 8.680207072849427 1.9270590458353714 8.440313472736278 -0.7674377839789492 1.025240241078557 -0.7078902634326195
P 2.022697447852527 3.6105321921820104 10.645851833513897 0.8312865030037941 -1.4551472015883198 1.312667977243765
P 4.105944590111909 6.557217064102954 4.201284578412846 1.4399470968091135 -1.9072942044432055 -1.2734005471027101
P 7.171821558287249 4.517554750854445 10.634858892762953 -0.6491241011370046 -0.18265296834996284 -0.618163133979116
P 6.49134702729381 8.418460827939498 10.277772659552086 -0.25489993874083194 -1.5320293567583552 -0.22846745558091622
P 2.2974662118157467 8.764000184235067 6.0036952111459145 0.6703809536332519 0.9865765059597719 -0.3561679789543995
P 7.067541022042016 4.335923919237322 1.5310330166887023 0.8129972177763031 -0.2504100212902784 0.6730739270843827
Ni 3.1567425758933574 2.1745507884599196 0.4295697385259114 -0.9256922688798896 -0.12221198945508631 0.9965274465248968
Ni 1.2333338507456635 1.365648849872261 7.252984613617418 1.500869900436415 -0.20930245261669114 0.3388677971130551
Ni 6.86306830872175 1.2623082712041054 9.521552149128993 -0.8132119048902705 0.18552771879459662 -1.2453701233280552
Ni 2.763164999347948 1.712849102080725 9.370490015530654 -0.14373315135631376 0.8668178631411845 0.686540851222566
Ni 6.309916963314509 2.4019748931039593 2.6060332950261738 0.770058509431248 0.6415159497724436 0.6374361232761151
Ni 4.145459311556019 7.249920169400113 10.619592339066914 -0.47204502733039344 -0.23410845591677745 0.11335736727793382
Ni 7.578768434351278 6.609672172384883 11.650382670975748 -0.20190821703514905 -1.1848707803914176 -0.4018819360517466
Ni 7.953665494777496 4.3689684472625245 8.392925009568847 -0.2708531196359787 -1.5781315504330562 0.893209722871152
Ni 3.3699578072606116 8.804518743868291 13.07540489941326 0.4430967197271595 -0.41391495595688066 -1.1738836852522945
Ni 0.3988504647787598 4.968515368610148 10.728167477601199 -1.4370474066638155 1.4461272574778965 -0.04481792764563894
Ni 8.641230773706747 2.4677810493010686 6.157482309137604 -0.12466687875348205 1.261847552157788 -1.0215982734505955
Ni 3.933174911964123 2.864361014612093 11.551705376986101 0.06802856143414736 0.8603273703208344 -0.9001100495354111
Ni 1.4752314769163453 3.78223415152865 12.797589030256 -0.8620134997740058 0.06822396527440508 0.631971243506802
Ni 3.0371124411564403 8.777625006201825 8.119810753457317 0.49859938078015414 -0.4331825459372411 0.1986254325188192
Ni 6.109194954500833 7.973167333051414 3.612634776898113 -0.2829455320241385 -0.1920405802124499 -0.08095683946004122
Ni 3.731248297323512 8.635956060313054 4.060532775596854 -2.243084391072202 -0.030808500740424363 -0.7399179812921256
Ni 3.5380003201178543 2.653783139941686 7.115746244463316 0.42639791891523987 1.0361789994782478 0.6972525812131153
Ni 5.211298197547591 4.898940256303011 11.751105057130667 0.07814353838096219 1.1205713469823992 -0.3755034460582178
Ni 8.672039480310747 -0.17145556270022141 2.4461419482645153 -1.228080483009672 1.0704456339706017 -0.07878579995065141
Ni 4.745343887567253 0.8723919663084367 1.8269736406404526 -0.6960714164208205 -1.6592084604107296 0.10252196722532665
Ni 6.470786596020465 6.14568903557589 0.5275069299961321 -1.0993080667282487 0.36468475817615903 -0.6216019844573359
Ni 7.951064641287525 0.39413607561062397 11.58896967572626 0.5573560299940723 -0.42255309124785295 -0.5988667476433492
Ni 0.11383707580557283 5.225032529134978 6.096856870576481 -0.7291154913599831 -1.648600088767264 -0.3671383619229741
Ni 7.987120683880062 6.709526694796307 2.4115889252151304 -0.39754705612181856 -1.0554201070960467 0.7633839256245498
P 8.53837386252971 1.6407005136887753 3.7208092927369254 -0.11339773359756598 0.9001925819468884 -0.18320729819153608
P 1.8905558389585944 3.3467508934887005 1.6623405273055005 -0.40881028774046374 -0.10228953949954642 1.682851039530334
P 4.712773901231448 1.3450154121851625 8.554485465464948 1.022023276803156 0.28506334969808966 -0.5975233462415774
P 8.618042111538275 2.0477021445631194 12.751562136705072 1.124432372599702 -0.9714057117566046 -0.027870758268339093
P 6.66883474493042 8.185415229436433 1.4232718996677691 -0.16565309135785664 -0.20603406627806453 0.36048588960346306
P 1.7983213609826985 3.7879651550083038 6.427056666762259 -0.37996148182957146 -2.6628969434604395 -1.458338711942424
P 7.187974227330222 4.294045615147939 6.247812232294705 -0.10393838795687906 -0.016008973833746623 -0.21127320318981682
P 2.279780408083948 9.04951001682178 10.687069429558807 2.1297445072957646 -2.7343574133942714 -0.917021480578769
