# total energy = -340861.90746895206 ev
CRYSTAL
PRIMVEC
9.30204670928265 0.00000000000000 0.00000000000000
0.00000000000000 9.30204670928265 0.00000000000000
0.00000000000000 0.00000000000000 13.61448562432821
PRIMCOORD
 96 1
Ni 6.174428929265034 6.577133140816521 12.239123472434933 -0.3000084010436962 0.6144885133410063 -0.9293851443504445
Ni 2.554183925908756 0.27160488428728 4.9330317106280015 -1.3928907667512593 -0.05202061604166525 1.5058064185060842
Ni 7.070113716895106 2.3646547216594365 5.276089337468447 0.041284974791716 -1.0625610890162023 0.24002867805595435
Ni 2.227896029101228 5.47391038626588 9.00308276988604 -0.1416652130836915 0.11100943587104752 -0.8551545678706434
Ni 3.5208154247442054 1.0730748207606013 9.835485732902217 0.6115080905564436 -0.5879261894714455 -0.0673302498155421
Ni 5.5953951179221315 2.9727295232190936 7.05744991033486 0.4847591324629522 -0.37919323620497924 -0.1982896464459553
Ni 8.570719912208 0.5158115198287468 11.440592982761258 -1.0091497632745976 -0.39093315034972675 0.5927380090377921
Ni 7.838909283658187 6.027084507409367 5.656383057786684 -0.5562738526734871 -0.5047790272283048 0.8657117745611993
Ni 3.689247586773282 -0.11493143966147079 1.1824287531402125 -2.266844726716593 1.8933030323704363 -0.6612221699521192
Ni 2.544956295449108 1.8533305092235668 7.111240856563697 1.6605163805888759 0.6078136724239919 -0.8143976976682555
Ni 7.616255490631845 6.927736588048968 0.4685329365886196 0.9374614936006758 -2.515511025842887 -0.20708744724324335
Ni 8.4641277575335 1.0786281427206919 1.143170394680638 0.72448673433872 0.8175966642215274 0.44974019318560615
Ni 3.2833527731576226 2.8877925335748955 0.7563652415783751 -2.4250814710057202 0.11018693996975217 2.525821920850592
Ni 3.93590996267901 6.328563845309756 12.650376265027163 -1.7350994553120893 1.8621080948248705 0.01684432525084841
Ni 2.1201225144787683 7.3086368018208026 0.6102421784720543 0.3341621641072697 -0.498720993959683 -0.41001459246121
Ni 4.305731438671167 3.989331617648524 12.744792040395534 0.8658927802237539 0.6960235939020206 -0.9034447703355989
Ni 5.992676236169208 0.6458178565899205 8.791771892769471 -0.4219630230723378 1.5031653813388113 2.5855090522985793
Ni 8.112324346259426 5.7837708683639955 11.257559397816346 0.2925971961812896 1.7299649622990014 1.9893679311165096
Ni 0.31714305456470554 2.123545667713799 12.940555476433218 -0.40808729353151 0.059290667340517245 -0.14619164019913533
Ni 4.429950972096708 3.8254760626619335 8.79102307799931 -0.5751269808242482 -0.2030564717069793 0.7883825045514165
Ni 8.703571745095793 4.168107655757367 0.998510543541356 -0.5478216081410759 -1.3550852658677113 -0.9390771748272279
Ni -0.15865478060151994 2.3360974378780663 8.00256763525189 0.5595324688201009 0.5552693226683727 0.39096117537418473
Ni 0.4181400280683613 1.1158084239174786 5.927747019060954 -0.41105280391773724 -0.7641549994626196 0.29836032391731193
Ni 3.594627166374554 4.255584104187334 6.10292502545428 -0.3069033283913166 0.7092863724491978 0.3253401949402655
P 2.4023466154321107 4.9326242809766585 13.327614575414056 -1.8706737250066945 -0.8908193682621045 -2.1884255660767407
P 8.087190215713088 7.829718861385876 7.32230615964384 -0.6213212199921235 -0.06926603338567426 -0.035063419362036385
P 7.528620907405694 8.90370528273624 13.451902013781488 0.24212309869113785 1.5229322795530935 -0.5551186560231214
P 6.623913134346328 0.81716434989219 3.7033439085460143 -0.21290019727027848 -0.24562905496186727 -0.3282522263807379
P 1.3592988018527026 0.5751325329005879 0.3668448210051737 1.005619895744468 -0.821956998072752 0.11488691654858278
P 7.493970782947842 4.069096669252839 6.843947470984125 -1.5411236057501394 -0.5275224915724075 -0.18883852833538448
P 0.04802739801029014 2.6325257643474194 2.8590966492956946 1.291325764122563 1.4505220441114826 -0.24465306420184316
P 6.865571009055191 6.431156119845499 3.635611984726579 -0.96585058626633 0.10024936914106605 0.5015610345116395
Ni 4.667022937716251 1.6864517890158222 13.241544596465438 0.6857911175407351 -0.4095541078850237 -0.6354563738419249
Ni 5.103419162901652 6.360609396653998 5.397898710559215 1.8160601514268724 -0.19784715959189797 1.0679470359184642
Ni 5.407558886196659 8.776974196665432 13.201286267971174 -0.5542123421587681 -2.299265052028827 -0.035444713960855086
Ni 9.131828679301165 3.529503536487463 5.573294384848465 -1.0703993541136985 -1.0939195487228257 0.41504572712721427
Ni 4.292178356433559 7.521728090701461 9.641233879475115 0.06699703484583945 -0.7432964108460552 -0.38553151971818117
Ni 7.6352037600333595 8.358084423622225 2.188841385467325 -1.1651948992290448 0.5441012218666953 1.430026495261292
Ni 6.356860671779765 5.12327903289293 1.8781595326337404 0.06695872540873629 -0.8254791522933976 -0.45415477731353393
Ni 0.12118799636223607 4.419635002157445 12.44692096646218 0.991729253805305 -0.11813884782697719 0.029026212029020976
Ni 1.5704831711323246 6.036786542257565 11.383820730522022 0.38239965895741884 0.601029559622623 0.25046221468445257
Ni 3.960495272462124 5.2373965434563985 10.580225276347056 0.6958613572925435 0.0015364912491844505 0.2796298373873442
Ni 2.050440881642859 2.92184732703535 9.378882671378618 0.4226669911178979 0.4562288862337433 -1.0222847579946588
Ni 4.407877214958861 6.062246244443106 3.1144499275587294 1.5007063782753574 -1.8817646927135334 1.3002464636509605
Ni 0.9292288987193227 7.35898878133499 8.006978665860725 -0.6302092665103727 0.9566190403657331 -1.7709645446398148
Ni 6.069911131034587 0.69628425128017 1.4704191929261512 -0.059379627509897726 1.3074558369152063 0.28179162092535337
Ni 1.7981414653555319 0.43422977847768884 11.53010843985731 -0.1720170859026715 -0.2583968961504969 1.498682148756477
Ni 6.518083747512241 4.236273054959281 12.14847781664851 0.5183819627237202 0.1579086715257474 -0.30626620902795
Ni 9.075244328407981 9.256150535241884 9.224971004457919 -0.6760744044736035 -0.6017299281237571 -1.8237081548904335
Ni 6.9115510265572455 7.865671272400533 10.126863047940535 -1.1218057336101324 0.5230677982351637 0.16438348061681368
Ni 5.059290252719626 2.5922106933674662 2.656594810531229 1.2432751884722395 0.6446575807252188 -1.2844388071947428
Ni 2.979985119749865 6.611532110009845 4.695254649858418 1.3269165167429793 1.5663183598482122 2.574233993605392
Ni 0.3446603695099981 8.10353391200099 12.985482502233628 -0.6429066594723831 0.010334806267104781 -0.4066197078470481
Ni 7.280237652835616 3.0594152976681444 3.078875179645547 0.3641211723632052 -1.9621574321399886 -1.5210525460318771
Ni 3.0938049648146344 1.7475569346704865 2.972546272896458 -1.8975057575978738 -1.8353953614203742 -0.7639212861852587
Ni 6.830055794241748 8.397655330855432 5.358552912859397 1.3931766734227942 -0.17454293764831877 -0.20611325625543211
P 0.7353677312592591 8.22669301208742 5.531470521871984 0.36109421261142327 -0.006836820416175322 0.20336551830696592
P 3.527782657823113 3.764463937475613 3.7290073255572262 -0.08367320994993976 1.5912542038579434 -0.003163999550278422
P 0.7366439720849282 2.9677994383969026 10.958408362238586 -1.9063662933122973 0.46589906233365563 0.2954246383277558
P 1.507480407923459 3.7838494030783414 7.122703768877631 1.008348607529541 0.5209335255009803 -0.14680099164836008
P 4.674632012026726 2.7634241674000046 10.935563465418173 -0.49545106495915964 0.05706614888537269 -0.2776086931922574
P 6.229283099447033 5.483882180472274 10.072378169017858 -0.42051394933063707 0.5180500333055982 0.5986669729277173
P 3.8410941992967613 8.486331743327028 11.419721980279087 -0.4992221019658176 0.7606636984799093 0.906958182805496
P 2.958962493904296 8.684223487680404 3.138234331109409 0.32961413972527104 -1.266100156786555 -0.746122824551257
Ni 5.447790238755103 8.155690488601037 7.671354304645587 0.9780039337994124 -2.2647366792346544 -1.8882325598260643
Ni 1.7516591373244226 6.015605781615813 6.419761112473454 0.3223785412087803 0.8972738656381967 2.3397786958721576
Ni 4.618642992130939 8.624718294081243 5.023895034310346 -0.3459686698238945 0.9963608390400452 -0.23481859460992463
Ni 8.525111976579318 6.513469932282418 9.202589349569855 -0.5451232353733063 0.18983611636196338 -1.3884797821677572
Ni 4.405988899451494 2.218203296299864 5.0511649148098465 0.7734654782302678 -1.2859696420169724 0.6658126175362791
Ni 1.7537055876279735 8.169448215869 9.930134059441448 1.9768446018385182 -1.153852220522716 0.11256263929078034
Ni 8.842265263395541 7.303427655593582 3.9310059235879553 0.8075817031876866 0.5429231423981941 0.6158365427284684
Ni 8.149095337395503 4.094295914127017 9.847357935276863 0.18045621780896015 -2.2657589498515813 -0.8916506059141481
Ni 8.5437532784353 4.929433678912486 3.072952566426134 0.22339415482306685 0.3397908231479568 3.5290830865548966
Ni 0.6200967668883356 8.39541353756836 2.0327111803766402 0.6272345001527649 1.035216121344346 -0.9591384643534772
Ni 5.559052020940434 0.6945689538439209 11.261643926581296 0.15221162114097012 -0.17342399355252716 -1.6746157961047354
Ni 1.9090311656674894 2.541635464729255 4.844864120118243 -0.12490933378159134 0.38069193223769277 -0.7654647194129786
Ni 3.090763195499811 5.425437420212226 1.557265892785436 -0.09840177440936602 -1.297899817795655 0.25948678678056597
Ni 7.052988648673119 2.080030692622839 12.404280383773644 0.8204511029511871 -0.5485212053112617 1.0464670116678172
Ni 3.028876677911064 8.499801107143126 7.624833838222457 0.009644722178615648 1.468653977825503 -0.47700802776262363
Ni 2.503757530019894 2.527961455882801 12.020828618555154 1.7756835473820387 0.9971095442806117 -0.11772927109338434
Ni 1.3369366812629913 4.79263777816694 4.750175794777625 1.0358761235258482 0.5712903806869774 -3.2649824551514026
Ni 6.334842726922924 5.654323584617564 7.922119813409934 -0.13157414739627663 -0.12238425336689246 -0.38952701403081946
Ni 5.905730004408797 4.318838022660727 4.36538918583841 -1.0665758666025502 0.7827206782799487 0.7675514267386782
Ni 5.1153257828495855 7.891977460847996 2.2580988449675896 1.6386602039457328 0.9937753377010562 0.8554690137872687
Ni 7.599818773875597 0.8139467718921978 7.090247067063315 -0.46987913002732623 -1.1166090199005414 -0.10136419947179962
Ni 9.169455458745999 5.067913250135043 7.649598677509474 0.46895558977179236 -0.7611442376607537 -0.037465343935309675
Ni 8.973042739839281 0.7257056952124484 3.618103672175017 -0.721037856558171 -0.7990929489903851 1.0172703354992028
Ni 1.6950282761970676 6.642303280937783 3.1127616060583 -0.49394182740348486 0.3868800633262756 -1.446605996886528
P 5.2835439978014715 6.537478515161804 0.6442346482187188 0.06235516519845391 -0.23314326379003075 0.03971943007680901
P 9.13524253048936 7.716205983866639 10.86747713361435 0.6240661297271123 0.021037794506905703 1.0566694061221158
P 1.649513361036728 0.7257782511777561 8.555955703472565 -0.18549120912970635 -0.6934298650329154 1.1494427786011108
P 3.8354106486809902 6.572491419446194 7.184881440532293 0.2847018525936129 -1.1481086331707193 0.2667354979231793
P 6.1634804201410365 3.033499795187722 0.6014861617869067 0.05067001555104176 0.2958324152891357 0.6971726199047994
P 7.748242233164046 1.5729389114965857 9.590942363265349 -0.4284211199928557 1.4945958945022453 0.6820113387833286
P 0.33784010877107296 5.994452927114564 1.708223229631554 -0.13223363535714647 1.3823883245580386 -2.5283068920559746
P 4.982678594992147 0.8202898376285224 6.968506529119119 -1.189676429310177 0.6049224669191259 -1.9610302605140806
