# total energy = -340861.6883239768 ev
CRYSTAL
PRIMVEC
9.34503401639338 0.00000000000000 0.00000000000000
0.00000000000000 9.34503401639338 0.00000000000000
0.00000000000000 0.00000000000000 13.67740189350247
PRIMCOORD
 96 1
Ni 5.900071331096758 0.9481097710933917 7.856217772915802 0.12472678545714003 -1.6257869475274904 0.08221822267096808
Ni 8.182661304661245 1.2255544859844945 5.909635973411792 0.6317028203367637 0.4692713212399983 0.418686152093279
Ni 4.1544657021404605 5.161851023995221 12.538935819880212 -1.667083235173116 -0.01944525320880522 0.6946444541663068
Ni 8.841093711337027 8.393616102530885 2.080606408349886 -1.8388316407954333 -0.473127718871611 0.5193450979679378
Ni 1.3626554800283275 0.858142325114372 7.758095850254712 -1.5733657536132968 2.5520006361284886 -1.257826089703221
Ni 3.644189464749044 3.2085333239727194 0.530197980906013 -0.7163219391397406 0.26316577829404997 0.5705951543921657
Ni 7.218954671795707 9.115706880921383 10.494054542068817 -0.7118345927923482 -0.32354762181621693 -0.8329667189196945
Ni 4.664928840212191 2.9608151622854493 11.580437174471607 -1.451916353355848 0.7565026251236843 -0.6898678587132699
Ni 2.664512168750733 9.22332429264579 9.22548953702722 -0.585797830274533 -1.3292960727187495 1.7853678645493383
Ni 1.4855333323003175 5.024628544509184 9.309099556365382 0.7626339348324026 0.535065079806356 0.1785500019251828
Ni 3.3467463770644166 0.3194338217302923 6.801635356764921 1.776929761084314 0.39720021430536107 0.6964192866785426
Ni 2.658587417184801 6.695847702700781 8.032574451349243 -0.1522841262501184 0.6275229779274611 0.26165011298047197
Ni 5.440192862151827 5.3115584689261865 1.554668828451615 -1.1937040624123312 1.1819332950296484 -0.6306262994431333
Ni 0.5030889717299679 5.546997255916872 11.396284868662296 -0.609309540243228 -0.4368422541770154 -0.5858973319668749
Ni 4.829868690588692 7.632986403859781 6.237196236722108 -0.32842269052033113 -0.9029444336604128 -0.004562679670017948
Ni 1.67455533533519 1.3817660745903642 5.254625718192546 -0.9197730751819773 -0.19556993352194704 0.12892848224331344
Ni 4.1523724145209515 6.197458348577292 9.631818157552182 -1.0028757573404274 0.5886844077937087 2.8590281488024956
Ni 1.4184733682038997 6.3735655146025145 4.111645821777278 -0.20361157287950093 -0.6130805772498862 -0.47277599195914705
Ni 0.22250152189939698 8.179586788470091 10.789815523630626 1.5392880952032975 0.5787249825881516 0.09236610973824738
Ni 0.85459775371223 3.099616952520134 10.828535737571135 -0.9705279371373415 -0.13568199891706312 -0.7685456723311473
Ni 6.286058616079819 3.212766624381816 2.1398978456690805 0.37729627629258244 0.005083842280810599 0.8304611788890213
Ni 1.0516340579189376 7.521649668597139 0.9838891028291714 1.2369474464819987 -1.536141836264832 -1.1856212854041968
Ni 5.588339686402177 4.478009469830843 5.594002777015671 -0.6407502752510127 0.05319175353163096 0.5209132137860061
Ni 2.944423972621972 3.280144319634766 6.257219841107474 -0.7493426170401353 1.7442320137409768 0.17954938972397466
P 0.8008395110337109 1.092705482417789 10.088137103040546 0.6744502386066191 -1.4389327966119865 -0.2028633818595668
P 2.5981437371714744 3.957444349988178 11.484299202532043 0.6993932817052019 0.6570184162834168 0.9575382097458929
P 3.258529255956531 5.896043621436006 5.7245258016158775 -0.29198784473206485 -0.9079987082548684 1.2681161587753191
P 8.694357987223043 8.765146619891711 13.52956269223468 -0.5141476129273984 -0.590400619153867 -0.2932350868756047
P 8.434257655465016 2.81723805966876 3.3499106055821213 0.483091257842226 0.6091632444733509 -0.31765233937770454
P 0.6610742477920113 3.0220812052921544 6.650759782581997 1.3509948978484219 -0.5362475301502313 -2.1416857388180404
P 3.4804270886585162 6.841648923413199 0.6731087825973856 3.455667806887539 2.5768855722956268 -4.2507164106052215
P 3.5371607901676234 8.862989126035732 4.678929570174461 -1.147567673065585 1.6588479917475172 1.0608034828951474
Ni 1.7676972893693312 3.3245051961071317 2.523439535250242 0.9678681309169912 0.03799010609052812 0.13744011925875038
Ni 0.6526796037357386 8.14489802220394 8.206058466326267 -1.1938313320188148 -2.0429972864061914 0.6271563386166619
Ni 2.1218086633249564 6.633964887449042 12.741019376958782 -1.088951663194589 -1.2066595941317348 0.9320675762786141
Ni 7.9515212333177665 4.165604982687134 5.989321078463375 0.9175295305634391 -0.13918512697431515 0.2662559871835995
Ni 6.8179872972855335 4.022766137757682 8.405980517037012 -2.14059661951892 -1.7878698050355855 -0.09421293313899903
Ni 1.2314792375504264 5.275271701843357 6.871225956072781 0.3517377110971878 -0.47476448314408554 -0.9886804396766523
Ni 6.969984275550338 2.53204631157867 11.51306228272886 -0.464606054553845 -1.0491910954671995 -0.588015149640826
Ni 8.74451278478512 3.5237506663551432 12.627620192688882 -0.4491724936075942 0.04893297825527702 0.314354128242407
Ni 3.017147027331883 8.322369563195448 1.914672246354117 0.7971157706593562 1.4667102238355707 1.7253544601101831
Ni 6.611377940233178 2.6303186892874124 4.530762186849277 -0.17707007494554666 -0.9493965544753648 -1.2544327477509556
Ni 8.430183220634186 1.1239552761661755 8.763822428571691 -0.6031604899226968 -0.5466376151353037 -0.19272012277797776
Ni 8.857559661272632 6.81148315361063 5.677421223156512 0.8773406170493794 -1.8916163886966326 -0.8032959313281391
Ni 9.22970695087849 3.3736507299955187 8.506085455916226 0.41223936802667066 -1.4820597097084476 1.0576410260067657
Ni 7.766554975045692 0.9292748550348172 2.166240562055841 -1.402999573050487 2.450551847362683 -0.017402768857479708
Ni 6.548822282532311 9.262788371293949 12.88378439611951 1.2681390415934546 0.7156480530011674 -0.521739052121411
Ni 8.16384975118771 5.289663054227482 3.639474895088141 -0.12810110124601162 -0.5371813548184103 0.6943132960791333
Ni 4.812851383646165 8.61754180761427 10.086878326958635 -0.2556303891489533 -0.32653935745468926 -0.4425187357365024
Ni 3.2202893767644265 4.7971704165678775 3.9186437687551336 1.365309257588565 -1.8001007998841385 1.1919122606192312
Ni 7.6478076278086276 6.902681340569513 11.653844285671463 0.17067317028026735 0.8702091482109207 -0.18023433160614122
Ni 2.6464388729644357 1.5547052740842757 11.565843969352743 0.11182370424222676 -0.20755513090828123 -0.0009453946324048236
Ni 5.880652350412205 3.865236899355603 13.419514637162797 0.9134155083950657 0.305742475313996 0.018436609438632765
Ni 0.5015255475391471 8.51777422446302 4.04537925106879 0.9021471345700979 0.764857939066915 0.45178396308851226
Ni 4.931692181223387 7.471849982327655 4.004565749508772 0.9618656334766531 -1.7090300119185469 -2.733572455599131
Ni 1.3255276598840873 9.16217973508129 12.799094090849136 0.9125349055623252 -0.49561715822337865 -0.13089254794821972
P 2.8221815826630468 7.640705401956721 11.211462523914065 1.4985039713074 1.7005844522543552 -3.0541491677124823
P 5.227976484690072 0.9458763079636475 11.350411031182794 0.2978247631288161 -0.529582716535546 0.3717151826603792
P 5.386655162276078 7.6887762569333065 8.179441940442848 0.03674312105730446 1.1089227069998773 1.7175174805642677
P 7.291229164872866 2.374545108278639 0.20110139400352223 0.9072651725229536 -1.1087545568531292 0.4656761476895722
P 5.471676281750605 5.282261787287075 3.6599629476640865 0.3798614659165974 0.16706951208940904 -0.6085945164540745
P 8.111853981924545 3.9603226204650035 10.283258609777445 -0.33743157888716085 0.47167453136485216 1.0867405144758833
P 6.809969258100092 8.350535495718667 3.110624468087187 0.3863203341680637 0.4722412025015996 0.5180706021308884
P 0.2562754093354148 8.767940785062395 6.134902690876424 -0.7428384973730303 1.8834569928142917 0.418896211221556
Ni 5.133853302084287 1.5112415208774141 1.0985713602694225 0.7730631005855267 -0.35168911724743945 -0.6403486689372198
Ni 1.369159623703231 0.6886561156892489 2.113732684928618 0.0772577933418992 -0.39413211690299865 0.7356764324069525
Ni 4.303986246391114 9.150975039296506 13.390080583523655 -2.5626208348464963 -0.1926087940110941 -1.134546835325885
Ni 2.157833769455348 7.746126730687447 6.09802905565741 -0.39010602646274106 0.6288584089094331 -1.3733190152669188
Ni 1.5072325012846937 4.15185843765009 13.544703516346862 0.5045396575239892 1.2373289981911335 -0.5932614856414299
Ni 8.65188480762184 5.751578740587829 13.403580419662687 1.9830013654685332 0.5047165494214857 -0.06715207236646499
Ni 2.5331023004224407 2.8646173821281855 8.550304287871555 -0.6082469033066686 0.884038083674213 0.09830484382018553
Ni 8.690704078922916 0.9415308671463629 11.855558713906415 1.0688533497828174 0.7480226126771311 0.58781100404982
Ni 8.519531090857967 4.223226462427729 1.4253223436339808 -0.306448243131769 -0.978684761916521 0.7545326458815069
Ni 7.624117966578914 8.347498359663575 6.909413503074399 -1.776867797498127 0.32406467066195155 1.0390604347911008
Ni 6.457530645233271 6.243520021240508 9.439294570271638 -0.1951917242469219 1.185935731320822 -1.8474224677882376
Ni 5.845019735710471 0.19096390110332795 5.156011312238832 1.3124746302860364 -0.2410458064665591 0.4363228913384357
Ni 4.621651987685643 0.4449862227375657 3.080615694856081 0.1311799972816515 0.25024135692289806 -0.7025819638458287
Ni 2.8663835935571464 5.514738198494793 1.8255224908514682 -2.5340792757633777 -3.2744852524355155 1.7401745558421513
Ni 5.860831533264978 8.28730699556867 1.2043459312859408 -0.4877596098521729 -0.8475600433528372 0.7944976163102189
Ni 0.48370830568487866 2.3752833659658763 0.9252490143808685 -1.3241135000765454 -1.3490249186062444 -1.4656421875823726
Ni 0.7019157844540772 4.061006016949786 4.625860991006298 0.19489990403811597 -0.9835328340374416 0.17953422021532306
Ni 4.648472235310603 5.44473454868344 7.518234993167814 0.21647248800256913 0.29330270688874643 -1.0434284819518094
Ni 7.555927253366601 6.4297758942067444 1.6332867306186083 -0.6492616551561334 1.1535747984916132 1.1296334571846673
Ni 5.25510511843755 7.091852864148636 11.882475215381737 -0.36369951144475426 1.0279766661731136 0.6184606106148768
Ni 4.115562325533244 1.7979565095120573 5.064181400980489 0.4568006995768133 0.4130929742762176 -0.7049255243773408
Ni 4.195004459700419 1.6015519296048086 9.363481112812746 1.2075304267724623 0.5026049023951215 0.7037585006524331
Ni 8.503195971398583 5.4106532096283075 8.01888304201289 0.18379736636705118 4.085845191718712 0.0077647315470834016
Ni 6.073169396168936 4.91734755400934 11.099224927372312 0.3761282241264103 -1.8010207405952465 0.7966401165745183
P 6.383396490386994 2.529906298789083 6.636274979857714 0.18102340316633983 0.33879477778327455 0.007388579154587276
P 6.900204906555361 6.2452955777034855 6.306157915240713 0.0697951664162669 -0.6360317867294208 0.2877334403310851
P 4.613680673670279 4.1232532885281366 9.183540613834298 0.031197251538410787 -1.82658470510728 0.7413063769992201
P 2.435399969788654 1.3316673472323797 0.21338544121711495 0.6355196229796927 0.4094612910609013 0.3780493524085231
P 0.5439398534260496 5.730131887521875 2.146736541561745 -0.040076042085279366 0.19030971356427223 0.424364690535295
P 3.9827413570685857 2.621169900986075 3.040322711690734 0.1193207839502203 0.3686884800189134 -0.846252123174691
P 8.309482761287844 7.022933238283101 9.6181678663655 2.2160070752394354 0.5334326864092555 -1.2277799210501177
P 6.591856164174452 6.143565537408946 13.376116299194047 -1.7959255854605263 -0.5731924828056967 0.33138280158991956
