# total energy = -381171.64660364843 ev
CRYSTAL
PRIMVEC
9.24722992829027 0.00000000000000 0.00000000000000
0.00000000000000 9.24722992829027 0.00000000000000
0.00000000000000 0.00000000000000 13.53425572437609
PRIMCOORD
 96 1
Ni 4.446373292817195 7.665121333496455 3.3446795915785796 0.6399756018685172 -0.02810318599411934 -0.625783112418219
Ni 5.122752676365789 5.433755512244416 1.4442943216735362 1.0926553372984216 -0.7626642738497058 0.42505143218967445
Ni 2.5596979659566825 7.156394227971159 7.533383446945133 0.8446176728950616 -1.5459660214441053 -1.191244288017929
Ni -0.05063043312924177 0.7052963961578959 2.152758818793968 1.002514774456583 0.7124105199004763 0.17162062179520118
Ni 2.715042180987755 0.2908115093996492 7.363650542195127 -1.299585433028194 0.10735358428601512 -0.063321128656149
Ni 5.341440416187793 0.08094007856095489 8.311954892802786 -0.2004498873220677 1.4990667857894053 -0.5261410378438487
Ni 8.563693156997822 0.36503440016379657 10.31097758984468 -0.11961646081376817 0.7396066206992941 -0.3671396474745548
Ni 8.015637582722768 5.76918952950956 4.054186251508346 -0.18068710287284367 -0.29066424082463493 -0.5752300820610158
Ni 8.884701495624446 7.704098407510145 2.627026122110009 -0.011363761752251398 -2.185619206976197 -1.5342199366517708
Ni 1.4716134129567255 2.9433840288216913 12.11162963587014 1.8319200012772645 -1.9859604480968571 -0.593921744933248
Ni 2.7955393172366687 3.7672012458398627 4.031678493940298 0.20799633221075792 0.11658075931123793 -0.5552788357500695
Ni 1.8145191919782304 8.229405796239842 5.4349918668815755 -0.3389557288411711 1.2618077000587882 0.24520430871962287
Ni 7.863696348293602 2.2780828266890882 0.947857709403659 -0.6896223183613671 0.5263066168874355 1.4537318092980318
Ni 3.086013302745096 0.7281842148746892 4.426012742031111 1.3846120716822348 0.6471482083575565 0.15581733621435745
Ni 6.200147431605408 2.6034096216773728 7.328069050999426 0.9238950677701508 0.7386972215111471 0.10763203475838237
Ni 0.8907172264272908 2.207470979199519 7.869222492879742 -0.41578029130039357 -0.6501641123657448 -0.2966813935529923
Ni 8.788798474367987 1.5211878124317888 12.507763394898808 0.4692399537814306 -0.5561658663407132 -0.30241598204392434
Ni 2.3802832115050547 4.661916974474394 6.717565083787422 0.025903607239639262 -0.49712305334494383 0.06581844115670601
Ni 5.586390288915818 8.431152610891484 0.7519717890604105 1.7805213350903142 0.5981566089502022 -0.9545426174526787
Ni 7.342152582131775 8.60941146160605 12.202877601596708 -0.4146572334395439 0.033268018024510446 -0.20618961801932234
Ni 4.38730198823844 0.6049371348143198 2.1133600710969986 0.12217445134893153 1.0696092541122353 0.622953613389224
Ni 8.323764530103588 3.556022256693805 8.42118964540101 -0.6833750519000747 -0.6839165262258415 -0.562351940546767
Ni 0.2986466872909421 3.140433250685918 2.917335506926279 -0.5930046324356175 -0.4466217021612824 0.2626402448078831
Ni 4.578719647095707 3.6665081594970235 5.860102745513875 -0.47703682411803 0.5842178873819229 1.5455867837278157
P 0.24087184434367506 2.4033273084070985 10.253199972728444 -0.3992732947843059 0.4064268751099516 -0.054157202768693825
Ni 1.2125985035561444 5.308400063767648 2.6299362253584335 -1.0271533989408697 0.662223357523124 2.0824773467786843
P 6.061596186066352 0.7010445198514915 10.567262716979819 0.16082275984874883 2.8810360205321546 0.789755216529227
Ni 3.300567530803371 2.515237284614376 7.982599079748602 0.8004386643850021 0.306418161224782 -0.061560694321616566
P 0.9842566557222084 6.637411944490658 4.331042766271207 -2.0064174303996287 0.7702796243031186 -0.9387233910322349
P 6.944919327468413 3.9532185224375813 5.045285857353954 -0.03684287985996236 -0.6437137287547107 -0.18350014684160657
P 3.2580672621991202 5.6974125310530335 2.5972916543778575 0.9978006568103653 0.15447676302606297 -0.5240239915008459
Ni 9.131371353113218 4.379497326205806 12.77127523219805 -1.1275012413330132 -0.8152500183662218 0.9659529161721492
Ni 4.026761741804337 2.3794602080442675 12.953717529717789 -0.052248158671439046 1.2009265483026994 1.0837760325309205
Ni 4.4625097089865635 8.21670010236207 6.062249965220034 -0.4805980591067271 -0.8523263543932289 -0.26747726118521026
Ni 1.7120783791849552 5.117093371669139 11.669289318494707 0.48128068699604853 1.7971561154335176 -0.5609977405117177
Ni 4.3081734420142075 6.395402690869716 10.229027713779029 -0.2995430313715035 -0.42902610056670626 1.682296966799077
Ni 3.0460097862128963 6.419565702589234 4.782762548930646 -0.01142881066223193 -0.9117052105721783 0.8934683758491773
Ni 0.6688641598117192 4.569121022463154 4.965299168195327 -0.28370066502260816 -0.7086024590082958 0.2180416322619019
Ni 8.33534206193399 5.147313318970856 1.4139782031808954 0.7081913396128061 -0.918785000237095 0.6556184506120967
Ni 4.632113152518019 8.602124644447619 11.991783686965697 1.258818021302845 -0.1723148196487484 1.2712099672092945
Ni 2.7694158927790946 7.425017009234189 11.836248054275767 -1.5484635910549784 -0.36793077591728246 0.15163646536379047
Ni 4.03325329719167 4.854028175573896 8.674984493525024 0.47935261673540025 -0.39757508114627654 -1.5132718736451938
Ni 6.660677974910217 4.9723279876396465 9.578747711890278 -2.560565237869048 -1.3828138421312315 0.5228227721038932
Ni 7.277024341970822 5.403979431977731 7.049181844551296 0.24913115457785479 -1.0629693801982145 -0.8947343870457946
Ni 7.681812583459613 5.766535574529269 11.970264458273585 -0.5972870618610552 0.49978388800655865 -2.406695512299365
Ni 2.2589318135734655 1.9120959618459537 2.0904065970479406 -0.4704293461038414 -0.9973162609747793 0.3421102153097527
Ni 1.9475405940391857 1.0989038119788455 9.62127202329226 -0.517555867277999 0.17276039182659925 -0.0810375720993056
Ni 6.542951491098051 4.0708525339507835 13.49104076897498 -0.5861505856282614 0.34833511317354204 -0.6595748641566833
Ni 3.493797646720349 8.407960558311096 9.292782675679378 -0.7177514724974154 -0.004540825293147018 1.2391912482108531
Ni 1.843564741083094 2.533260135682628 5.6982198142229965 0.26983187746031595 -1.2687802747218795 0.4327814538440805
Ni 1.752063401257362 0.39335219227580653 11.874265265826201 -2.5544979486290456 -0.8856491369150747 -0.9662977011060777
Ni 3.868754324563075 7.170163353287027 0.8926868863952424 -3.36320219545695 0.6645797735704425 -0.16191367892008243
Ni 5.86077409440436 8.042528527261751 10.060161274470323 1.7830335599892064 -2.4614461256776834 0.8332053172930619
Ni 6.826573279253182 3.949908014134639 2.692152512824983 -0.7354339773788431 -0.6381519183962171 0.3304584900034373
Ni 9.362635325594445 7.541717050527845 11.052777426018956 0.25426667603220726 -0.19947723899615324 1.272862415211053
Ni 4.538614411034646 1.2461751953102862 6.537302358354287 0.1482842610621059 1.0715198408713869 -2.379546976909031
P 4.268909703873726 5.773110354985669 6.708592496618861 0.8332546824737584 0.9851107200475229 -0.7790848812995744
Ni 0.15380917486825654 0.2972355600087383 6.587339119324175 -0.04751295797929882 -0.1279666325506764 0.17292957041461188
P 7.66300371785016 7.799428100513023 7.260586466106828 1.1304148154353821 0.8084880170520399 -0.6588786094206072
Ni 1.7132990135312913 6.599766471582062 9.701503764043144 0.9635376218624372 -1.1226236015257374 0.39438177101995947
P 0.7457428550021372 2.606516690922592 0.7343650633375006 -0.18971527451338294 -0.19322303055632528 -0.42893996861080325
P 0.9096795960530256 1.0131265074590385 4.339461444368969 -0.8270485536630465 -0.15591426680353795 -0.3433093778241765
P 5.3157701059951465 4.739769402972913 11.491625064662484 1.7232446128560321 -0.10088494584253592 -0.11883124590831146
Ni 1.8746724224548736 3.9050866908263697 9.184075015185254 -0.5156640495719248 -0.04416255344982717 0.8709583676721193
Ni 7.264568323300256 3.2499019582005224 11.236680785862337 0.35547583798338134 -0.07445477667546531 -0.27458738986743036
Ni 5.301677327632902 2.936032481053985 9.577177532253854 1.278184598754915 -1.6554646770975814 -0.5018096601873357
Ni 9.3819620360781 6.4998963887000105 6.353155796364628 -0.6351151884524223 1.120978866833463 0.757651908236779
Ni 2.8826482228615693 0.4497427249075696 0.14299084061235726 1.1794244125648656 -0.7936576369074266 1.7822789412113693
Ni 1.9639359326456558 8.75468544327985 2.7172994298054878 0.20454051245167354 -0.6758646024556425 -0.31659535886809986
Ni 0.9149912049055674 6.815985201021705 0.8493395715324733 1.041311949829439 1.073657713149996 -1.3942215697475409
Ni 8.025902007907868 6.532613088073778 9.325467934471499 1.1685913265051036 3.6291180256923106 -1.852233773133952
Ni 6.514987867891076 7.171615168380774 5.166566976338331 -0.5489364384718095 0.38993453388188326 0.6444665477603352
Ni 3.684077896300347 5.413624292759764 12.811946398728777 -0.11266882585134144 -1.2777505965412899 0.18302603541866544
Ni 4.847823284313354 5.225313703147719 4.113966818620161 2.0629431334004984 -0.4466312152429793 -0.5451301773518418
Ni 3.770974115637629 3.529362492902235 1.8772958615765067 0.8925540915650242 0.3157872611445078 -0.33502656899009403
Ni 6.925047030420864 9.295777853442848 2.4266645424968614 -0.5081543714584409 -0.6944518785395266 0.49163040566148886
Ni 7.543335315759731 1.7855198790228495 3.7577995872041052 0.2565477587569001 0.5379496004430026 0.7713294057238717
Ni 8.622440808530198 2.404890090259605 5.916581126829655 -0.8742113273917783 1.0991244899625328 -0.06993991952424729
Ni 5.7280023675506095 6.5545660118480376 12.829242417527166 -0.26751299951915214 0.29013253669088096 -0.3593553755434456
Ni 3.611450152693344 3.7157589059257092 10.758799665102748 -1.3286491831633698 -0.015289836279534957 1.6357342885481894
Ni 5.13311882107975 2.5517361010158077 3.9845527609418245 -0.0769070948706998 -1.1231673898443497 -0.8406967405741006
Ni 6.8127486705579345 0.4129461477034713 6.1093220642851085 -0.4707077965762087 -0.5535016892449887 -1.8866844986126539
Ni 8.545180202745057 8.497917610744116 4.6008353221161435 0.21351289115361294 0.9801986274578859 1.315446825540483
Ni 7.876180108653859 7.018832436031029 0.33175546921232163 -0.31187892722903704 1.8239598658899232 0.09609343799116354
Ni 0.8607811690833957 8.351598692092011 8.512600362373755 -1.3996756508835766 0.9493032234306104 0.4476869102010032
Ni 3.6972459516729437 1.1277459220259862 11.100133415041851 1.362582345575705 1.4579232216715603 -1.5007914817899959
Ni 6.358053129317807 1.5778548372374568 12.777000192226966 -0.6614222017780674 -0.7649265875213213 -0.5005755306699186
Ni 7.545221750658614 0.7735150605502545 8.133275293127928 1.6217878536704264 0.4043993031569616 1.6779299480796328
P 0.8914422092511755 5.415279546911236 8.06213912770323 -1.1239703453616192 0.3776670293684399 0.597806424699635
Ni 5.872083456567762 7.02543495817712 8.003765988981659 -1.8620476739005802 -1.144576708758061 -0.2707209649334886
P 5.605929685687094 -0.023000634921530365 4.2838217868048005 0.03794022668919918 1.171719073500808 0.07849577951405837
Ni 1.7421226291186394 4.5475194934249625 0.6584573272862135 1.2264974547932683 -0.7249906705583321 -1.224559357230291
P 6.686403768482243 6.70480575597625 2.186378047805634 0.8127732746909551 0.5519898805861525 0.7034689944364724
P 0.21837518345150317 8.610178981687458 13.142289815935905 -0.2446144976544239 -0.34168598328814054 -0.27651648856934313
P 5.592715394165015 2.4497761441771493 1.2030035778155503 -0.19371925346645347 -0.28567707202268866 0.39376213515808955
Ni 9.089962257636753 4.780484956207141 10.154819618582717 0.7179134519965764 -0.46938522111004327 1.6476631787752913
