# total energy = -340869.18473764084 ev
CRYSTAL
PRIMVEC
9.27605397569683 0.00000000000000 0.00000000000000

0.00000000000000 9.27605397569683 0.00000000000000

0.00000000000000 0.00000000000000 13.57644263133253

PRIMCOORD
 96 1
Ni 2.021363518259764 2.365013497430115 11.58921824401635 -0.42862295159101665 -0.19180892381761808 0.1672505177519636
Ni 1.4703380718631236 4.457756252597479 1.0470531675658403 0.9162941154944413 -1.348842370281793 -0.02597045592183269
Ni 4.422191860875095 3.7881086253594622 4.464463767374332 0.8900842898682929 0.8798723823322977 1.8507754434208707
Ni 5.786625222176288 7.7785558205260035 7.572193298416065 -0.7025251424659643 -0.27081558152982393 -0.3589974779833946
Ni 2.1923119207250217 5.021174507377298 8.272561361884177 -0.7308689837159801 -1.7302048462239492 0.4438927332658936
Ni 4.133947753316063 6.257097414082272 10.855371045805297 -0.2988640030266078 -0.6400841024219234 -0.5240918686243039
Ni 0.5977832526968537 5.386818011006118 3.124931045911316 -0.02084650443170603 0.18225650424249257 1.0933572484614524
Ni 6.484008251409589 1.9539729846491454 2.100832402016892 0.755920270257653 1.6124161826475392 2.9549526653159623
Ni 7.386169452699055 2.760247613890026 11.256188419275565 -0.532825648952876 -1.7337524543658918 0.121887516236132
Ni 9.320671999626425 3.5050962123574 4.688882128943745 -2.2773751939342715 0.7916724881565979 -0.3541316652506611
Ni 6.224454979426282 2.157220607765769 13.546845994012031 0.32417060011219656 0.3741425611549492 -2.250229486757415
Ni 8.345248522431019 4.795543765526686 1.2853457233708216 -1.5691044072337814 -0.35296027065037927 0.3702424547695946
Ni 8.42127506248231 0.8445856606056726 13.264917951743497 -0.2368965601848759 0.38733720546835226 -0.2455598922868287
Ni 6.394401568040205 6.605719358292581 1.541414909404487 2.0860398673189624 0.7548797448082806 -0.4942997249635358
Ni 4.440150301765689 1.8174109150255344 11.438220778879339 -0.11117167248052467 0.4160392013887351 0.726116299522343
Ni 9.141588497646163 0.6569783924403038 11.132927283739258 0.4231626998073938 -0.6083695449274619 -0.34048553522213615
Ni 1.839589960567584 4.641440677450539 5.4905845910797835 0.8964194880577013 0.42696356161072274 0.3670236907219808
Ni 7.05873401623364 6.354115664740698 5.782573441710889 -0.4277801439747472 -0.42482723199401035 1.3264169513987414
Ni 1.1300181961430427 8.58792865186268 8.127727834749129 -0.25795389507580735 0.7408325226865952 1.006429536129957
Ni 5.297953411971054 4.598817208497917 1.6356086015653997 1.2822461704187982 -2.5024248820828903 1.450441568582534
Ni 8.696764595545183 6.5199529613533125 7.746107255402356 -0.5913498704410137 1.910887578221419 0.7217515947957441
Ni 1.444504260974538 4.885864705067855 11.1845726429864 -0.14404014107377128 -2.0071352824022597 -1.1001135933486794
Ni 0.9672976537345807 8.697209846145777 -0.047752199308204415 0.8130321847792965 0.147368691226372 1.1120085450140524
Ni 7.099335305375234 3.4369543183582802 8.892502325198468 -0.45137464346523554 1.1716033738585498 -1.0037216502804907
P 6.01177360920959 1.5470324878153048 10.100045144142713 -0.14067919502133838 -0.6013103240878354 -0.47810923124660243
P 1.52947291725441 2.207524649578623 0.293788405141836 -0.5135896835413994 0.35204984302096787 -1.3858989088144584
P 9.449145350005926 4.929536368142706 9.075485480355592 -0.17662038900263777 -0.4283105625569204 0.6779227705362519
P 5.280532982222845 7.533658714145558 5.05548755939093 0.6639285131396888 0.5215243650074438 0.30470914895347523
P 8.310992054347878 2.044609310032402 7.043743912680335 0.031199308420939816 1.722634232965543 -2.176814207090058
P 1.2998720242151753 1.0911237009703896 9.528028914744358 -0.2341783899227644 -0.4232873983107162 0.22013759555898219
P 5.534761799107392 1.9721354987316768 5.564957210670955 -1.9199224347301773 0.032338307121389465 -0.49439279889797444
P 1.355073822634555 6.576731688983126 1.3704201266683342 0.8248852274631406 0.8082658737389048 -0.4374269230358918
Ni 3.0317669957642757 0.6336899308184427 13.057361601460714 -0.15060956676117288 0.33542329020788036 0.9519419466050381
Ni 1.5884593457788319 0.0343000655377819 5.83910635390496 1.1835173516873168 0.5185058898960941 -0.5643656285426861
Ni 5.902139924867689 4.654343668813562 10.709940140781121 -1.0431279199922552 -1.7106199821134862 2.5720228448866864
Ni 0.6560647011036697 7.809092590883356 3.4800221103060767 1.4076175314384725 1.1635159688647252 -0.056511819043799455
Ni 4.640513072032636 3.996476630382908 12.977477150476366 -1.3946661134841272 -1.9437899853763942 -1.1054550601662512
Ni 7.801968581273864 1.2734352698049531 8.884844942473682 0.13261364440438453 -2.0293203031397304 1.4172072320094367
Ni 2.712012132159094 8.998941336481112 10.636219627798736 -0.3343722232355467 -0.13376035641431802 -0.3226089120520315
Ni 3.4152390755251822 6.892553505616402 8.532997714225328 0.9381405219455713 1.7423607648601926 -0.28563079216578546
Ni 3.0610514988074584 6.697932612886271 4.7405135741096185 0.9516005041052192 0.8311687464790073 -1.5610609681040148
Ni 8.649864865616031 8.820006251367714 5.548013570107548 -0.05673473368788293 -1.2490398588701586 0.13638750962451995
Ni 9.285051951578968 3.3374964654507706 12.714406398748375 0.44377240563794546 -0.7023155975583195 0.22010905631389188
Ni 5.133813633273203 1.6064085106152457 7.951600611235722 1.058233408175126 0.6582849417006663 0.6905913671428557
Ni 8.082272386455651 5.136253235522285 10.819623915815589 1.6270840690723591 0.8927770062091076 -0.04346989825817675
Ni 7.718233640199803 7.211705425699946 3.6753739561055143 -0.5616497722734198 0.513942696005444 -0.6521312633944446
Ni 0.9770004064058412 2.6453265786660807 8.01384850040949 1.2765360074078984 -0.551934858978501 -2.257804985111828
Ni 5.21986758789202 8.464093328572691 9.976146743684309 0.8625899411027661 0.07361402594172484 0.6373746739105605
Ni 3.6467508357252956 2.98823447350211 6.745157004711689 -0.6222383324897541 0.5771828349120125 -0.5965131598095081
Ni 4.788206406671077 7.340345745054669 2.9113461880175873 -1.6798731878489326 0.8179422204864043 0.49888451612074086
Ni 4.884120806882199 0.5260719330496447 1.3806293518977697 -1.2888400215862321 -0.9619509941016078 -0.2758963384868409
Ni 4.509878401029422 4.165662582554151 8.95932516429333 -1.1718378584668592 -0.5385273273233435 -0.39399919086956015
Ni 1.4993535693351148 6.950695813210532 6.525653096646324 -0.2943046657906996 -0.13251414271204273 0.3066323341181171
Ni 5.993258605068255 5.746793845531553 12.961973153521544 -0.09399593203218651 1.8077446895826415 -0.45849222834662323
Ni 2.3829255580498128 6.478155061222625 12.409873540050972 0.10982904240970118 1.5707038905104176 0.731748558107456
Ni 0.034034770388261776 2.8358474554490822 10.049160421338254 0.6023341373666594 1.465891327478701 0.962491182875794
P 1.79270878274679 2.2926324466711803 5.642966971105722 0.16261713274501027 0.6116273897431272 0.5660954667495992
P 5.883931030514264 4.501659817026805 7.327952936671491 0.8653405072647097 0.6302205793642824 -0.9156094307225908
P 6.470576524958361 6.931819042956215 11.053247833552266 -1.595837966573884 -0.5137516630405603 -1.300558852685057
P 3.4616286224744877 3.9668118091183855 10.932824242989325 0.3007452792097208 0.13118925325303213 0.212693223465795
P 7.530662548645732 3.72417805995762 3.072960097162491 0.10778218718300148 0.34043154205574916 0.32719678853303
P 7.2495146225336535 4.088597124434809 12.844984485821094 0.12657669418168524 0.06058161823779888 1.3043152344036955
P 3.458261414807501 4.947337116112256 2.9786717892489527 0.8586710656643342 2.363633648112884 -0.9722845148171319
P 8.058247406131976 8.690540363191058 7.7823024188089125 0.6987831589250287 -1.7131946848191981 0.0419712022254632
Ni 7.118184247467013 9.014543659610233 1.23669003638558 -1.2680529096375517 -0.13650886569373263 -0.20016449487116494
Ni 1.871824248839697 1.143607615515315 2.038380439651186 0.529430764338714 0.6499921055642548 0.22939870914593397
Ni 2.9197493654983657 8.419874378301277 1.7115683540266022 -0.8979922318614599 -1.972073919922752 -0.5038153777634549
Ni 4.409650635625054 8.100045306262665 12.300949473853768 -0.04698639605186747 0.2078412946901324 -0.9727743099693569
Ni 6.3189779715105505 0.28169614091405865 12.027737212091845 0.533709594219726 -0.023535364117778824 -0.5056881693061356
Ni 8.148299340101953 7.892836808011595 9.89295074135805 -0.08615458161089679 -0.10596364591702397 0.2148560354450687
Ni 7.516451633643465 1.5714377863603204 4.793896338304491 1.6581013433894798 1.1110222698413834 -0.42012391298106994
Ni 5.999538493747456 9.470573035159473 3.709505197457238 0.24169783822826119 -1.9990535338353894 0.4941230901763555
Ni 7.712705111909103 7.376494528190332 12.587073075427474 1.8936971824850612 1.768737969302141 0.868090302095705
Ni 8.707042463575544 7.441547496147835 1.302920135618403 0.08763553703179747 -1.180660856075128 0.43269840721197095
Ni 5.874070584921959 6.079757810287667 9.02601257299718 1.0182082739324398 0.7563252190055555 -0.885329805902443
Ni 3.1435898288924258 2.163546876715864 9.391029015363497 0.5089534703209686 0.12509496742983614 -0.6104040588589874
Ni 2.292817967754761 3.3814927904218877 3.542283913561113 -1.840750455084701 -1.8859252518491263 -0.5221771681000943
Ni 6.614633646358624 0.2710481583219555 6.460893252000877 -0.6350311133790483 0.5828084086289059 -0.3095117125484412
Ni 9.211418633505867 4.491010906829285 6.921365857501872 -1.1165992497085286 -0.9624449030188909 -0.611003125895567
Ni 3.7297436924650356 5.756505874256993 0.6562103351542803 -1.8301690800244286 1.7719073681690578 0.6571521136478037
Ni 1.3224313879785647 6.8218514206638705 9.940726130801702 -0.18399996929616053 0.2342372681851579 -0.8854730163485266
Ni 0.5403876674641345 1.4937230044484464 3.94578948753246 0.8250389794321855 -2.2775317741167935 -0.26842625536204096
Ni 4.096824984491604 -0.038832345609653665 6.093759086465488 0.21747470401483834 0.009476572031867551 -0.16625627215949432
Ni 4.324950984916374 1.8096561337318695 3.5250146834960217 -0.8694185339888252 -1.3640735854092507 -0.9505394098305565
Ni 0.159323651368103 5.679310551379143 13.030411881254393 -0.16767089311883382 1.599573008136284 -0.33836617488628823
Ni 6.811332375224855 3.814257822090135 5.251395040835691 0.15979663257707966 0.6807653821913696 0.7001368447394458
Ni 8.78558281430935 2.239387895683575 1.5080174039383243 0.8307062050202919 0.7024192130157192 0.7520114221215501
Ni 5.924430283059888 5.588228975395293 3.7756768575487327 0.48030418201539216 -0.9908926168366224 0.10584074718591449
P 2.562138924788582 9.075552267945682 3.7844334526937327 0.41783974493258363 0.21532680443390012 0.6907870280934296
P 0.7438059699776521 7.841577332618303 11.693770505878978 -0.9445453970306507 -0.28470802324120004 -0.9862954843842433
P 9.218301465706702 6.2115334359549 5.2437246716350545 -0.3660273882469825 -0.27921743244027397 -0.9402470267656129
P 4.765229620469631 7.720422788986053 0.6618705834143216 0.46599907824662967 -0.10567208281853413 1.3343153803102117
P 4.355367166569398 2.5818783680815476 1.1541266609543295 -0.05414280459099062 0.024170940819248695 0.29781730692964836
P 3.344555542681009 5.711739636789017 6.608279549245991 0.991371356245254 -0.14526552884044014 0.7396876104488744
P 3.9987214354942324 9.171206938639791 8.445145132701196 -1.5910999376682662 -0.8743720213393588 -1.2499867961644602
P 8.3204907338272 9.719635089866305 2.820845293025344 -0.5284131217074771 -0.7467717709891655 0.7493246193180062
