# total energy = -340893.5493854401 ev
CRYSTAL
PRIMVEC
9.05204911421924 0.00000000000000 0.00000000000000
0.00000000000000 9.05204911421924 0.00000000000000
0.00000000000000 0.00000000000000 13.24858887381196
PRIMCOORD
 96 1
Ni 6.484634613365892 1.750023626226897 11.402994053096803 0.02659780509318645 1.6577007655169513 -0.8002309192495702
Ni 4.625570002074524 0.45941412871364656 6.076346458721989 -0.9576492814024604 -0.9486828162377919 -1.0140963086465955
Ni 2.5964173856892305 1.7678652152657541 4.812855090301894 0.7287390818571708 -0.44031684298917717 0.6613787501346415
Ni 3.4625627165786503 4.11200198882259 4.696717298638506 -1.0438264887211763 1.4536446489008643 0.7628614774621765
Ni 5.012047244090762 4.796852877667246 2.467470039155784 1.0114562999205872 -1.1103872073605456 0.3608895527997849
Ni 7.285704762317035 6.401274291976326 2.5897940012652163 0.5378518985228736 -1.4453818946714398 0.18138104361607474
Ni 5.275525241124763 4.46343874825668 11.420310623280127 -0.001956352395422437 -0.3773762376008985 0.6827014228718178
Ni 5.7271953417193115 7.764132720445252 12.154136719296691 -0.8599635592235125 0.8572543878224655 1.2718648271844741
Ni 2.033651484854249 6.5480894784914065 0.46671460642031243 -0.7501944235174693 -0.6124272599366034 0.2830388630688932
Ni 2.910179516214277 1.6102509340153326 0.3595519215717531 0.09062573000837296 -0.7252338969173897 0.8601270813845704
Ni 0.8177901890899925 0.053981895602853686 4.683402639421228 -2.0601699415307357 0.2718252537412609 -0.5006891734296475
Ni 8.540083432773956 2.2831440658227833 1.302239570368209 0.5442063799859918 0.2471827726022324 0.6124876808608936
Ni 6.780582310999781 0.6712827722488445 4.7948098301552875 -0.1572023894873422 -0.34195929155418525 -0.6995218368632662
Ni 0.9916429414600516 7.312544088293804 2.519086634293973 -0.38639078239468294 0.8534599537770398 -0.11035200479270672
Ni 7.565032897558564 4.02903995759929 3.9148383992669076 0.9193694119856554 -0.7824440275797944 -1.5758730934161826
Ni 7.632706017626801 3.881745012474844 12.680807573813842 0.5008917763587567 -0.13248637479790087 -0.8903311157717763
Ni 7.907652961039408 8.934354489180075 6.886815350392079 -0.3354955382067125 0.60951728537866 0.051982563714878215
Ni 6.820610472709486 0.802443344819836 0.2590868479509211 -0.2495589861438928 -1.3385196481995465 0.9393551110789629
Ni 1.93202412811186 6.281597149062713 9.495806937671302 -0.04563271023745045 0.7552502407738219 -1.0051187877383334
Ni 0.02594769912728768 4.835387451253453 1.4883198308426255 0.0008289236591985725 -0.2605257695680417 -0.29334872963533354
Ni 6.185138512432545 2.075544368706015 6.964624049986855 1.5057650237451874 0.499382795913398 0.9648260016565576
Ni 3.3481900745157582 4.4053064880803525 0.8327722357760465 0.2913054739530596 -0.5935041977798552 -2.149696524937659
Ni 6.0164354708713175 5.533825465997309 4.644041613740019 -0.681632101067039 1.1407071985003259 1.3729647172512935
Ni 5.443476962599626 2.7273462257998498 9.336346943582209 -0.6102060839155684 0.0507872578551964 -0.2660143034864386
P 0.33422609822679394 5.610713572185058 12.538928469745688 -0.5085099550256468 -2.2247673379305684 0.7790918232781099
P 4.259097788863904 5.9767241308847785 12.727668222284851 -0.8760149562594204 0.08991456287396127 -0.11004758617841047
P 2.6091988792066667 8.57144878336738 1.501515908214947 0.4201380540484571 -0.33791828871559226 -0.1345684541379102
P 6.336352994875015 7.733726887070558 5.760447139372958 -0.38039085605750617 -0.1305595900888332 -0.20260472888154138
P 4.776440506646129 0.9173346693037968 12.422738176196747 -0.35595817693643855 -0.3546371441321699 0.7508066031801713
P 3.9334684217939864 6.248285607884127 8.357276393302305 0.09446644391070182 -0.4560064858102921 -1.6675923135990507
P 4.754009528645982 1.0811405522298034 3.857287280651359 -0.39321500440536794 -0.7817827398467116 -0.27978564623891816
P 0.1400985659839635 5.63083627763071 3.5797949009943455 0.2763305978107821 -0.49556933570457873 0.579757280507408
Ni 1.4266934796622401 1.0219310981947123 2.5691263624557195 -0.20810740386732549 0.5647065568218727 -0.19034930855295606
Ni 1.7098958919756266 6.67326121528964 4.80894641544295 0.9142135788163287 -0.2939670799456227 -0.5044679237457893
Ni 5.961706781206715 5.351471934192246 8.99095604783105 -0.13778670396489173 1.1305986493114142 -0.21881913385787474
Ni 8.84334518618836 2.2362906589911624 10.24894920154683 -0.5180436055476949 0.7488584783148651 -0.014755046821987493
Ni 2.4949077055868742 5.4365249887884435 6.775050603713305 -1.1265589320244018 -0.6862413177042762 1.4152128272872273
Ni 0.2713053040060451 0.03295217482402419 9.02615765688955 0.7711633124596525 -0.6953116554366605 0.8847813895981408
Ni 1.620253448418142 1.2017591082636803 11.484936823576431 -0.35950038576174215 -0.8506319974099416 0.16427292318087838
Ni 4.189722883539804 6.848210170821853 1.5747804790946012 -0.04338068097848013 1.0382255975946313 0.22844457276278077
Ni 5.694110101771557 7.9353250755456415 7.837017105257107 -0.9255282324981996 -0.5930370283354497 0.5813557353427794
Ni 5.331566477928195 2.8722423778774684 4.864869070401426 0.8151140070089897 0.34178317098763716 -0.08758154386541045
Ni 0.7546602925319541 7.614366565880112 7.014624854336899 -0.9090346057185507 -1.1140518006963265 0.44674100134796607
Ni 4.846105077545694 4.5907015084278076 6.766385982187179 0.8084149977222593 0.016967223981957876 0.41257695387174753
Ni 8.022541569908597 6.972856888764553 9.458684483765493 2.2813490909803544 0.37984886751110714 -2.00295389733106
Ni 4.372538069855764 0.07629700737281343 10.261787722974438 0.6200477525963386 0.6446511529673156 -0.03491583804057858
Ni 8.172805587181571 7.328484746993666 4.699036433652081 0.2678418436134806 0.06613083019080224 0.06844456592564341
Ni 7.42668137707663 6.229050003263339 6.999044467196524 -0.9061994502626006 -0.04206761859401142 0.09153307231399074
Ni 2.3305134394607028 5.061978347661709 2.7172323711914705 -0.8868467567676016 0.8974080772232159 1.030085227875684
Ni 2.346327369471298 5.162211688822168 11.729969459887714 0.5507868614169869 -0.375389803298489 -0.8381127818970081
Ni 0.9604767359497599 3.2728408166976726 3.9052866769159174 -0.41342593213560414 0.5631510394092947 -0.31819149971062616
Ni 3.7320965345497368 2.684457616532419 2.752964430335045 0.12175279043048062 -0.21924336587948692 -0.6415380612596306
Ni 1.2064752259142357 3.413337672847902 8.265237872312762 -0.019630629746733935 0.42462231507205583 -0.1968169185551707
Ni 3.5053245971568145 2.533858673437814 7.1322317935908535 0.3331740891623875 0.46451915126699356 0.17614807735190954
Ni 4.0248850670011995 7.002312256969749 5.926915229978482 0.9524834209308047 0.542531049166098 -0.011531654788683366
Ni 0.6800406298820734 7.351015297535378 11.50965887523753 0.7536939520302957 0.9686913981492348 -1.2086539988539442
P 0.2857043987214738 5.780729160885116 8.050597491302325 0.5955883340023936 -0.5030116509152369 0.5099122346898123
P 8.393422131095841 1.722686437542296 8.078380040809204 -0.11515868215273069 0.293619723908533 -0.6615492142742349
P 1.9152506808825334 3.3837012636580397 10.349400697093813 0.10907776606597344 -0.31105951665153525 1.169901560676095
P 4.009722884535403 6.191031396483431 3.845959546240793 -1.4081273811953556 -0.647809238980323 0.024854082929202354
P 7.057973307705382 3.938637141906207 10.231076835540582 0.24854571438802997 -0.6196039801907007 0.901789494120363
P 6.156905170873846 7.563394476647335 10.008328534031865 -1.0140001493883635 0.31947705129126913 0.5480162406503852
P 2.3092682799101203 8.519942623229836 5.980704316932665 1.9226380338891278 0.12875081901486857 -1.5828631515807707
P 6.914272026126561 3.9582710366932594 1.4740510856361564 -0.49099997116634153 0.007529989828457999 0.8500522136470714
Ni 5.213201882153413 2.808018088567122 0.35390163244032 0.33793294400361157 0.3746524109118322 0.0780635770726462
Ni 1.3548835730943793 1.1427578513609553 6.998236119199989 -1.1203808282381478 1.4224360845085438 -0.1795455330692327
Ni 6.768497825273311 0.6429480477387325 9.28975152015374 0.010338920032162838 -0.18866575020294604 -1.1995268397416954
Ni 2.386998226676567 1.5405592069680667 9.21271133953887 0.9463911919901378 -0.12623422324060196 0.5840623356406651
Ni 6.312021086535873 2.0685833428455984 2.567059779615754 1.1158708561829362 0.3750702151755412 0.13826287227036185
Ni 4.091517201407607 6.643452817164344 10.596843894115926 0.35202336065840667 0.5636781155573583 -0.04222728410032728
Ni 8.219496057126992 7.196370088433483 0.1654877536735559 -0.4575231795651346 0.6380611584546236 0.6158185450063394
Ni 7.969043958939727 4.020748280501577 8.114204430854958 -0.9949045662094931 -0.5635477606270811 -0.40532721428786966
Ni 3.0685541696002967 8.244687910143298 12.492730431278558 1.4193924125862136 0.6581371032688924 -0.3912740786289132
Ni 0.010389942109995047 4.874121169922794 10.334389683850214 0.8300549445895381 -0.7136405356528355 0.04226739330964334
Ni 8.338141266428007 2.298396768780913 5.572489483887553 0.9755703846572554 0.19814335067607813 1.1726567548237288
Ni 3.7409313346014486 2.6231480870752 11.509195410316785 -0.37108089151048995 0.3218617494733618 -0.553544369557466
Ni 1.1939109815783993 3.2489977190171304 12.742558843273647 -0.7261201561770849 0.46499557668277985 0.3736640788566339
Ni 2.7966306106316163 8.579468898988095 8.006559271782264 1.8745103251439652 -1.1926956757524751 1.5229520770474352
Ni 5.505999466654109 7.74162932605124 3.663221302343315 0.070403232313911 1.2316951969441239 -0.0156706166577214
Ni 3.0731345065123525 8.56879653294202 3.788672747462857 0.9857141579594765 -0.425818392262686 -0.287663249214782
Ni 3.7454483071688713 4.4114166213128385 9.522343925203678 -1.2507157039106847 -0.7685001638051927 -0.34386165078322073
Ni 7.1632576923380284 6.0188252118689105 11.32080054085341 0.05520698418944686 -0.5697083809118383 1.2152262527548232
Ni 0.8536390196686764 -0.14610641106011243 0.2519574539747649 -0.6846050676524339 0.6608722428118683 0.1479047662355001
Ni 4.8763027137880215 0.33726849197410996 1.6673087159476656 -1.9365638999416002 0.016088420921430355 -0.10446983498031685
Ni 6.211579548243048 5.8208931033333196 0.45698365349450243 -0.21960897674902177 -0.6265536720356565 -0.5133809099647029
Ni 7.7853507238481345 8.723206388763849 11.205073712225214 0.7657601391662102 0.31002773295291125 0.8075783607535769
Ni 9.1742518979613 5.110189561878326 5.839938614920207 -0.11014014589221677 -1.3348491413264945 -0.18302809230119446
Ni 8.052078406556895 8.776287605467989 2.3257240002113573 0.5815729935599081 0.7576043428282951 0.352515984024109
P 8.443244610075988 1.5654794985073734 3.5094984970582943 -0.2996659301026129 -0.0007376494969729233 0.06661959690176268
P 1.7892189994071361 3.0377500460593376 1.7923356199581653 -0.2834777503785247 0.6095846482814856 -1.172165417009607
P 4.723694215763621 0.8900671813982923 8.177598647250608 -0.4191489506623104 1.1106085793427325 0.9524613094436177
P 8.542554642214649 1.5098999162148403 12.44781778380256 1.0962847065208927 0.11082688754659624 -0.7040986576006711
P 6.343630842458597 7.880886051456506 1.3823311967796266 0.05932100635782042 -0.406041723856391 -0.6679281212173852
P 1.680304743031931 3.437778205777843 6.130135545676174 0.8047020676470464 -0.6825903512152502 -1.361592727968926
P 6.999506121707422 4.048203145826211 6.049160439259585 -1.059039191905873 0.5037035347759389 0.36950969036862813
P 2.338026640324351 8.393186777815774 10.39239159451758 -1.2262362307120818 0.08475075928483468 -0.7209239566881261
