# total energy = -381167.0516937228 ev
CRYSTAL
PRIMVEC
9.21456369102189 0.00000000000000 0.00000000000000
0.00000000000000 9.21456369102189 0.00000000000000
0.00000000000000 0.00000000000000 13.48644538418556
PRIMCOORD
 96 1
Ni 6.380440403319513 5.698479751976744 10.650043549560475 -0.19054471239321377 -0.5732238502642644 1.1137733502239593
Ni 6.227782725053415 2.595005453811708 10.711218117088743 1.2698645089249938 0.2576204229957886 0.16233971071390751
Ni 8.040453284186047 6.10309124788212 9.178632517381986 -0.07377523410993746 2.3768807429307777 -0.3642093612016372
Ni 0.6304788834624839 4.740515271509544 7.428832926970885 0.04998070279350102 1.2400803356840258 1.3978586522794958
Ni 2.4695952406649955 5.1481399297734045 6.129211771850304 0.45956874924025365 0.5580407147659228 -0.03580492551375124
Ni 4.354378975997934 7.608714112490521 2.923173849993072 0.17996050911946426 1.3946167483034304 2.291985230537962
Ni 2.0572158674868284 4.832651694819902 3.614245862008837 0.03585403358413179 -0.1333654349687445 0.6897974104866508
Ni 2.688597778200479 9.083044318476862 0.23138138252749638 -0.5797889050762918 0.8057500492955866 0.9545760417937753
Ni 7.918028589706456 6.1608204900102725 0.48519377768269617 0.06382892153050299 -0.1576862711022962 0.31539593924336007
Ni 0.9281922248700633 4.725366528643034 1.6230394436695321 -0.8686037513970136 -0.2980116823286416 -0.6472399967404143
Ni 1.4345785778074343 1.3376229376362574 12.002936862305235 0.8854390777867976 -3.4923556492268757 1.6503852056921446
Ni 1.1519494773198526 0.8319424202850024 5.139117950369147 -1.4651163969858898 1.0526862531046515 -0.4244325676587529
Ni 3.8144792545657356 5.584854965914134 2.049076643293405 -0.07056444048212362 -0.64579580809472 -1.4243183891329212
Ni 2.773519198065292 7.014531395786664 4.272802442787952 -1.2400841923387675 -0.2135350026408 1.6292006011947298
Ni 6.622037051261737 0.2294113087897471 11.118333209975159 0.07430102470642042 -0.5001021905779258 -0.5366563355528757
Ni 7.40114684861522 7.905247989733311 2.5002788166207077 0.6582340338580728 0.14497036619752451 -0.02424858813471953
Ni 4.497683872019806 7.093076337510586 10.646820295147638 -0.5323816194369219 0.3475869221536078 -0.4023213375820104
Ni 6.751676749186874 0.1798839498887722 6.877803855396248 0.2867309672084998 0.811315716308822 1.5343078683798865
Ni 6.091996913082073 4.133680958725566 5.270476164440637 -1.1978450811638983 -0.10932716307261815 -0.6956430706341504
Ni 7.320795852388963 4.09927377754336 13.04140622221394 -0.14879591059120179 -0.22759662294018868 -1.0300263496132904
Ni 4.505460963856384 4.512583821664055 7.412541578194736 1.0786376828630908 -0.4014070532978571 0.5565283918864544
Ni 6.9278684233660295 4.123876662855757 2.109873413706388 1.7063972022813902 0.6673768766996055 1.3867064923174182
Ni 7.335723445724575 1.16871076884916 1.5162675286956226 -0.6733721750510919 1.0162922878566496 0.16846407844409053
Ni 3.884086069415866 2.2128314207286865 11.287143097104217 1.1841326166738124 -0.36296134772714905 0.8932143508568423
P 6.5022937948442845 0.23698199439748696 3.6802350391160283 -0.20676554512745032 1.0966932548132207 -0.4343248870718004
Ni 6.728935205759534 8.802396349203574 13.470086158732043 0.2866882868960223 -1.3314210894815521 -0.9004453213876427
P 8.906216839396375 2.749054531209706 1.4950261162528742 -0.12008543003038674 -0.08110570633307967 -0.3340027557112699
Ni 1.3189450168391679 0.18945051001286606 9.694690476470628 1.3901247739703477 0.3988722026911453 -0.7775651022209383
P 0.5958358094473198 7.404206083792642 10.352600194871865 -0.34029141693345916 -1.0565513924870127 0.9243681507518273
P 0.874185666512026 2.9065774991555595 6.416540299869467 0.2080133014916224 -1.4088130944084705 -0.5154015399391575
P 8.048027655619302 3.809162451260397 10.887230107274041 0.15932689202951272 -0.02753008709946872 0.5702606538708824
Ni 1.0194716937481925 7.023570882862118 12.98992814015917 -0.3949990928889842 -1.1262722540219183 0.6225977727117019
Ni 0.47517754684577646 4.4379274258584225 12.591592683649402 0.21010746501648975 0.15859541318012685 -0.49829007706985146
Ni 3.334308335603559 6.648547351278129 8.428825954328861 0.2807346404157488 -0.9812640926079229 1.0729360044926233
Ni 4.441705397011262 4.901171191143118 12.00330083757484 0.47282612847079214 0.35936360307356174 3.8052115956572012
Ni 2.9968802242722226 7.551215234457054 6.413263600986663 1.5779831977806502 -0.25684009318633827 0.33665536284276865
Ni 8.222459348115061 1.8781400348422124 5.636282367868074 -1.7975559219750978 -1.121616757527778 1.2051601267680727
Ni 8.660298561037854 2.1073338799265766 12.680063553485127 -1.2374516398119269 2.1603087532358667 1.2894077211642436
Ni 3.7073138777181036 6.9665511621455956 13.19632515443347 0.27020520163933465 -0.6272776946858746 0.26562683824003286
Ni 2.165146053128816 0.32022175637109707 3.2033546408823375 -0.0038296581587353397 -1.8575109623724915 -1.7642531940579098
Ni 5.670458263499216 6.9467306354388665 7.939658856741033 -0.972106594478371 -0.5973829640089713 0.6061038888217368
Ni 4.401216603729362 9.008194416831694 12.137962472764118 0.9727915363605375 0.4826989074998138 0.815068498483035
Ni 3.4753280198061525 0.6598069970850672 5.006964519442804 0.8039662179222864 -1.6325260660235368 0.8566679191913762
Ni 7.936798656141419 7.254920935872737 11.80170553249016 -0.1671170774978928 -0.89704452323621 -0.9537730862765059
Ni 5.120431736464649 1.9125011432054815 6.014374349193271 0.5080034477028734 0.7582350344337586 0.23855415039295688
Ni 4.512970833343127 4.157288671148922 10.091758930459626 0.631793580278357 -0.3877796923224096 -3.3473757699476545
Ni 8.634027839679934 1.3509379823090717 10.291506715504928 -0.06381529468374816 2.1664596033286108 1.2946044348738348
Ni 0.41712948081057927 4.819170787998915 9.75479984042507 0.9427409968320601 -1.0771179037844547 1.5664250606294055
Ni 4.52696775573621 9.288188152076074 7.482630314730948 -0.18385907284292208 -0.6383568353181716 -0.09033056736545733
Ni 6.814584576163553 4.264831845111838 8.84312932842584 -1.4373716227724536 -0.48524764206359655 -0.12775297387797352
Ni 0.5642796143009398 0.44942468397271 0.9005125967090484 -0.755042752748706 -0.13074445240612967 0.12395674006033489
Ni 2.5656847118401553 3.070117577254594 13.000906371455496 1.089507021477427 0.4961401206063842 2.2357305218102916
Ni 5.251840630636969 8.39086471589385 5.119589525334479 0.5553693385813467 0.42222938935984705 0.2333875185903529
Ni 2.2033864928465867 8.269601056451474 11.593743885284757 0.8053317308112452 -0.03588617237364788 -1.5579314213360973
Ni 0.16095539295666508 7.1343483687144165 3.7822467104373594 0.2793896963520801 -0.8809288486212699 -0.850955185077315
Ni 8.869469159012166 0.023330354053355106 12.232624608008605 -0.19958548243924337 -2.330850797254908 -0.1187494848277826
P 6.787641191649153 5.3027418809986475 6.975917766235503 -0.35093321291802143 -0.25841489387262595 1.6481025803055551
Ni 2.5679791382232215 5.274701963393545 10.858625336908771 -1.1765584038709802 1.7977132734885684 0.9976990982354947
P 2.853215960262641 1.7932923314876985 9.396275906758827 0.2421315833315701 0.13081284375021987 -0.6416933558905723
Ni 4.348693590141099 0.3978074620047495 9.926887347893311 -0.1268823983475621 -2.063783627023923 0.15716485138118738
P 9.299245628620971 7.513435522928654 1.380594134402487 0.2000462241257458 0.8999737810678629 1.1123358464464843
P 4.026948666375942 1.5530133661670744 0.9272901190752754 -1.4135974031709913 2.9447489853100834 -3.525837840144721
P 2.4467984098549316 5.170586607159547 0.044098137917430204 0.09851001785245615 0.5678777554610026 -0.16778273610634972
Ni 0.913330976393721 2.5008510410319054 8.661763676680053 -1.088215299249197 -0.5097844508626963 -1.0899610782957099
Ni 2.995488825140323 2.56327971069164 7.375628957118732 0.11758348954413943 -0.3779861032707555 -1.9920668181049113
Ni 1.037615169845612 7.168055243048778 8.25212655768502 -0.01870477549835488 -0.14420494878640971 -0.20408851251591947
Ni 7.934163290898218 8.584195478717596 5.109541964980682 0.14001713595730725 0.6442012099140905 -0.21881656275471348
Ni 8.402954223582938 8.635750963108181 9.185065204361981 -2.1958550257715923 -0.9873591497620673 -0.10585745935646285
Ni 2.287635249554919 0.29686375862637965 6.9354722814034035 -0.15546586641220966 0.7512532037992868 2.8482523983432304
Ni 5.090981990600072 2.2028889064020665 8.704813197238476 0.06470875303229502 0.871811459701034 -1.3369276211220782
Ni 9.185491838665339 2.803669250777713 3.9108801779969102 1.0749998290001874 2.2637365201049144 -1.74910579689351
Ni 1.7893669273142598 2.9436200455809662 10.850951448186612 -1.1488275136146149 3.9797547904158357 -2.531579135049343
Ni 7.852411680976276 7.2759946432545535 7.1883834922201935 1.6031794945406197 0.6073125644178573 0.006718292560440042
Ni 0.8010902178119808 7.781837336928468 5.9539959199762365 -0.1836407861845289 -0.900809646705597 -0.547297874427122
Ni 4.266140313169651 3.464187612187168 2.5208457229942165 -0.12073051981355336 0.08837035831529297 1.0013924879266818
Ni 8.888561735179689 0.5859071169663805 3.182113228439589 0.25955286413181106 -0.253378359889983 0.5140812784658373
Ni 0.030898275291958745 0.3945897363301843 7.234399180861785 -0.8454759071302989 0.28135659027046384 0.5722841120588144
Ni 5.759894819619863 1.7386131099731799 12.87929900878385 -0.30934484795327366 0.40582343719799785 1.1355037999225155
Ni 1.8349421598068127 2.279001203286111 1.9961832042408876 -0.05232734864880666 0.8510641998513536 -1.054988418875267
Ni 4.862451594108402 6.192573876821704 5.7721852047995155 -1.9318595524873956 -0.5421422983681115 -0.655205274334078
Ni 6.334837527135599 2.420619834134887 3.7773777349320894 0.8442592611143782 -0.9502223928107699 -0.5379498575533187
Ni 4.778110691762195 8.895233079361777 1.289558851464724 1.1607492047528656 -0.0020370850346868143 -2.0325503800412545
Ni 7.627484178925485 2.25566071321259 8.504134741250645 0.1634627685747572 -1.5554482499029274 -1.3788525434906382
Ni 2.5451823074131577 4.296834025145529 8.83648102065322 0.14322870091606946 0.6516751496936326 -0.8137685487246888
Ni 5.758862788475672 6.874055370847527 1.3645985731239139 0.24654976700392378 -2.510573993552586 -1.3113549148592964
Ni 8.335899842901922 4.210134194469745 5.918566843670006 -0.26266955538392184 0.4389672709398182 -1.6379104702639016
Ni 5.328984958665204 3.964750360810893 0.5989125522959377 -1.723151538921594 -0.30791017238927615 -1.0738621158513182
Ni 4.427994126095589 1.2963324773048526 2.8330028931385685 0.6550003574121235 -1.5781235800132563 4.011861184032078
P 5.429644853478922 5.749860159655368 3.5498747623027156 0.43367979728863376 -0.10010513025371792 -0.355075260110853
Ni 7.056623523167574 6.403826966211972 5.225956920958121 1.147715511497359 0.25730134909347296 -3.136075055954012
P 5.958910968300444 6.351303952623708 12.723827202737075 0.36476240549162986 -0.055562310646336564 -0.04638810034623624
Ni 2.6984573614530127 2.555180109122502 4.147122242922268 -1.2148133335871207 0.3328606716870267 0.051384782229879244
P 3.890904846618553 3.7946587278590065 5.250624308217031 1.197706755813821 0.24728587383899991 0.8423378757219494
P 6.098944694177784 8.62149603292905 9.09782171442274 0.5261310105415197 0.7205004959974624 0.08307825667841821
P 8.33169800181486 5.1127283611383705 3.79010949771716 0.5466779814549358 -0.656778789468785 -0.13337494805044126
Ni 2.0641452194549643 6.9741439627064254 2.1629023068465805 -1.3686848589290173 0.9328473918674322 -1.655030160663324
