# total energy = -340891.46273910895 ev
CRYSTAL
PRIMVEC
9.07503710488495 0.00000000000000 0.00000000000000
0.00000000000000 9.07503710488495 0.00000000000000
0.00000000000000 0.00000000000000 13.28223412180593
PRIMCOORD
 96 1
Ni 6.560997809321256 1.9833675345971618 11.572836852412161 -0.22687440006218346 0.09168990960682918 0.6249834993350593
Ni 4.895519753518175 0.40260222873553253 5.720126640566498 -1.1760269568475423 -0.8179787301512944 0.6279487526109702
Ni 2.7949481132192933 1.6407122792285556 4.716760577854071 0.20457470812371867 -0.44509395266284635 0.7049553491740117
Ni 3.405026565399227 4.438972781033302 4.873477395613498 0.16772128674079503 -0.5652601153324975 -0.11957583738381988
Ni 5.373756064959851 4.763341836402763 2.73393573048269 -1.3028255372320465 -0.5273795382366401 1.3791906435563472
Ni 7.584262706146898 6.175717104128339 2.531474372606293 -0.7000203737662396 0.175213224242466 0.7381007255777289
Ni 5.147778563134182 4.622352058146323 11.787584903181285 0.5368951910365591 -0.22803473891887177 -1.0259817472302717
Ni 5.5651849000873845 7.723246901177625 12.60766969918267 -1.828759601271412 0.22821265925763276 -0.8465709399666905
Ni 1.6448051210149646 6.700535581622429 0.45641901446006533 2.160448878358157 -0.9245180460661304 -0.21615829919625998
Ni 2.6308442151624445 1.5469762197788406 0.37070438040947934 1.4902766983016011 0.3357122822032089 0.9430711264779693
Ni 0.5977908517834851 0.1644805121014965 4.6518105364675275 0.2082470147689833 0.1294352466764029 -0.10463849934769721
Ni 8.714195590461353 2.141382082679109 1.3403367147661625 0.05328354191448887 0.8593562646568167 -0.9484516740635924
Ni 7.076813849892691 0.5567154183164216 4.666049269866365 0.09446644391070182 0.8977006687629702 0.5254584099545273
Ni 0.9153082540515288 7.547073203617617 2.675799227041238 -0.5587333699575732 -0.2609415169492216 -0.5606267303255442
Ni 7.704997001327361 3.839621022847905 3.5908252474352116 0.3573123769714879 0.3485477434049804 1.2720118942852996
Ni 7.504229952900016 3.905632843589238 12.751648794699518 0.9686978259071382 0.3369114447176327 -0.2862188034587716
Ni 7.8755351007734875 8.870694607327488 7.047088565477206 0.03414964929851538 0.3675289124931735 0.25159298585478607
Ni 6.807484895265076 0.5189541884422553 0.34882991069337976 -0.1460304320309227 1.1110263836064416 -0.0958088168712092
Ni 1.7855044980803514 6.51804565815701 9.303395104508265 1.0731725459834616 0.4360534397271329 -0.08137721482691146
Ni 0.10312327795051697 4.742414800572475 1.3985657835872634 -0.8397346337711473 0.09814389276228903 -0.7505983438241074
Ni 6.525060661928394 1.9578666800077822 6.786664037370266 -0.6961356939998528 -0.0983845480181854 0.2621985292847742
Ni 3.3315369139882685 4.3748757931454785 0.6113879800508398 0.396736130184749 -0.6343682829840688 -0.012187543205127398
Ni 6.017720706120832 5.7542996007237095 4.881977982977865 0.5704308609001596 -0.39278845839091064 -0.8113848789838606
Ni 5.5771730242555595 2.5568826618160245 9.5467785277227 -0.7292946972503246 1.0260367688379233 -1.22926807555987
P 0.41637904273985166 5.4614299995463265 12.451815917462906 -1.2386140355511444 -0.8466984666834902 0.4770856750780945
P 3.897311034458113 6.114642103634915 12.83908587081454 0.0260244490882197 1.0270572396826376 -0.7140603967990734
P 2.437691122963032 8.542586636623216 1.3954049481233912 -0.3026422391221175 0.04098441283216167 -0.6727034311188415
P 6.309828004171701 7.785819282812418 5.766003676226886 -0.2763815056533756 0.008754349153862343 -0.029536833116852356
P 4.722467868761992 0.9554652937518859 12.538654948625101 0.5419893177300149 0.4710633801434145 0.8774102939450502
P 3.8926101651779352 6.34116410769381 8.358337063440757 -1.2421786129739512 -0.4587529382071777 -0.913878306964097
P 4.683182032634796 0.9321968983187299 3.603058397608337 0.6486479328315344 1.831357701015891 0.49113701096483803
P 0.24525288088184183 5.750823861468289 3.926959181057224 -1.020115518257482 -1.6601654250073603 -2.027713106553611
Ni 1.5266935115912026 0.9563637224367075 2.5242088978076254 -0.32460794475993127 1.641751955497179 0.6412526688087279
Ni 1.7985271764916537 6.857597250796232 4.746619265316696 0.9812898036395358 -1.5190691970532613 0.9706014706877543
Ni 5.639318879140993 5.305411959652871 9.233065381057457 1.4014486836235995 1.0992162783453907 0.711248381271575
Ni 8.835011560976799 2.3568960665896355 10.225606739373367 -0.3051662910955518 0.22689599732873827 0.2650326562994597
Ni 2.2186469495737624 5.283922271514917 7.163985934920875 0.5748750127144422 0.1183432505282994 -0.6934594327192702
Ni 0.5506478484308489 0.1432685201024875 9.17182067736801 -0.6473140445114594 0.5781786231663784 -0.798732737437489
Ni 1.8212964448776867 1.2173708679331978 11.526787391044586 -0.7844739135256296 0.8021217085143799 -2.327871145801294
Ni 4.103477730031607 7.124684671230404 1.529316197347904 0.2863671561111778 -1.2554141378276187 0.1838621581667156
Ni 5.693660202016866 7.67102006197411 7.97372337348354 -0.9770677951383883 1.1433096691201794 0.5893485237402689
Ni 5.442608372351176 2.895789926812597 4.528165876850475 -0.5401368379023085 -0.11513579933459525 0.4611479208019154
Ni 0.8251922269490393 7.544922419796379 6.9886598458372555 -0.20485804369209235 0.010732555926155709 0.08279569244099289
Ni 4.724754778141538 4.672827415166297 7.162032986911041 0.6940523291082628 -0.5299110464092421 -0.963788818641295
Ni 8.234008146017286 7.260764854350597 9.257332030584859 -1.0261149303740262 -0.234649416021912 -0.08715191252715958
Ni 4.519350385694559 0.31377667192578673 10.449106756037864 -0.44477719275337596 -0.8180208962431397 0.05097083462091222
Ni 8.207599787705863 7.468646731958751 4.749859961108108 0.05842677667832519 -0.9102836476343034 0.026261761910006384
Ni 7.351288350624284 6.291959255884694 6.965987680349481 -0.10392476111012425 -0.3015410356381388 0.9885979072651748
Ni 2.110327305310833 5.32376168491256 2.59726113242456 0.3217360225287749 -0.26210185580590994 0.8291285761205269
Ni 2.4636275793389917 5.210931747151082 11.468213470809108 -1.2919942509444977 -0.9600452924384628 0.06678209062155596
Ni 1.0382568583137746 3.3133596144357678 4.0700752405344085 1.153440586906594 0.5943068961868088 -1.062172852438848
Ni 3.6108756346700064 2.6442389700997837 2.571121395214863 0.07301675867735812 0.6480727770543548 0.001639078265319758
Ni 0.9217878306269085 3.461228270905286 8.205432668817627 -0.26997380235481894 -0.6285537331848207 -0.4232907407448259
Ni 4.086770586508814 2.380672664107135 7.024336539661891 -0.6859176158162703 0.3260873575189352 -0.2711066304076815
Ni 4.110538108989093 6.637563898349937 5.847782466634976 -0.7577884338146433 1.932110492155937 0.8721477599945302
Ni 0.5547697303363636 7.247587900306548 11.294494570817225 0.7299950657514589 0.4377915054641622 0.18993407539240836
P 0.21958776811877292 5.67254259040495 8.02288103509911 -0.9022219536720913 -0.2755240427490868 -0.181249660244533
P 8.23344549370962 1.8113139039352248 8.047586008924258 1.4467633483999986 -0.8125040801899683 0.4395264858773979
P 1.7986451519755193 3.2411495432728885 10.335915631795013 0.5476791690259407 0.39023663850333434 0.6771612097798789
P 3.8512098453783805 6.190554789983724 3.6854742556293005 0.5243050130763744 0.18928641450608047 -0.376081687159191
P 6.965998570394145 4.0510421649720225 10.479363837634466 -0.10989511976094622 -0.1885870744462107 0.80804038799166
P 6.112155543436519 7.567573712698546 10.259264237416462 1.607457295980367 0.29300394470140506 0.43662910972494484
P 2.4923228470299588 8.560999887143447 5.741909452406671 0.21002493260501248 1.5913899581048594 1.2720440330748157
P 6.985228574264215 3.856836368455041 1.624138538752903 0.20511643955980158 -0.3398939243847243 -1.1101300970444172
Ni 5.272814425957123 2.8241878831434857 0.5814866399132791 -0.15672544985092363 -0.1486385590777311 -0.5345454598574602
Ni 1.1590183786058992 1.063821238163697 6.75570273288536 0.36341386188353536 0.9340444974993268 1.2600032998601978
Ni 7.018715461607564 0.5901124627912879 9.718079837799065 -0.13572339367795982 -0.9029174370772192 -1.9182612449776708
Ni 2.802852470638279 1.7012337024515343 9.154235070242281 -0.2711590809121717 -0.10717334995440897 -0.05716847879119187
Ni 6.520659268876491 1.7780266674107255 2.5356715773207372 -0.5415949105050737 0.29241104831241255 -0.008740979417423656
Ni 4.097061678716771 6.742825255069585 10.543291122326266 -0.11671497089625707 0.8813821341086047 0.33128535678010684
Ni 8.497801327940445 7.212267855444675 0.5547443202321464 -1.0448641859570715 -0.1479893555295064 -0.44275270612417944
Ni 7.4030342128551165 3.9503909271603477 8.167644213831801 0.5514923721244438 0.12753751543305777 -0.11034120615942931
Ni 3.041117572860398 8.418467352559535 12.409617901891677 0.9379062944475782 -0.7874597356268309 -0.06144910844441674
Ni -0.1216726540290548 4.981614631628297 10.18083232073526 0.20603612316059353 -0.46301814124143487 0.22889425870568966
Ni 8.623154817066101 2.617576510746191 5.661871254137458 -0.7127568474963015 -1.377324793992202 0.9280589693398533
Ni 3.8719009302409377 2.6922096168469225 11.504526324742896 -0.7740917989603572 -0.27967740279582803 0.2394123846281941
Ni 1.1937757711601067 3.1628047469490053 12.786182941338103 -1.369002904390068 1.4866504144029236 -1.3977038718691863
Ni 2.9251204471089935 8.64881902232545 8.010541706990505 0.9081429471422167 -0.8560022605829193 -0.12420382307413448
Ni 5.776052464941055 8.084306332029241 3.3898921258267327 -0.14622840697434172 -0.827918872083142 -0.28038368483423326
Ni 3.20876073543321 8.38286598154383 3.560529143178562 0.3136992682672275 0.013673640832350644 0.033124293357794564
Ni 3.661478042211067 4.073339531422594 9.468014464679234 -0.9317310188748018 0.5045147178233247 -0.4339824161307171
Ni 7.309643004819778 6.3430789405473185 11.792286679965182 0.18803762970064392 -2.8007618089614343 -0.7496516636401218
Ni 0.772918197551978 9.105438595108085 13.229105560443958 -1.0117982566410382 -0.6039153658108503 0.9219189178803864
Ni 4.50619158172495 0.4314935172304606 1.4900013211016017 0.4790132311181105 -0.12153501799271972 -0.3557375762852002
Ni 5.82348768449219 5.44681011458423 0.6216944998220705 0.561344325217859 1.4755085388534912 -0.8033638084515972
Ni 7.722393847678905 8.51910044029677 11.718742578330902 0.3792505718054759 1.8011711501301817 -0.4305520502929295
Ni 8.796606003459983 4.941775218230655 5.83784711588606 1.1872719336337425 -0.058601097472660374 0.052931300781392715
Ni 8.171290563786965 8.973160852583248 2.3169132676039106 -0.48111253684930044 -0.7501427443439275 0.2360306126401548
P 8.545236547491578 1.6785733345121463 3.4937459442734937 0.4352463704448053 0.56511716199673 1.0232926304338827
P 1.6748707193262151 3.270461913494844 1.5891796803724023 0.9778324412185547 -0.8266222647589053 1.3888014271732338
P 4.853466031038751 0.8882555680974576 8.34773832747103 0.31999281458542306 -0.5222972386177263 -0.932965405502535
P 8.5262697197009 1.5006209296569368 12.330243088843275 0.30353209792623853 0.2413373695650489 0.21590298865234428
P 6.4391563595999015 7.679169445398046 1.2452521047854932 0.45086916458372667 -0.6927451802610649 1.7126902343789534
P 2.1848333608904786 3.2314301784098185 6.24304843528152 -0.9913890968570669 -0.5974001904001518 0.06188979552626115
P 6.729711826286078 4.004224047951877 5.979755287909207 -0.04049513190056896 0.15940865311004157 -0.0968853377648396
P 2.127279474838577 8.514680897170425 10.314664617135955 1.4738378360192876 -0.4426375207025538 0.10692960937471907
