# total energy = -340886.9277260651 ev
CRYSTAL
PRIMVEC
9.13112665028983 0.00000000000000 0.00000000000000

0.00000000000000 9.13112665028983 0.00000000000000

0.00000000000000 0.00000000000000 13.36432684112770

PRIMCOORD
 96 1
Ni 6.442466534512735 2.4079146694311477 11.68673017043781 -0.3667354700576007 -0.9301413057901787 -0.14007935665381036
Ni 4.9082546046299065 0.46910707529916307 6.217766852381145 0.14563525347503303 0.529694559523062 0.1613531784309221
Ni 3.267153704081631 2.1490563549432995 5.3546452626027845 -0.5291240317315726 -1.4460992324534385 -1.8642503379788538
Ni 3.4985090645592005 4.7818615470567725 5.259076149867796 0.5738519707665666 0.1957707366788435 -0.7629581509410408
Ni 3.632864464727609 2.5785754298734167 2.632973204847134 0.9781787688143799 0.7668369171701568 1.3584649809732219
Ni 5.044892786505676 4.914445508620268 3.113166381229923 0.184284847526431 -1.1728714419376962 -0.11512937157669205
Ni 5.472384751279657 3.087937077800175 0.8117535226866535 -0.25196708136475315 -0.47829152246073753 -0.7960227947054936
Ni 5.6129949733262325 7.951093047019468 12.793442830645192 1.936881688292335 0.447608491554584 0.7341965054273163
Ni 2.4717321148421174 5.604731303545588 12.047847061175897 -1.3078049927245088 -0.16607603782788818 -1.596260398823283
Ni 0.7283543757899459 7.610648114310556 11.431925163149552 0.49405032795689113 -0.07485869698210333 0.2913604955607111
Ni 0.34585238601730744 0.41114816086196354 5.2462597002499916 1.2603748242670036 0.20502953627295012 -0.1565171904948595
Ni 8.76569000260081 2.7686489659550793 1.5997898565465145 1.774280753497241 -1.951329231176233 0.4233372777120451
Ni 1.428135629505202 1.37794182532376 2.875629247888821 0.19997011947217175 0.2940043609414614 -0.35971712975823855
Ni 1.7863679972778668 6.805994955846476 0.7728613141820115 0.4538241334469926 0.7744576669402081 -0.4974565254249626
Ni 7.784623473791912 4.121836306444223 3.7328165183407283 0.3869183727633788 0.46230645988639096 0.16214944907997234
Ni 7.63839760874523 4.254283301105278 12.550987672393756 1.9025821436795167 -0.40474640208373525 0.633709052133515
Ni 7.941751904272948 0.23886297295673664 7.274042820433424 0.5064777550869665 0.7668104348075955 0.7064990395120477
Ni 7.304983643694988 1.1255757420116446 0.6144033916346086 -1.593166590389308 -1.4565417679430013 0.021048078919550847
Ni 2.344152010781155 6.736333589264664 9.591136563080893 -1.0876334586037977 0.42129479336071957 -0.7467355184345913
Ni 0.038089582456333954 5.0757286018087004 1.4780144098110284 1.2441879300944958 1.1462576960049098 -0.26100065232193115
Ni 6.414187434721954 2.8395156412783784 7.093276641929011 1.6157596451984755 -1.5276199148367497 0.7396459585776616
Ni 3.5870627325511277 4.562997568081879 0.7074687493929633 0.1654314622653538 0.5775733854822117 0.8969180249606746
Ni 6.284580220504854 6.21938397494264 4.8537627790498465 -0.16280867993052608 -0.33138408714150025 0.13386422898203396
Ni 5.084284467647887 3.1761620252262426 9.536235663018873 2.4466142028711735 0.38995844514128325 1.0248676882304866
P 0.24858670991740933 5.688828981644748 12.540576361582826 0.7234114989966703 1.268075535345371 2.0073353142282073
P 3.9033375725425072 6.548789375314756 13.260232425955044 1.280434056910724 0.4438739642128162 0.005279760341700585
P 2.5266010559602337 9.018421330986103 1.6442803589102872 -0.18764682202012845 -0.6850241574677234 -1.416390392535096
P 6.841496776959346 8.171527579809025 6.000556520475065 -2.350754735267687 0.3804780164546738 -1.5486960187807586
P 4.724782873245931 1.4106860461341384 12.754259339194693 1.304922271860075 0.48355199952872846 0.5197559602531113
P 4.074938839048209 6.330546312964266 8.160231462808321 0.20539463292185273 0.8065378353042045 0.7577233849046627
P 4.902657223883458 1.3486674327085693 4.04833530103063 0.5934152376104748 -0.618998742506534 -0.1682013117010071
P 0.31703363663090584 5.982367315830817 3.727177134410865 1.3736038934971893 -2.865003906769956 -2.4870152323960393
Ni 1.0535768069614952 8.010472764791329 2.916537609197404 0.37485372828936087 -1.0696046261265448 -0.4143211902563638
Ni 1.7656951261360103 7.127127555311119 5.131741673118547 1.738013800745407 0.8218269002527911 -1.5129291455937943
Ni 5.999296424972602 5.860037609696784 9.232999159027257 0.2320711137717745 0.4606437274719873 0.7203068919294175
Ni 8.745583261322379 2.556642463229098 10.33296391650768 0.2266568847347387 0.8335799270236612 1.032966663188537
Ni 2.2400571649255174 6.046568268568623 7.023514832952075 -0.30298342451162014 -1.2945242164552029 1.8891352741459917
Ni 0.6303089014588134 0.4244640831173387 9.40193778894949 -0.4543362971967208 0.5121277542838922 -0.5559504078957974
Ni 1.8894036324212893 1.3599717677234182 11.685807926628037 -1.216461410713505 0.02901849871953712 -0.5143815833150754
Ni 4.537512593100906 6.871410348452598 2.0643605880368106 0.15359513175205805 1.0202448447464945 -1.3082330814008631
Ni 5.7583168568168 8.441014525926343 8.335798377696051 -1.0431441179421712 -0.4745245992191376 -0.6538698433521062
Ni 7.085033060627391 1.1797050618565763 5.101871931034076 -0.5263053313358548 -0.3160392292543137 -0.05772537973592639
Ni 0.8804570340640573 8.124255736213003 7.166941094512851 -0.238174398456035 -0.41719208404625574 0.6716590490147272
Ni 5.381931808907205 5.09225594136999 6.922748282825769 -0.09203752275423505 0.5171295783738578 0.142032109504807
Ni 8.083677008582963 7.819066084192567 9.178873491633055 0.5637318516134291 -0.45363901401938006 0.6571474856621135
Ni 4.514739562788278 0.5873999102619 10.782406197066958 0.7330965874949181 -0.0598766217509743 -1.8789560196201445
Ni 8.583195301787583 7.291816558806933 4.868343362371099 -2.3702125868819826 3.5603713551452163 1.5837347555524466
Ni 7.383931366262343 6.574758300017689 7.254651046385738 0.6580157471996797 -0.5529859259508347 -0.30513415230603574
Ni 2.3210685221563256 5.513986165114594 2.9287651011347093 0.033882768790373906 -0.06551685075588717 -0.14878819728171794
Ni 3.699494297202046 4.844674568516503 9.74736557756923 -0.9754850240323006 0.22774214737911744 -0.2939963905216614
Ni 1.3970624049046112 3.47610127931975 4.150051488347198 -0.3071735513335678 0.5427601344577684 0.12338184139347136
Ni 0.8149457646262264 0.08066528752397271 0.1946409257217495 0.09114406440568819 -0.05924901546930442 0.4079988475827619
Ni 1.4790416615793407 3.826197813087382 8.496825799333259 -0.837166873043971 0.8952046418139937 -0.3872503021815008
Ni 5.62252786973617 3.2123030252171736 4.879729877527413 -0.7064489030004026 1.0158343743836247 -0.15638452157173713
Ni 4.381507291219892 7.221552537854377 6.083842441399088 -0.24413472980452794 0.5577524941015426 1.0138420265439443
Ni 8.27009809393285 7.465563640117553 0.44394990777136767 0.9169114373634661 -0.3453976278117729 -0.8994955558798637
P 0.3030337929760055 6.165419015380638 8.333085519915024 0.20036889757248716 -0.035169091701965235 -0.25577308537440463
P 8.643479001115558 2.088772655615324 8.170041032361192 0.09475106503065618 0.1939938472840788 0.3418705884951209
P 1.9324568954221077 3.808045132950452 10.6055828391275 0.967393762383734 -1.4436489711407332 0.4993277743057465
P 3.8324708972192085 6.775542647870288 4.111508088887441 0.4773366147466359 -1.9442463561875225 -1.0007936780004183
P 6.924635686741415 4.355720989053547 10.581807211088996 -0.09697198394137493 -0.33779076199879243 -1.6512426685964334
P 6.2764991732608 8.0819512256122 10.424696129748938 -0.05240499596427748 0.1375082534925245 0.7247464157580099
P 2.693152809329254 9.031798431791234 5.99029222080609 -1.0436848209369896 0.589918537311126 0.22479489182533544
P 7.249073754118315 4.107381732673216 1.446901921365071 -2.5116397158129384 0.8047046387502076 1.241590858791281
Ni 2.9719078491784563 1.7661882069848003 0.5653701536731884 -0.8116224489159635 -0.8216330390744302 0.537766537897919
Ni 1.666047139046311 1.731882563486587 7.25050825414322 -0.7518988078030857 -0.9839655506994861 -0.06978462489330563
Ni 6.955234092746875 1.1378114519630966 9.482230526498823 -0.7239424317994758 0.061140318954746316 -0.27734052713253526
Ni 2.9188925268067165 2.0440757897852055 9.410424258224774 -0.7808437729722101 0.3009039162747721 0.7447444561464915
Ni 6.51209137658723 2.0584938390488943 2.817467622436008 0.694386829629546 0.3839544050390484 -0.3727338537328806
Ni 4.377425677527131 6.9956393289671555 10.976081962682837 -0.18612344339706655 0.5013741153118139 -0.7057045686352105
Ni 7.6488070933307934 6.614131718906243 11.457424747933452 -1.3323551712600472 -0.6694389014349567 -0.08972712945350354
Ni 8.09730064981249 4.243846423139225 8.028125059178006 0.3195693538947593 0.7160206058492378 1.052227568300678
Ni 3.449630142641198 8.730772573605023 12.564992994724754 -2.4693651234144443 -0.6680551337135527 1.5762230205564338
Ni 0.2633928320713494 5.0782579239404555 10.474184097826464 -0.972590990313957 0.3610186221784815 -0.9705883580616317
Ni 8.82246734922628 2.718181227968754 6.017849961577345 0.23172812861005898 1.0081542321305477 0.061739385991325925
Ni 3.2804486247452984 3.2203840724612296 12.166589147578641 1.8691763145255615 -0.06257859406316965 -1.494185032217072
Ni 1.0543346904883388 3.3932728278498825 12.927995463153119 -0.3989027988187646 1.1843151649982635 -0.15287805108037542
Ni 2.929082864348374 9.081298270333638 8.211403210673197 1.4044959550903553 -1.0663388108910796 0.44379117469102275
Ni 5.943240437366658 8.28743810378196 3.7874233961188395 -0.40210587913709456 0.9618106118690015 0.11415826591267436
Ni 3.375814113351989 8.85091080929999 3.599614379490879 -0.07981758364927544 0.48804603074434016 1.5131014095056006
Ni 4.236331505758595 3.188817767011849 7.125792584568654 -2.2531554021549582 -0.891992048413967 1.3875600985669652
Ni 5.053065145018026 4.822093291867292 11.655857830627468 0.8553921378027461 -0.25659326728285486 1.113439106812992
Ni 8.285082273059963 0.06999921827450163 3.1599287079488607 -1.2859393029996693 0.2459815532052796 -1.1241071280497996
Ni 4.937072440903625 0.24530224359685907 1.7116361159676654 -0.4079695370067232 0.9840663379434083 -0.770656548026563
Ni 6.329368397603267 5.738155328777393 0.41010082061462655 -1.3091355386104744 0.8615134202091357 0.6069384689078902
Ni 8.008509572522998 -0.008575041205528891 11.451250279971383 0.007297562102677754 0.8817999383723135 0.6483967360526769
Ni 0.11457007455437346 5.3456447108870035 5.8952052315676955 0.6614458559271511 -1.5322975228180773 0.47955136300976764
Ni 7.465645820259018 6.426395751292918 2.679226927801672 -0.1576934701911478 -0.4639339681874849 0.1221327994777187
P 8.738241835351506 2.1135636649572587 3.8447568283682227 -0.4783704553277891 -0.8070636259006874 0.2164485767431692
P 1.910432617509494 3.5496525059309043 1.6605447220188891 -0.7265369319995294 -0.08308031356094724 0.9943101271586037
P 4.812697362359797 1.4370932649248844 8.50722250034126 0.470476397291693 -1.7534198508878318 -1.542796622577188
P 8.833205554377702 1.7651289962725851 12.71723992480277 -0.10965652138757889 -0.3113179125192445 -1.2250962035703676
P 6.7152863419228 8.107911019188302 1.6352460220252374 -1.060289005152574 1.085732384926343 -0.01270793448497166
P 2.036953510858241 3.6362977684154787 6.36676584064593 -0.713671646001087 1.368605411841333 -0.6419304116020429
P 7.177896620482815 4.5996316489216 5.903825015294689 0.9392725786674856 -1.05487400478459 0.5189823153118804
P 2.301655746516932 8.76371767920565 10.426995347484592 1.6028437084677556 -0.06994531884088599 0.3783375730729033
