# total energy = -340871.5696706721 ev
CRYSTAL
PRIMVEC
9.25219782371085 0.00000000000000 0.00000000000000

0.00000000000000 9.25219782371085 0.00000000000000

0.00000000000000 0.00000000000000 13.54152674148562

PRIMCOORD
 96 1
Ni 0.3485543472968086 4.45702424324051 4.800701757070551 -1.1444368407460872 -0.8838077128309617 0.11712506185048216
Ni 8.97873985358335 6.9786922525377335 2.936304329027525 1.8322820126023736 -0.4655128826388306 1.754385557235211
Ni 5.5037161295276436 8.622706029575225 10.38257305195672 1.5665538728977857 -0.48572072504527314 -1.5059915379336966
Ni 7.300909293542566 8.774201516550852 3.63105186273949 -0.6046956956203006 -0.06441050506558585 0.46039715867882003
Ni 4.79700550404461 8.819426259456485 3.7428100853318482 0.47747108344197126 -0.6299817238805988 0.31734303566740185
Ni 0.015444693807769113 8.683909318102389 4.963998422355534 0.4346627300271934 0.15204449943548654 0.07027210605268544
Ni 3.7672451397536526 3.925383704758379 3.3523136749131446 -1.2099158962855034 0.09748800434584501 -0.05633955513199329
Ni 6.064242029579207 4.873974537643622 11.838409153352883 -1.0458440333718375 0.851542682149669 0.7677468305789358
Ni 2.367803959681696 3.2651191122921794 9.49557595034631 -2.0303875680619807 -1.336057302701983 0.47947834367998715
Ni 6.88267294364357 0.7023324854783393 8.53112129909241 0.8435295820372054 -1.644246954004891 0.8121356411069561
Ni 9.000528779430889 0.30768738956068203 1.9529187558302488 -0.2935934986562879 -0.694464734055333 -0.3232231485972627
Ni 9.02783201517445 0.41924391424073626 13.09104108464105 -1.6556701082401681 -1.3172157445154475 0.5281225870502517
Ni 2.0057562070956942 2.6024119396035803 2.097135538787081 -1.2560759397813335 0.7961621484968353 -0.34067939640049716
Ni 5.1239874269226835 1.8401696228522129 3.4169199217956048 0.6220357295606449 0.5863405901518804 0.2632866201426304
Ni 2.9671428295550966 9.08539918996145 10.539532886960181 -0.2970544606216949 -0.6193327288071849 2.951629514480001
Ni 1.4971906499569865 1.1376687473736928 9.21987063296278 -1.4040930632249817 -0.9449745141482694 -1.3091195977708743
Ni 4.748625761685043 2.761290680433276 12.808171790491595 0.582502447352713 -0.5605778793654798 0.042913768644390615
Ni 8.833026990240299 0.6529183474033777 7.179107810225154 -0.24887635825457138 -0.6320126382676986 -0.08391875030184258
Ni 2.4905806246485063 3.6975945946240256 12.540063452731593 -0.40202926026288827 -1.0234767214202307 -0.22139923588022517
Ni 1.7231848337157887 7.7853266143916455 8.92379845253543 -0.5620207824595934 0.7614782239614046 -0.030300193645438137
Ni 9.18572077083825 4.0319320147627336 12.64415715465639 0.5899869286552161 0.1789428664882273 -2.760629202606607
Ni 5.4365266690160405 6.937584737658492 0.0628853380894058 -2.3173687036080737 -1.497230761021931 0.8053245317223937
Ni 3.9929710097759035 6.270353240239767 7.339764823474338 -1.5171897206423612 -0.9524371410739016 -2.1675746907696607
Ni 1.4926478208312364 6.645169025806493 4.710054274226103 -0.5635637014666811 -0.38080403233552484 1.9327643236898517
P 6.4768345388128115 2.6610708737324105 9.438484338526854 1.9461638849252096 1.8153520696162542 0.9627050986588129
P 4.333821977174342 3.157479042945995 1.3842962574733 -0.3019331288702348 -0.4197534170155287 0.6394464688379244
P 6.424346820624664 0.9068763738295262 13.153033585641586 -0.11142775435538875 0.5417332358551509 -1.2301185964856234
P 4.182419012176838 7.849305562262443 1.814131162549568 -1.3091990448585582 -0.6251056267352202 -0.3895175009491227
P 7.266796440209286 1.4871982763198988 2.544384930585318 -1.0933716466391556 0.6759085683197005 0.6502268472828803
P 0.5597875746661571 2.4069407564269567 0.09984046659056879 2.3348560617595595 -1.5165538868305752 1.0982202329807085
P 1.1906560842436944 4.996103548763584 2.909572879108753 0.3671270490690645 0.1835294574176452 -0.6022269223648338
P 8.046173827308698 4.921114485496364 7.463723919321537 0.8157516405929888 -1.1264810275986148 -1.2132894407434267
Ni 2.620814561051884 5.520851199875686 9.237122281003254 -0.4095448519136431 0.7662368216923127 0.4886954914028809
Ni 7.7472538203947785 2.415425021820669 0.5579565647191389 -0.9530598622595651 -0.6542747921000087 -0.10962721081154023
Ni 0.5934017345373641 8.24120090499034 11.235932863201391 -0.229206904850102 -0.025656524225839687 0.06992552134654409
Ni 0.15357353060422715 6.031359718554939 8.769533782754637 1.6867989684344886 0.12695901722176844 0.5087621802457689
Ni 6.954377476687487 8.112734138369076 12.52554675436438 0.5771321841797351 1.7057148315023851 -0.2088699930649629
Ni 7.41806987443742 6.782915746833311 7.931434546581274 -1.862063357629864 2.157313932273601 0.5564324897385384
Ni 2.821698279948597 2.5161907081924495 7.171904049008638 -0.3608155050287399 -0.953699809836409 0.09734068013470333
Ni 5.879531152458077 8.938298496946581 1.5035700403484422 1.8292331984737207 1.2148125622561723 -0.37456293652181943
Ni 2.877701833305349 6.542839718004464 2.959216471689455 0.7833979068526314 -1.1970015022166804 0.3320787992156797
Ni 3.021656779064098 5.069565999391803 1.1021356816762524 0.2204147604797688 -0.68127806016173 -0.5635814420784939
Ni 4.614626180772133 3.493657650449314 5.442515616659825 -0.21393455207206383 0.00913024443604234 0.4829009962082909
Ni 1.9025664448971387 0.196192854605969 6.501273294113741 0.017552921282098802 1.5481707424049078 0.10975190931486259
Ni 5.269108149605758 5.832252421638153 9.090359293208527 1.4223669218335053 0.46650275735592567 3.0741024709059572
Ni 3.6131867939840703 0.6088501292242582 8.547370934109834 1.5356947214250842 0.028099072229061287 -1.1850700408864172
Ni 5.868363749698851 6.57693406694212 4.907395326580556 -0.48457169904249453 0.8697016124468828 0.23053899339796427
Ni 5.076819722476504 5.672596496192239 2.539699617613261 -0.2308272140623444 1.4144260697198738 -0.6138591072871235
Ni 4.180244745690991 3.942111678402689 10.525679571176097 2.2736139271196265 0.3176327989936788 1.13418919487615
Ni 2.7833479200173663 7.5994036993571275 12.93699199106928 -0.012531556808107448 0.780553752535617 0.6039379915186694
Ni 5.264195232567524 8.294067963288782 7.4733924660352 0.6365274954189167 0.33036130230394073 0.15628964786508567
Ni 4.166468223148746 0.785496790732346 6.195993326423772 1.887386666886001 0.38678107585456617 -0.7693311443469202
Ni 2.4032768860933578 4.306231923298605 5.822585725364051 0.23283036053530226 1.0549105144494801 -0.3892693894940586
Ni 7.000842014099945 4.357960961266159 5.021631287747 0.19033593881651736 -0.6553078613502133 -0.4456277136791293
Ni 6.4457656585597185 3.764608263377199 2.250818245325491 -2.398922296111849 -0.9495181676548936 -0.5224823580453388
Ni 3.517324772452713 7.873222493606769 5.754363719576616 -0.10899137699975422 -1.204268725302055 -0.3222163045993031
P 3.359852365690459 1.8573694585849407 11.149686650856168 -1.1489270153069566 0.9779242296014125 0.360269916937915
P 0.7721273648938349 4.617762675830441 10.500194392302618 -0.13793377106571728 -0.19061721750236205 -0.5252869173736695
P 6.246621352851684 2.1806412501403547 5.472767527846107 0.17882331019122752 -0.6585417949064787 -0.2899903546860618
P 7.514450019046257 4.630891544525838 0.31890845506721915 -1.1196868874949168 0.8652574606326001 -0.04069490661620088
P 3.9503646388510982 5.662095251675485 4.9786372497338665 -0.9997554665438911 0.09299474446118178 -0.5001106752183581
P 1.1558770726679417 0.8880786835346454 3.372436279934721 -0.25063422148594255 1.2771592428141938 0.30222546329967304
P 3.8571394936961942 7.549987710842603 9.132608529297784 0.02192482509754934 0.8061398285348376 -0.325065344012324
P 4.041397013124531 4.0310438037727705 8.114502233370972 -1.0496546653671792 0.20320071059432745 0.8149396862146545
Ni 2.5261738296317255 8.6966680988853 3.79873684544676 -0.3923079192100663 -0.17086934545147345 0.6531136819123721
Ni 7.719053121463442 4.829036612870163 10.03589597559599 -0.37204222698249473 -0.595835159905877 -0.5494773985769441
Ni 1.9137430998541776 8.176676077448626 1.5805131677935804 -1.1000274613927765 0.1359455369910949 -0.9908692197978547
Ni 4.279937177116565 7.049073721294518 11.194888263267272 -0.4834758948751544 -2.013270191655404 0.7087315283869923
Ni 5.82280592767198 4.720896924842124 7.190781308204703 1.716883960745327 -0.13542463149061837 -1.1735185886033919
Ni 3.5650476087676193 0.9482577537640066 1.6686542302507257 1.2067647522510312 -0.5607514288288665 0.6658987494921822
Ni 2.0073753417128146 0.7791562595717013 13.52529021329348 0.7954424967219913 0.09879386764146211 -0.5348143972481305
Ni 0.8119997113651589 3.888421174498966 7.759525010352991 -0.7018229741926172 -0.4816702091249833 -0.5351375849155041
Ni 8.423385932108761 2.170343553975467 4.527676801393189 -0.1675755051915501 -0.8174470260175407 -0.5389243056514461
Ni 7.42623956510552 2.921964347638523 11.671644764327915 -1.2738276073377997 -0.40799421959707155 -0.29793737744728044
Ni 8.65150812136435 2.3913045421244767 9.544975284904774 0.2969037939764435 0.47557926573589715 -0.5358631502276191
Ni 7.721190379158041 0.6495135386085181 11.105474098391179 0.4371096489057891 -0.6969746449613803 -1.1480942349930163
Ni 4.3645577783061995 0.10864855890770543 12.909855294886336 0.5452427916703061 0.3636766286266188 -0.5396958937101479
Ni 0.7997127926706658 1.5786840082861247 11.439434954078934 1.205356559049595 1.3240757048600744 -0.4645788008603354
Ni 8.168034524692107 6.4493925201020685 5.381551960055996 0.817231824682941 0.5024105269961283 0.5525614368189063
Ni 7.578799054829539 6.874151669458609 1.3086031019525788 -2.2713449285797918 -0.5228551680037253 -1.463477575830886
Ni 2.781349445289949 1.7490817353919077 4.576183298862782 -0.43087240974682567 1.088051262867507 -0.21206921672855092
Ni 8.084228116909939 6.165710882984709 12.129050293664516 1.428249091645895 -0.4610273360636512 0.7699739201372416
Ni 7.80950260727471 2.8284893931426915 6.897457955747335 0.12447815978144369 0.3561134715673802 0.46604047300752643
Ni 1.4912322345659825 5.928965645368225 12.191476722742442 -0.4353787822576115 -0.2059242801730776 -1.4946336897187165
Ni 5.5242097476814855 2.248487616696618 7.661226885137702 -2.212617847052228 0.7525618953083814 -1.6817063844029294
Ni 0.5773436200146517 5.447046417928418 0.7223348119283578 -0.4911074432784832 1.2651408781970792 2.4634433586133704
Ni 8.597058937240034 3.6637222984338607 2.408251792856934 3.139889287493779 0.5742384075717079 0.780177857253437
Ni 5.466762851466043 1.481276869720143 10.760313457251856 -1.0084349965957602 1.1423982130495036 1.3310997015863915
P 9.198359273049602 7.533629825110778 0.10765209720334028 1.4366103191263968 0.6422237744727455 -0.5838497054092268
P 6.885189541448466 6.930432788749725 10.533046171074107 -0.6389085940565836 -0.885503612476146 -0.5575074679702721
P 7.076543496598697 8.320973354526423 6.24638172092835 0.9314430553207379 -0.23707962272995944 -0.7387532715600632
P 0.678903144958712 2.2125058194052905 6.127879571350738 1.3306831828742631 0.834115487812157 0.2916536013210977
P 7.076636018576818 5.646301750010198 3.1901402264425536 1.430750775021826 0.7572988957727345 1.1453441830517048
P 3.7490183100637795 5.490087642150392 12.57555580875866 0.6228587396825724 -0.3361385711073501 0.15878618903469427
P 8.846562955639428 8.970107553024645 9.203607119648638 0.3845745551215506 0.2994952088527036 1.054416605532197
P 1.3029315046937504 7.4905423398997435 6.845810337120528 -0.4378763518684846 -1.1335363917834995 -1.5562635467153714
