# total energy = -340894.1209325305 ev
CRYSTAL
PRIMVEC
9.06455898076467 0.00000000000000 0.00000000000000
0.00000000000000 9.06455898076467 0.00000000000000
0.00000000000000 0.00000000000000 13.26689832801559
PRIMCOORD
 96 1
Ni 6.3380030924888136 2.052424638498463 11.42634160933857 1.1544453740220246 0.5993303175433291 0.045863595301333916
Ni 4.546030427235014 0.3253877544277205 5.844002757059598 -0.12428301305150208 -0.19222878496385604 0.25368766360028566
Ni 2.5480203363086007 1.560735765609789 4.830702902080962 0.6173419236294013 0.35323435024737226 0.8015882046084131
Ni 3.6635865457279944 4.259037425289541 4.909004375483741 -1.7869678620466063 1.882041600524004 0.43325556526702164
Ni 5.079697272771723 4.466570503194268 2.769995976040174 0.6052029742740223 -0.11918168726919473 -0.7460408063604119
Ni 7.315960231994615 6.157373625644196 2.5021500420334717 -0.3555321451426135 -0.1674477213644342 -0.5670290343074622
Ni 5.06740573079143 4.305937453465084 11.529040343242794 1.108590006250807 0.4968682570216605 -0.6712055064170762
Ni 5.6186759498721885 7.759344070065455 12.460244300428569 0.009612583389099575 0.17783934901140339 -0.02063413131058382
Ni 2.082020423576381 6.918950677678332 0.3382186376674734 -0.3105352687169491 -2.3900211369674773 -0.8084857030591948
Ni 2.6538762561064355 1.6895703424283044 0.31309983827102034 0.9750744188574433 -1.3871546355984303 0.3245076717366411
Ni 0.3987925530681437 9.013298901470936 4.897554931032923 0.2753183544961839 0.5258183643971074 -0.016110532408617418
Ni 8.56470294198515 2.1873052761583165 1.372566398603514 0.9023728774276587 1.204280552376597 -0.36130195774685514
Ni 6.893633364440162 0.7823738697077256 5.003969227664082 -0.3840348805679967 -0.9258655612329602 -1.1124052662318389
Ni 1.0995672628152506 7.444386903658916 2.6935654276113863 -1.0173081307156737 0.8942746738005566 -0.470576413204667
Ni 7.542982111711755 4.0023381794636395 3.621478949886508 -0.09180740902129995 -0.6006927451084945 0.5010740675728919
Ni 8.026630720782935 3.968491116222921 12.629052675904086 -1.0310648181801338 0.13456793991727792 -0.5253673929026178
Ni 7.811202412004435 8.577538357504393 7.060297971716314 0.07148540963449625 0.7633137345082468 -0.14829171726127366
Ni 6.799923953678901 0.8199990411323574 0.27308887492219003 1.0532452109319153 -0.5108468306889395 0.7153001827434455
Ni 1.7119779322330866 6.47966402026759 9.368406625434636 1.245368066445526 0.35514339434462705 -0.6419450668900621
Ni 9.232253323693635 4.909754920967494 1.5448637228314017 -0.1230087743247688 -0.8349194717706911 -1.2030757334352185
Ni 6.477570107142629 1.814543417120267 7.190698904327008 -0.761978560636591 0.5949872100832849 -0.48606988085457575
Ni 3.2245718250867275 4.330538666543635 0.7216567342751316 0.5298341704247198 0.34900437132642476 -0.518079858102269
Ni 5.930215777542318 5.774486654222675 4.662677704501535 0.15498481301073308 -0.9066401373444449 0.8797867645970268
Ni 5.341953093253908 2.762388091686147 9.347684137144702 0.9468390781608338 -0.5627733443549018 -0.555749604738901
P 0.5005667019561506 5.6517525255993935 12.534791233500789 -0.2044564373782995 -1.4178721192869452 -0.18088944869163687
P 3.9940984953485317 5.8158301077419345 12.634160554890736 0.35015519710141635 1.8998696298443603 0.21223968086814415
P 2.6032416296300953 8.54219564203156 1.4030541362853117 0.17591462118486478 2.364544847073244 1.0549639933952348
P 6.159240924794594 7.821119039531309 5.742484228734898 0.49442288080496133 -0.2700061982546511 0.5023513916234188
P 4.878056158205632 1.1570093730874613 12.689881305412166 -1.4653380260783924 -0.7561704385952461 -1.3573164691910753
P 3.995086532277626 6.125285086846085 8.34477317321593 -0.15336193269532944 0.11889243816355008 0.45807185297975306
P 4.718130144077083 1.1545982003981117 3.775679788561699 0.1305397925944913 -0.8294623053108617 -0.8055019378405225
P 0.22278510484871156 5.624776398067422 3.620682175151944 -0.8158046053181112 1.362846140760053 -0.24298621802238152
Ni 1.4930778973642818 1.1639256315911217 2.8144929896294517 -0.7486036819915818 -0.5016319969588909 -1.356956257638179
Ni 1.9066212072646755 6.5187866568361335 4.799764655817732 0.6084641615237973 0.20509098563850484 0.695144276620861
Ni 6.147620160179008 5.715594214513261 9.141251496700454 -0.40086480764114185 0.9077706514044623 1.819359905224067
Ni 8.427701197523385 2.4854114274163552 10.187014256763176 1.3870368790736436 -0.7398665592289 -0.2934420606800882
Ni 2.345055796131061 5.138109290855064 7.099873836233983 -0.153817017954877 0.8473492128936118 -0.23556807118143944
Ni 0.6335546597004551 -0.021411394772603568 9.017881942492497 0.054422026394306273 0.3934939690983675 -0.3282008043175122
Ni 1.3154397349838947 0.9964307107121714 11.425386204821812 0.23681377066308248 0.5122899908933694 -0.28992144912133944
Ni 4.229369123739763 6.763285006271567 1.6173013330283905 -0.21587187830409274 0.6559987167696508 -0.3369957769013229
Ni 5.3929231084126 7.944333589780663 7.974122449964908 0.6349418960993517 0.5979740606257508 0.6034343124093736
Ni 5.301298546217318 2.8121615850591484 4.993368225934027 1.3619953627239836 -0.39490447629264896 0.26968429613885814
Ni 0.763641958570354 7.297794855793651 6.862661579308697 -0.27604340558766655 0.035316158802790786 0.06312032549925259
Ni 5.08965922309351 4.486140886037523 7.428043503813438 0.16977456972539792 -0.2669884944742498 -1.234276584518055
Ni 8.336674896220948 7.280590322844834 9.289230422090045 -1.166721106065584 -0.8039453919866799 0.23300468132963742
Ni 4.809129251702571 0.33419216056743933 10.324645081618325 -0.6432745843347631 -0.19477546264510973 -0.44840244821078906
Ni 7.913323733501472 7.257738569649908 4.543859465358701 0.6286789459087754 -0.3764043606059324 0.9949063659817058
Ni 7.123682806857463 6.192163403019096 7.012205954034569 0.4351694944602828 -0.10198974887094048 -0.570343957613308
Ni 2.2868250692273717 5.324032460145472 2.6567225276269455 0.8322694357423537 -0.3382039382768111 -0.03336700549621995
Ni 2.4791024943645237 5.044599300391417 11.253726119090397 -0.7008274430485673 0.5044239578817313 0.9793846161970229
Ni 0.9530386668628622 3.6134323408777274 3.7373249201389744 -0.0240711820165908 -1.7832670161562516 0.27008384557012194
Ni 3.415679922115135 2.7900440611418067 3.011638989396114 0.43784909817497497 0.113871587910191 -1.2126633771236535
Ni 1.1594658685717234 3.3754695384686895 8.279831046841585 -0.9754994222100039 0.20676554512745032 0.27114468273446857
Ni 3.5849243028777114 2.757339132332885 6.994056894039773 -0.3421883768458558 -0.5225170679380162 -0.15569752280704152
Ni 4.1555382908271605 6.748536968807011 6.152802368549312 -0.006688210653452998 -0.09369177052820638 -0.9479569938153609
Ni 0.902443924446045 7.463386219286272 11.564688534353339 -0.18870457386068146 0.8887758554695145 -0.8599987833368221
P 0.07751557613899472 5.6049159493367275 8.065305568137743 0.34785431688238155 0.053022060722986104 -0.5358124994953417
P 8.45760517760671 1.5249851449827418 8.028675685289391 1.506691906434831 1.1361077520551015 -0.9587355724881039
P 1.905470008273896 3.1173743505594804 10.420352321179335 -1.2450608196177524 -0.20801998635984173 -0.5201436826098332
P 3.9308278736505624 6.180297895310981 3.755208388555582 0.5091023371940071 -0.02033768311608755 0.4045242587706001
P 7.105308945799901 4.11278983066561 10.432279467888531 -1.8617136875999292 0.6449234327920957 0.069229523720784
P 6.3321020645911945 7.790698379585981 10.294702123931376 0.44322836020901724 -0.9341468274051461 -0.13760698385391784
P 2.397276720429342 8.5909629693575 5.762862263783495 -0.7393623658989719 -0.05889086079893729 -0.15955134933549298
P 7.033689865279033 4.046663872888148 1.319410011818237 -0.19961607856686267 -0.988068517124266 2.0196485843779217
Ni 5.139305812640756 3.012388628423968 0.4858540162716272 0.76166848559534 0.06765009504880608 0.5182773188250558
Ni 1.4428330469241897 1.362230988451648 6.94748953517889 -0.8344458745683824 -0.7092305795105979 -0.06557701456986124
Ni 7.069277323844395 0.587019026796009 9.274756134306761 -1.0571527735164374 -0.6234578067191521 0.5621871328341286
Ni 2.611154989621832 1.4739516779111708 9.122305661971092 0.9973445431095532 -0.49066418509347753 -0.022447273259922632
Ni 6.5347130869684165 1.881385475057348 2.6325908587036886 -1.3083996888857143 0.2658644081721357 -0.23080638812673795
Ni 4.106625930557499 6.834641214581941 10.608251564327931 0.2970097234266885 -0.034278204456579676 -1.1127076279636063
Ni 8.386285227532266 7.140678854949682 0.4038505769803883 -0.14239540638149673 -0.14517734000200802 0.019281988158063566
Ni 7.582349491372827 3.972397941144386 8.05531551768311 0.8968432058586813 -0.830720346087679 1.0915582475795007
Ni 3.321054990896639 8.543328711904373 12.16634319808252 -0.5971027137643911 0.7515023436956154 0.9466567869466986
Ni 0.13823089865979232 4.865583325045687 10.118796198772548 0.0870171867215082 -0.4492254583327166 0.99241496701842
Ni 8.369678955476294 2.4426176444598924 5.798788736854802 1.0664311134945696 0.8023075992729408 -0.12371994145918047
Ni 3.7426023063785956 2.410375008159079 11.268757877251103 -0.35731854761907494 -0.30159657146642255 0.43075902409741296
Ni 1.2590763072306035 3.332766401102051 12.590777575600407 -0.2127155920632982 0.43540912127491466 0.0662670986583504
Ni 2.933554158953017 8.016913513553677 7.7819782738448 -0.33923057976911253 1.185735185274242 1.341790348531018
Ni 5.620534184463605 7.820257906427969 3.453625978927748 0.4699194963469584 1.0637368544918582 -0.29600287942872894
Ni 3.2755237111274558 8.352637584589163 3.642731714876917 -0.3345061777102497 0.7226553375569361 -0.08402905062746174
Ni 3.5202124163015216 4.133946511330805 9.212228806445358 -0.8264937096008411 0.5453474355689705 0.22119071941384486
Ni 7.48098959283032 6.137322821174868 11.491336310155013 -0.285927754580914 0.07360374152907968 -0.2648025425665246
Ni 0.5775374981002961 0.029987374025962972 0.5174104654574639 0.49005071987919474 0.7176506852534931 -0.22966199010964963
Ni 4.679651091196297 0.5268874618736855 1.441581231328704 -0.7429536827946559 -1.1534290169423684 1.4042786968732266
Ni 5.91934737132228 5.582617134239736 0.43079044627642904 0.42320460878892274 0.17212635778702612 -0.8179000543945592
Ni 7.8953940358340535 8.892395813762123 11.556370895030982 0.4060540651515652 -0.1713668539131823 -0.15589369797824762
Ni 9.11223856276511 5.003500589964685 5.690756416445266 -0.5742173245257852 -0.3763804493465324 0.8633260479378423
Ni 7.993245950050325 8.671610350624956 2.6244980204440975 -0.024337548304100023 0.6133929662839823 -0.8143282778829007
P 8.446147575052807 1.5618053835697263 3.5335318792704324 0.7448845812687817 0.23600875826328385 1.5538289691319498
P 1.7313307656607604 3.1253783561410433 1.6431452971434448 -0.8898222944561578 -0.11621746243454822 0.36657246211717515
P 4.619888453824563 1.0589942968095043 8.010804907255359 -0.30690821348732306 -0.2549356770747739 1.1431392049805862
P 8.603807449435728 1.8220488719577912 12.39345844275718 -0.691403578631506 -1.4801712344364832 0.2855575157256889
P 6.477397880521961 7.820357616576777 1.2048521153971865 -0.592671931686547 -0.1417318046555688 0.9061943080562781
P 1.6800344263786964 3.4754244303689052 5.846907948213495 0.5357253390981742 -1.4949720468947414 0.46153255783484387
P 6.759786086504315 4.132577762924445 6.10805336022032 0.5272527828507888 -0.3269756736611595 -2.036512707123112
P 2.401781806243653 8.507686865985116 10.143193459273995 0.5339682471977514 -0.1335580105955248 0.2589190872025541
