# total energy = -340859.871830632 ev
CRYSTAL
PRIMVEC
9.41972001288113 0.00000000000000 0.00000000000000
0.00000000000000 9.41972001288113 0.00000000000000
0.00000000000000 0.00000000000000 13.78671239874246
PRIMCOORD
 96 1
Ni 8.022323352013085 4.994985488848293 3.482151144455252 -0.9217512819542706 0.7020731425302101 0.8746594706727905
Ni 5.961853805743785 7.884465750250028 7.606046145120484 -0.3108060058798325 1.1660474770373273 0.7667384439190795
Ni 2.525982687473847 0.020381448099400592 7.600242655646879 -0.27389216357261864 1.1729416330539992 1.1458748587441943
Ni 4.66445693481591 0.287676363944204 12.354218015255057 -0.5626998108044889 0.19880026753378666 -1.3960925615180084
Ni 3.624670565631534 8.050375278084173 4.399408622183986 -0.8215859878865787 0.9006942041736553 1.329415114795117
Ni 4.374075227296281 3.396025702796228 1.7164039126678234 1.1859197904812222 -0.6640354710311983 -1.1245606706474505
Ni 7.323973572586518 1.9653021154109354 1.4139517759784515 0.44942728993087755 -0.792210620048255 0.27308766539345225
Ni 0.7804784339022579 1.494711745142481 9.099960981953492 1.2751414410532167 -2.018387458277311 -1.9293941216660386
Ni 6.037550675423861 7.126837673051345 3.7257074240032955 1.4641686883606397 -1.6818513946212261 -1.3381424673657858
Ni 4.616491720727937 6.204477533014783 9.192001065781769 1.2136054293219487 -0.770506395601944 0.45930752515906703
Ni 2.1487134829496095 4.268866374949742 5.701812074275992 0.06482702377771417 0.6205051518487312 -0.71033024033268
Ni 0.4357336384909335 2.6267642714344177 6.189820448741239 -0.0382461879653922 -0.612504650141758 1.2155954631687838
Ni 5.766931540401594 2.2462452635204806 13.586763882076479 -1.1283574186857213 1.3888615909872082 -0.885081951557695
Ni 5.980796862603745 8.443356575518612 5.4195011828267825 -1.4966198669108095 4.564064980401249 -0.8197065114756787
Ni 0.9210347854367618 8.661828140786161 12.575604983853367 0.663452859054851 -0.49133729990110214 0.32238574029763184
Ni 5.0004018278311255 5.563729341205648 1.1053287807366383 0.7091904703012819 -0.643022359114641 0.9507834075205626
Ni 4.738778525380346 1.5571362293846256 7.501419431468101 -0.3535649941139137 -1.0693410880525132 0.6285925568425561
Ni 7.253608264409543 6.915883044319969 12.363592520569345 0.21544687495153217 -0.5365241808503857 -1.8707796544569395
Ni 3.479258348452421 3.11093787789982 3.852283027158111 -1.242604644767776 1.2137643234973161 0.70859088904407
Ni 8.641133016011755 5.1483008510823565 10.52700993657843 -1.913869029447246 1.2716699375648486 -1.4599137697390276
Ni 4.868017083370722 4.185822123692953 7.773293273190391 0.5308073329712665 0.5374857734327066 -2.9237726401687323
Ni 8.060699291171451 3.7365579994369047 13.588390667715322 -0.6056061232497119 -0.9080169630873135 0.8052527979441939
Ni 0.7315448726013538 1.140841125024081 1.2153652395678756 0.7331894043190404 -0.7098203905757968 -0.28011680432609176
Ni 4.967385709335772 1.6248828554099013 4.379914511705773 2.283284103219539 -2.1311141339497817 0.3671036520302968
P 6.9634714696091375 0.9287900408881813 7.694516155080076 -0.27938429703544143 -1.0746378176750782 0.32757036982236487
P 2.518494010097583 1.107212724730667 3.2783149981053152 0.06981650657250557 -0.22384898297229835 -0.2378823211369129
P 3.193464044558252 8.223698125534824 12.791243097353897 -1.2134365078442522 -0.018757483113161246 0.9792953989173263
P 6.160016454755704 5.241367684387379 10.582583458486289 0.33274240094160756 0.8393587384889672 -1.0833284034705408
P 4.168056531829261 8.66431494685828 6.588118236126827 -0.23969494886561946 -0.21052192684608909 -0.881104969187818
P 6.315027366584395 0.24371641478753592 13.555619461939191 1.2996800496245293 -0.5893099571928496 2.076959502284249
P 5.875173542578519 8.176627784844015 10.58070893421223 -0.2774814235857737 0.12179907028738378 -0.7768644766094879
P -0.32438124477986713 6.8734001072546205 13.31486178119428 -0.27357206122903854 1.689473172832542 -1.3701071931978404
Ni 1.2354339529642673 8.872707411757776 4.242006043454877 0.2590201315567926 0.8969681614723198 0.39053591491130807
Ni 4.0023919167143385 3.270941241312686 12.14703127451174 0.2839768015021303 -1.4616366659674054 -0.5163824157951881
Ni 1.5419610605127236 7.056189773275264 5.736844012844958 1.3132729578176159 -0.640762873656503 -1.2801018703822857
Ni 8.580187427804924 9.019758660211693 8.73039428244884 -1.3712299939483739 1.8284495262301605 -1.5204889602189233
Ni 4.135907027571159 6.150436599546067 12.889308034075079 -0.9614015493560412 -0.5779014582455918 -0.8517224022606428
Ni 7.131547533036416 6.707302185021072 9.064212202694797 0.9206138259157177 0.030180894458754475 1.957645146091932
Ni 0.3320225216196479 5.146153154929165 0.17454081724278936 2.2741523161215995 -1.5818881892620111 1.8631596760178364
Ni 9.345775168378378 3.109506080464358 1.9348274373635255 -1.8735747007035732 0.8928541393039462 -0.801342150035878
Ni 7.560964307315372 7.077581957327461 5.700764601415312 2.436398695790752 -1.364134006333541 0.13060561283542024
Ni 2.8706502411814165 4.413873544170139 -0.029591108314210388 -1.2249689339638838 0.7266696009226518 1.1286165858843789
Ni 7.195573369673486 0.29570855916274574 11.611652070288637 -0.4695322882108688 -0.15138629702619735 0.6153904563299853
Ni 6.63461962573144 5.005554414654794 6.163211623769577 0.28223282222783 -0.8551856782188949 0.42169022902692543
Ni 1.7637766263696746 3.126697069409871 10.337663203486569 1.8190038074362285 0.07835231195765861 1.9601902811112886
Ni 8.598480523986943 2.964253998524738 11.395875486904544 0.27299896233438786 -0.6104508529365229 0.25997709615342324
Ni 6.094483462923413 4.576194158695661 12.577107429188606 -0.19621168087100402 0.17946557176091674 0.8827856993243507
Ni 5.851322811614115 1.0432057275335385 9.853459453917262 -0.153189154562891 0.6218850629153935 -0.4380997807332004
Ni 4.79858432747079 6.566392593987687 5.906393320475567 -0.8090636870498518 -1.658515548108763 0.254156118596272
Ni 2.648768737284674 1.3820518942995588 5.5872447301391155 -0.12754600007349 -0.23754216418867474 -0.8000285734307769
Ni 3.019604273069304 9.091659382743803 0.9915178401133643 -1.2109361100199016 -0.23512121345200798 -0.5783981953763523
Ni 1.2276061656690775 2.6678530899441864 12.904045185968371 1.120807117142289 1.017928280798176 0.6226435383479728
Ni 5.669663511989888 7.528306138178882 -0.04842772233850736 -0.769561000969539 1.4980170043686523 1.1583341675534695
Ni 9.119306260856176 4.923876022793675 5.937303189585598 0.2959874528097612 0.5111504779722875 0.3200624914810939
Ni 1.0256662089491304 4.956929820168911 11.707634306924417 0.46296723339884144 -0.4014181090414506 2.262807580532742
Ni 8.815058725540494 9.34975029020578 2.8346725627274485 0.30086560683766894 -1.1920955802746307 -0.6956767520855632
P 4.372530393221178 3.0790992244007334 5.894053487314679 -0.18560073812437713 0.48355097108746403 0.7772848519763581
P 9.096020713089981 1.2949665831755774 12.984491478457393 -0.2754926752905191 -0.3946563648375848 0.024654308213570446
P 3.260353476066244 1.7634280967307794 9.37426134354009 -0.17740174725335253 -0.7372951989572979 0.21823626477121127
P 0.7093030298078498 9.625540851491655 6.535039056067062 -0.8516504113721269 0.123892976701935 -1.142892636187419
P 6.784044643617833 4.245251136984591 1.8182056523011607 -0.07115168044416133 -1.771205199895711 -1.340400153051711
P 0.36558309992927707 4.0502346744427005 3.7407215156637084 2.6142557854139685 -1.004743920897418 2.28549088106287
P 6.39520802297026 2.983903534382458 10.873703672051578 0.0883292206647124 -0.325992998032916 0.23105090003737627
P 6.975801883050056 0.3685983522917201 3.636590279281754 -1.87799134171403 1.5032540843978757 1.5427086908490721
Ni 4.001591240516876 9.117921562020564 9.717453769100334 0.3531243070320692 0.4148950604819629 -0.9956751258269303
Ni 1.6090012075402382 6.0124094428235475 9.664554505692001 -0.1379422557061495 0.5600083800152549 -0.4210065726963395
Ni 2.4570303372923927 0.9643626713834331 11.576082265709376 -0.057860619762210026 0.1118833538355686 -0.43594751027688794
Ni 3.0692273578720224 7.124868951577585 7.880043191724045 -0.5427467647213298 -0.07274833550731986 -0.42031186062215997
Ni 1.773431839339072 8.735179500193674 9.701847177053802 -1.5679648943126994 -0.9611012445068028 0.6751832601179018
Ni 8.024668862285651 0.1243977638977188 5.516435753151547 1.3435194154069827 0.7865567641965873 1.022934989984148
Ni 9.79669716334917 7.255294394284199 7.546791396648294 -1.246713524729827 -0.1543636344869664 1.637586768375896
Ni 0.09395793881419842 1.8747974459377919 4.092351184401211 1.110421403032591 -0.5602726894202351 -0.5496105817206987
Ni 2.130118955728545 3.507931976041539 2.065221794994238 -0.8705966134573265 0.8148299001096676 0.00097881897350154
Ni 3.53417531587836 7.315797255652433 10.969535193167838 -0.47167221737200704 -1.0176822262256409 -0.6781258876859934
Ni 7.849490330000883 2.1517843116598763 9.256370722197747 0.3804042257939449 0.12789335611057973 -0.21673011253932997
Ni 0.37410700453026036 3.5724853169969357 8.729993944350108 -1.9838858249560156 3.487609392791142 -2.084167589996914
Ni 6.624653562003028 2.46992593393152 6.322971958407213 0.5249855840831668 0.9472085456851105 -1.2820605367705533
Ni 5.6602814708996245 4.343489396553223 3.641484765778241 -0.77524519583851 0.357500581722894 1.0230923414976185
Ni -0.12452210420132469 0.5827509759529591 10.904945115304557 0.8986136674955426 -0.4898185492637307 0.26476346179847304
Ni 4.581196029999807 1.0143531252649873 1.9910358483973718 -1.3897943872141227 1.3044268202808955 0.795971629752584
Ni 8.333032815228286 8.949233216795227 0.301151273361495 -1.5357818818222517 0.7316539415111205 -0.7040716610174778
Ni 7.291692192248835 2.544869226013986 3.709398120846988 -0.4900463490038206 0.25770269829694975 0.6792859694323655
Ni 2.601698396593865 2.920056672424822 7.598601740428079 -0.22434700565463941 0.11890786478251782 0.4839991143684761
Ni 4.311641323334166 3.7166070325401397 9.797223725695503 0.21869777778866206 -0.7041557360908518 0.9721564738797001
Ni 6.195877328682043 8.993270407655649 1.869575153186344 1.40549714266136 -1.889885522048455 -0.23640085149537993
Ni 0.5761891990217567 7.776544018552087 1.2015917250275308 2.1035421378687835 -1.2360974397768776 1.8375265488307644
Ni 4.3083255819046755 7.482441521644251 2.340776863280861 -1.3632631736928134 -0.2855202347298502 -2.1500929890451292
Ni 7.659466319043168 6.196885238718847 1.4147100634360479 -0.6561545256212248 0.37032035919538153 -2.784185392659992
P 1.6641536679654314 5.351013224839857 7.592797308982477 -0.16526973987650892 -0.4480638339244477 -1.1297491568269251
P 8.066596035872761 5.160150858804799 8.017965789554896 0.8097090339433345 -0.9687801012082993 -1.677776453220904
P 9.296792624533628 7.5908719182205795 9.964249490346111 0.6264989075383209 -1.9745959150136576 1.0436004887532995
P 4.078945980911699 5.836985997819555 3.852434684649631 -0.4232637441616323 0.3879874374578414 0.44890946975419466
P 3.482677706801583 1.8874763890176056 13.857162595651445 -0.5389788130384653 0.46923481157510794 -0.057022440131630825
P 2.4354780180007034 6.1203782731213385 1.4562076977925205 0.3636177503642254 -0.3302929109598505 -0.6850629811254589
P 3.0313789230319834 4.925759966787705 11.059659305954188 0.5728595249463102 1.5516702709177341 0.4669367595695506
P 8.253106491281613 7.116099192285381 3.1295145076529405 1.0541309559709782 1.8606111985643699 1.6685446502099912
