# total energy = -381166.74730677466 ev
CRYSTAL
PRIMVEC
9.19550501518063 0.00000000000000 0.00000000000000

0.00000000000000 9.19550501518063 0.00000000000000

0.00000000000000 0.00000000000000 13.45855108560859

PRIMCOORD
 96 1
Ni 6.547512165215937 6.471851550560744 11.5087565092226 -1.5802300848332977 1.7112468170642077 -1.6352709757585258
Ni 5.916764894792536 0.9385576028210664 1.4934143709657473 -0.4335628120947952 -0.6137755464343816 -0.4182634627335635
Ni 7.790523741131175 2.324550085065134 6.367940505625567 -1.6130039368302092 1.7533440033445737 0.22612878014541057
Ni 5.953657260616143 7.308642500198894 5.260435729623053 -0.5909091833591694 -0.786608186259813 0.29712465173799796
Ni 3.2610662857892803 7.868768292674813 7.078592116234472 1.3894385465366006 1.2094268724642268 0.39289850160621365
Ni 7.328541572891387 7.690265150758595 3.270320641961982 0.5639041155252353 -1.6075801947114765 1.2850360744591094
Ni 8.173268243293688 9.029618031941512 9.493217689500435 0.9992600149647115 0.5090426876006653 -0.04850591802018743
Ni 4.913406568651689 5.534498558886959 4.55197816649309 1.076051153082837 -1.29219531121171 -1.2811333969705938
Ni 6.164068804677903 5.4577068971240115 7.163367315387263 0.09710182465101987 0.7243080426690106 -1.0377489150685288
Ni 6.31767971471862 4.094841109806757 11.591580422226894 0.6765266615196737 -1.0056245237301584 -1.2232642925679513
Ni 2.5884886633889117 2.885200021322694 9.725929252594804 -0.14413347211852595 -0.0666530212428594 0.7659766260523905
Ni 0.6107442885250741 3.6822112165857384 5.881467949076205 0.10536792131455401 -0.7517705097553375 1.0410576677267875
Ni 2.4008176030464394 0.4580943087506993 10.107412131479402 -0.08413986517371315 0.5324885773284314 -1.0501434320781398
Ni 6.216621115416167 1.4893223712669672 8.209043355266955 2.0163945962169985 -0.023237630371701914 0.3054226300807321
Ni 0.6223766022755385 2.6836253575093107 7.96493212469713 -0.5116559568537963 -0.39036210833760515 1.3884787537264924
Ni 3.123915329593094 6.430710861454358 3.2872642793664135 -0.3674903459457542 1.1574921312681485 -0.26451252212993154
Ni 8.316111217048404 3.2007345778708642 12.3965098667947 1.1617745606935863 1.6119608402776753 -1.0229205918064448
Ni 0.6112711909581979 4.230033423450494 9.956097339022472 -0.9131262592894209 -0.1983598375622584 -0.7569620812586061
Ni 1.5184905129400685 4.813598558021222 11.952458013639522 -0.024630396954170485 -0.8255238894884042 2.3239689825334104
Ni 4.98034984462274 5.768533355142349 9.679699771054027 0.7965519277360862 0.26009768089168755 0.22659414981760334
Ni 6.465350328567402 0.6155388248013525 11.004209268161054 1.5133567200495164 1.9696311148092145 0.4841196991067404
Ni 0.7756114161641658 6.517424473048729 4.446651013796988 -0.0536272984071528 1.1122337736509813 -1.6314541731155967
Ni 1.0899340051611017 7.362546550163496 10.484654963035668 -1.6112928676763736 -1.5111118898793976 -0.46025677644621377
Ni 8.004337622021133 1.1513875646823297 13.06597848897449 -0.1770011693808242 -1.4357849950116242 1.0857557819651107
P 0.36622477753586563 5.927183401890778 8.585909171120635 -0.5664137693209664 0.1759033083309551 0.904548544922739
Ni 1.8165811966150125 8.714267385492164 12.10902160031682 -1.1445610250287772 0.5350486247461237 1.3337332825544965
P 4.721321665937498 2.9238395330851064 1.3151530708294803 -0.2661112340756191 0.7293751727792729 0.7534167871095089
Ni 5.034998730487571 7.322601276699451 13.242339078239437 -0.6323695073864851 -0.9844172935249239 1.1201545711599548
P 0.35260071741516363 0.43687108334669 1.1129080547058925 -2.6106657540698652 -0.2064863233241347 1.8487473572472484
P 1.7172421567365406 0.7850984186118766 7.598765278842393 1.895652249328903 0.5442117793026304 0.3760058396159331
P 8.027041323720656 2.050266563682642 9.943123401101102 -0.6793348203924301 0.795613732192533 -0.11873380109849874
Ni 5.63367207967649 6.687844766121739 2.425352129779731 -1.5222643069517912 -0.9008291870896228 -0.45824463111219144
Ni 7.503706746513994 4.233831166991159 9.62976817922397 -0.9101954587958712 -0.5445874174744944 0.11779252023115198
Ni 7.53215763880169 5.4389572625491525 4.990726971948749 -0.2036761075688492 -0.3211251284176534 0.3298547949811674
Ni 0.26376294417940355 7.4495820044308045 2.437788130662046 0.2781601948203532 0.827271211196814 -1.929754590329251
Ni 4.047511845875025 0.02301634886751966 12.091216344099411 0.9346469069700161 -0.3605411683214307 -0.5010478423206467
Ni 1.3153158312669375 5.2729140298280965 1.9237649217587185 -0.31175422872571473 0.14747616333851377 -0.26242607191454803
Ni 5.581469198125988 8.273260164022977 7.804425505501097 -0.3691867598115706 -0.9393620530574982 0.6204308469673702
Ni 3.556710965149898 1.3902040235070814 0.4781340726687918 -0.9761234289472478 -0.49341963635142766 1.5762250774389628
Ni 1.6387125445397297 4.496500765633068 4.1686249219034766 1.010992472910291 -0.10510026947546416 -0.17022734099210038
Ni 8.518108874089075 5.562609217491835 11.72807757802177 0.664750751930668 -0.17949128279252957 0.22865180367758042
Ni 2.176392109454476 8.764778294133508 1.145693708022814 -0.2549601025548061 -1.0801304653585333 -0.6887108622906912
Ni 3.03359708006182 6.0404168497352195 5.71754244114308 -1.5888489368505605 0.5560149425851456 -0.28508366141306385
Ni 1.5464540434658884 2.108768366117784 2.5489010950670745 -1.060245296398832 0.7884241564226292 -0.3668203164619231
Ni 4.967834762397933 2.48761397418528 4.122515901477427 1.5941014434987515 1.317598324665847 1.4114870416962078
Ni 8.910048881192667 0.6211039443916933 6.908825623562773 1.0496582649116053 -1.8724768396537044 0.4395452549304753
Ni 0.6960114471922134 1.7626495601355867 10.99377880690639 -1.0307681128753217 0.23204694540205845 -0.9999662970031166
Ni 5.218688137190556 2.202047568240085 12.555576469916963 0.9148645821367664 0.4069590934643378 0.7591948272438667
Ni 7.941854165946505 7.620581614315102 7.506076428137309 -0.5791813533992799 -1.5737717308024637 -0.11103771800582167
Ni 7.923582697628582 0.5352390779033839 2.8685828243436706 1.6499941409013132 0.3311007515731266 -0.9522836462151729
Ni 4.097195159071672 8.5626610955286 2.1704205485457395 0.5582235202006902 -1.3070519166085686 -0.07671683323676465
Ni 0.8214500887449484 6.7551466667854925 13.242002522758593 0.4390408044902309 0.4248164333607329 0.712353955630928
Ni 4.708944516286807 2.112087943401513 10.323717994208392 0.47452819876356345 0.39435426021613373 0.07937818211901168
Ni 8.950545884953177 2.8830390776615404 1.3551553564241603 1.2637280570099525 0.7191072151943615 0.2997003828849742
Ni 3.841946332917214 3.8743329013196925 5.7342442367675615 0.3840289670307257 -0.35685652038099186 -0.12991912829135688
Ni 9.296379630282201 1.785150960726406 4.705822642359311 -0.7316534272904883 -1.8304986954497056 -0.30460656193733987
P 4.205481425257814 5.777140347767198 7.658615142301897 -1.0279573828994037 0.82640346387988 0.14188941327935564
Ni 0.31448351033340477 5.858961950732916 6.406916572868823 0.6492140897476497 1.3596176065204262 1.3217825379505237
P 8.594652257218613 8.29230405475595 4.900931027098127 0.21738111585976755 0.6026604103578267 0.08959214653753603
Ni 4.652557679988113 1.1598106472083578 6.2997999749111875 0.3087426955929005 0.19683003118129327 -1.5064129417418315
P 8.814599539904272 5.0281388838015255 0.5221272074079 -0.8586571817072632 -0.14949216532727802 -0.8566103264805635
P 6.001078479597285 3.242638493887359 5.834914785761502 -0.704353968144587 0.8493652148823759 0.7187333767947106
P 2.8579721311921604 6.602813931931585 1.0331729118113062 -0.32164654813876215 1.1540301408614773 -0.40247946042642946
Ni 5.038116006662596 3.5927573445189256 8.365970164389426 -0.15259420129136944 0.06357078277310987 -0.002106247709725405
Ni 1.1882063664664084 1.7108972583271964 13.174912118708484 0.337122018066542 0.6790157464901145 0.4870402151876451
Ni 5.102640864834145 8.364976130305294 10.216615189508168 -0.2526214271193004 -1.659814726536161 -1.1158921963391748
Ni 3.080861975458964 7.652067023233355 9.42358288923313 0.7302339212351423 -1.4860683166472084 -0.5587169148973411
Ni 1.0005077196091126 7.933421887915536 7.811666046091703 0.5410701483498552 -0.5758417475030856 1.9627726971264843
Ni 4.029700152804156 0.9537853590034924 8.46642461901725 -1.5429593734072975 -1.3218432159851299 0.22919173534145043
Ni 2.7185774717903506 5.148526434490126 10.210397189067011 1.2379972279027518 1.1163974181103675 -2.0761614318629857
Ni 5.950300901312649 4.2676430386595055 2.682773853751767 -2.6414804254578765 1.753476158047064 -0.3587956463852337
Ni 2.3391985244362714 3.5909734165603564 0.5268822030129316 0.6788421970267278 0.19798831315545257 -0.09514727202781033
Ni 3.508875948446407 1.4536713986104057 3.1599194096393926 -0.3354490012394933 -2.37603716398356 -2.016549376627308
Ni 6.87006289203415 3.0095324436310174 0.8583378568160851 -1.9270693301876036 0.6934748593382379 -0.8734235413831603
Ni 7.121063394905831 2.5854909287781203 3.3078024396523125 1.3630567141089622 -0.964974868529596 0.6993089495215117
Ni 4.225858664207244 4.530441374370589 11.947249679640896 -1.3693062945630998 -0.14770113486512626 0.01812730572833007
Ni 8.133313774324701 4.460537145808511 7.411946641807958 0.18599848778342806 -0.9503285793713311 0.40244835007817786
Ni 2.9411270823743343 2.8150659051370877 7.4406945489052525 -0.8384933051648785 -1.5548229576141028 -0.23387268575688755
Ni 5.595317628567252 9.177031171651942 3.7496326588137263 -0.281320851936522 0.8489222138076865 1.306597345569653
Ni 7.432699057358985 7.263851195630901 0.878909120919772 0.5677890524019382 0.6603150847568177 -0.3609306904503655
Ni 1.499814442404738 8.482733766580745 5.622322987478212 -0.3353790672335063 -0.1102753859185004 2.3038925234985097
Ni 3.0995656325091177 6.675789459143984 11.928475217202696 0.1709729609088733 0.7846281797153067 0.563013999610798
Ni 2.2186270636488494 5.065205964219014 7.812150649202097 -0.3696775834050601 -0.7150495001852202 -0.09550619802912584
Ni 4.351910645939549 5.126162966473423 0.8471027888790754 -0.06772157171668981 -0.20269960258819283 0.029085090291414425
Ni 2.3741874207370754 1.8582368339980986 5.133643509742991 0.4471153539682493 -0.030905174219288713 0.854463969561522
Ni 1.3717670361002188 0.06568349179412422 3.649918442333658 0.37756032858724653 -0.17898040459438208 -2.5837861560702016
Ni 6.861115665726481 -0.13004742862920368 6.095310336031482 0.542703055967588 2.4715132801056985 -0.7331238411884278
Ni 3.323007207072386 4.050895791693342 2.82478831251129 1.6724884653490872 -1.212712485194034 -0.3307443966749723
P 2.9108462846033625 1.8885084362641291 11.836579938574026 0.4912408835325539 0.6327420602345555 -0.9166954646979181
Ni 8.296442031979435 8.208119207020376 12.113584409868585 0.44625352018858633 -0.5030707862879465 -0.7039024824294652
P 9.035705456212506 3.5042506094610446 3.60285400894423 0.07407013964253695 1.0603679380196254 -0.6832891770544878
Ni 6.511897974579141 5.308307528346308 13.448820463489382 1.0495950157738374 -0.4766838116539855 1.6134268833002405
P 3.4601397722586906 8.486798179764703 4.722928120650705 1.239705211732794 -0.046187811409972065 -0.8970476085600034
P 6.302479545051018 8.930600834735978 12.953142286943503 0.21287191513550432 0.4622740639865587 0.6372214361621477
P 7.005291987697652 7.22923931503268 9.422681729748904 -1.6505821521942994 -0.027775113230739265 0.4720537690811418
Ni 7.961477373490767 5.256996610775089 2.673446853090031 1.1702646004424686 0.3658109013608023 -0.9972147023999083
