# total energy = -340894.7901049504 ev
CRYSTAL
PRIMVEC
9.05414404189748 0.00000000000000 0.00000000000000
0.00000000000000 9.05414404189748 0.00000000000000
0.00000000000000 0.00000000000000 13.25165501222827
PRIMCOORD
 96 1
Ni 6.258523289512 1.9744010191219517 11.530305114576292 1.768383928396832 0.9496930026698611 0.08541256123854968
Ni 4.683563952085513 0.26058460929738314 6.051805405991052 -0.08203361746398775 0.2007818167401897 -0.2469647430541553
Ni 2.807916484253369 1.6140732405686864 4.815836850787991 0.4196292327328386 -0.8390995712903098 -0.08530997422241436
Ni 3.5895788652886353 4.376365891967069 4.847389638070457 -0.6051788059043062 0.3271294256302043 -0.28882153118894127
Ni 5.009811931697287 4.713460736385407 2.2830613235361055 0.2516356661672634 -0.08954792356316191 -0.3120781877240367
Ni 7.090246034082734 6.006845241909289 2.6115167035150257 1.5403895557975922 0.6623076897068142 -0.41845552413971165
Ni 4.976230110689321 4.500624967597519 11.652604873391931 -0.006749145798375473 -0.4258165924904731 -0.33955042500237653
Ni 5.558520235430321 7.846783164835684 12.477003720682173 -0.5212873092959732 1.2531551665901128 -0.40307801324237674
Ni 1.8090180203267172 6.526842854238638 0.4148599839317725 0.6903064889125853 -0.3231010211971016 -0.20632460093528984
Ni 2.623592215695755 1.5631074626086308 0.3720203004323938 0.4450345601798206 -0.7765996529838753 0.47248288619876044
Ni 0.4666315807297113 -0.07026830807784594 4.722823626950071 0.6158627679807135 0.9039412503560433 0.7510410877884808
Ni 8.660832219838461 2.23366643960271 1.3611701672495073 -0.04557614596790215 0.6379601141003851 0.6123917787129776
Ni 6.975276510448556 0.9000118167164303 4.90417270370849 -1.2548317829615871 -0.8648707667171427 0.1772942751412108
Ni 0.8967269731840252 7.50864709382907 2.535147713044306 -1.7200996394691475 -0.5872268494115758 0.9192753096099523
Ni 7.588070047153924 3.7931794069457263 3.6330206493803647 2.23132416521248 1.0386413449758112 1.92708218570341
Ni 7.626323806592765 3.8675410936371346 12.690222479771663 -0.03587820195384788 0.28900536506497326 -0.8185500292737323
Ni 7.909908658517956 8.722011072507868 7.110348045137435 -0.07709915627684787 -0.2725284504558726 -1.105062966934155
Ni 6.946955147247445 0.6873363062816937 0.41068602343442207 -0.7819370060363888 -0.5112780046890871 -0.11194326053922657
Ni 1.8753758435047678 6.534520768559144 8.910744709313226 0.8670351213583132 -0.6517833931367226 0.47683627807144974
Ni -0.0254195099703066 4.848367485649011 1.3302674675238961 0.7856306528378921 -0.12480623254482379 0.8663620065506886
Ni 6.397178454493399 2.084852524777435 7.2212241901580505 -0.6158103174762233 -1.1503526920098899 -0.08387298466557169
Ni 3.369861946873878 4.169967619738 0.5164511040282385 -0.34109025868567067 0.14938006522944597 -1.0636270683868714
Ni 5.908843184591889 5.537170563298538 4.560623159857263 0.5012314190863625 0.08748229928338482 0.8164944322962842
Ni 5.264242439150747 2.8978694073361817 9.4797442557157 0.3289896187673947 -0.4373870709368919 -0.41603637317525766
P 0.18339984043010987 5.689262078340821 12.561774051598645 0.06789692095228952 -1.1086326865632843 -1.8298566909903324
P 4.011257525251979 6.10532716887172 12.679820173447572 -1.0953390547781716 0.3651712108942743 0.3121429795237011
P 2.318250255147716 8.490623362160173 1.3941535093228217 1.0990702396858296 1.1776902034825782 -0.9599884710585984
P 6.22275036559653 7.748726782652811 5.759050516773636 1.4308520764863808 -0.09104096316892062 0.37650669051175156
P 4.721645682783683 0.8730567238820225 12.717414791185313 -0.23877269416166616 0.7728543270088302 0.726420203916007
P 4.098023389560242 6.225131605533196 8.151159048192689 -0.7889910846696928 -0.33355126999614815 -0.07604268998787549
P 4.761121751695717 1.0407919893523363 3.830364777363554 0.35903244498638814 0.9326347616359939 0.19677732356648692
P 0.25807117885472697 5.57060751799857 3.525841311455342 0.015436646270044383 0.3593368636006844 0.04276927264672634
Ni 1.4818012472806332 0.9769240558419025 2.845594400118172 -0.4156651058787679 1.407748143479066 -1.3755185940213988
Ni 2.0572283306832566 6.5407952905215385 4.601438336703263 -0.21590298865234428 -0.19997346190628143 0.06210293997833176
Ni 5.875650691786496 5.726212041008255 9.38519363818483 -0.1837336030086513 -0.7165767354630239 -0.21104848877352042
Ni 8.775982826357556 2.3874058088977432 10.090777666779669 -0.35508297342033684 -0.3393071986433189 1.2114053363468362
Ni 2.531574947724882 5.121666829710883 6.90537127355497 -0.5413807376117385 0.09432529034714723 1.015669052450354
Ni 0.6160186228857504 8.569675095570947 8.820487566983752 -0.2373845555648879 1.2559679534485595 0.02149956463467265
Ni 1.0855194619269808 0.7957062641750496 11.5448949626141 1.3205329818141385 0.9148666390192954 -1.0408229260081623
Ni 4.0851574505868475 7.100187484464709 1.5073493260992314 0.40506187644162495 -0.4291063189853384 -0.8484938680210161
Ni 5.82349882093023 7.757029432926282 8.055257552340333 -1.3634032988151035 1.107110336381487 -0.13523282719478644
Ni 5.286904962198183 2.835341487174138 5.1583125731316555 0.06142828250881034 -0.7782040213565178 -0.6485898259000894
Ni 0.8183968550696482 7.244247973560898 6.6082033944321115 -0.10174035186429575 0.4006238952749294 0.6678730996097336
Ni 5.130530836927599 4.41765278972828 7.08034623276429 0.052315778684580864 0.615001962642315 0.3902847181324504
Ni 7.9560666858834495 6.958426748006975 9.108816790493783 0.7485412041847624 -0.0718034550955473 0.07622935207738486
Ni 4.754829121444831 0.5493348505148481 10.545428803843231 -0.4695358877552946 -2.023554861410863 -0.875312273765441
Ni 8.110729577891563 7.270930536653505 4.6113372326072835 -0.9192915075598684 -1.0813034026207118 0.20301687671829552
Ni 7.1588764474665005 6.07001600631279 6.928164176279547 0.5506781037532645 -0.35062622320056386 -0.47743585932866167
Ni 2.4260941672603864 5.212932603709348 2.4607661072355573 -0.974863845508534 -0.1462204365545417 0.5756206326312151
Ni 2.183026610835506 5.381031845778346 11.323049414887139 0.35986265419716734 -0.7142514297639571 0.9307532283425648
Ni 1.1702662520684126 3.381596117816538 3.8362744173128394 -0.058511880192963744 0.19646210631891325 0.013252237024215886
Ni 3.7307782448031253 2.9384319735577216 2.9251169490297313 -0.8706986862528295 -1.2724564380218861 -0.7206429351125976
Ni 1.158287619231114 3.2064708598127374 8.326465389081406 0.30788214736481817 0.5699091840687346 -0.8112879483946802
Ni 3.6600201075215777 2.5744644290176133 7.541238391456537 -0.118860299374034 1.281573826942122 -1.7531457712908387
Ni 4.220399203187549 6.651400716629202 5.835061868546642 -0.14722342389775933 1.2972426438276303 0.9229933818914878
Ni 0.7757654168879247 7.286105282409599 11.039980649183963 -1.155237530906017 -0.09728668696831633 0.5951175650135622
P 0.32730731448854267 5.352791969875448 7.941239619266397 -0.5748307897400681 0.6980000009021011 0.4745760212823633
P 8.70488968573891 1.4458472404802458 8.067170089924636 -0.14212055545355523 0.825193759842495 -0.41385222103974534
P 1.865959533489053 3.2389299669342155 10.55246568475113 -0.6209355545179306 0.25124177316295443 -1.0498446698907984
P 4.101844238432004 6.181264276661911 3.584175352002694 -1.3033197032596457 0.3371991511613806 0.06690190402887188
P 6.8091963425463895 4.0909249404714725 10.536642662267031 1.0126819447975721 -0.19673001526831924 -0.471532092249717
P 6.2283096101635005 7.81508460583086 10.320097410581607 0.19992178273273956 -0.0980590463579666 -0.10307681128753217
P 2.43674184089354 8.556012391903915 5.642647722105335 0.1834806064575808 -0.6992428721702667 0.1880440574585471
P 7.008161162349591 4.019904233006795 1.5481645029452313 -0.8675791667872415 0.9816158195203869 -1.2071586452553402
Ni 5.3606147505038875 2.873522813459012 0.3987626208770234 -0.16354838631002802 -0.11399397242066818 -0.14768699379773922
Ni 1.6026106939534028 1.0664876507221424 6.948862855440052 -0.7554649278877893 0.5652182063509685 0.21028564246556686
Ni 7.088942237311327 0.6946430006881185 9.304649781802334 -1.4995843488557723 0.19383032512302104 -0.6759265660418294
Ni 2.7499427986470026 1.4405505660964064 9.315900461442265 -0.970071052105581 -0.5841073299459876 1.0205045261657844
Ni 6.258197340319148 2.378722884565945 2.5944224791788053 -1.1797601986377295 -2.806725225633721 0.44191452649360025
Ni 3.959395387011582 6.85918427292789 10.554956479833171 0.31585359560606896 0.6516435251247487 -0.7223632602378139
Ni 8.24345427839191 7.205912726823844 0.38686728616678695 -0.42587109987749233 0.9397289494786139 0.808440451643556
Ni 7.607454969984353 3.7965384944609477 8.149980198611875 0.6459711573303197 0.9315129893267248 0.76030502958891
Ni 2.9437920269512823 8.309658181117781 12.398632858918692 0.5181695896025978 0.18316744609253616 -0.036109858348679746
Ni 0.011214463062946307 4.82288006959686 10.222539006332255 -0.30972434277987954 0.27614547838316955 0.022574028645774027
Ni 8.550806258962535 2.575831604798741 6.026415774696757 0.7985905554326698 -0.1092690561411731 -0.21821441039434034
Ni 3.5599084345948877 2.416143662734165 11.53718264254546 0.20877820468210495 0.6248048076653497 0.1783535696436606
Ni 1.0780769553568679 3.4172060671355817 12.622943850123805 -0.3205147485271641 0.0056690253603192695 -0.31573532486064976
Ni 3.163825840414645 8.424564325742237 7.874133923773637 0.37256364670360353 -0.859660683271113 0.14199020052327804
Ni 5.595035599173953 7.940846669406127 3.642164429654278 0.5671071958435653 0.3028404711758526 -0.12157872674646159
Ni 3.215135675856044 8.376468711508124 3.383332702682898 -0.041902553771056866 0.22004452162454358 1.3149796560960771
Ni 3.4355044926565044 4.396882582828232 9.378514395974644 -0.06403460978340585 0.29043438420201595 -0.22018361830556918
Ni 7.298654326334388 6.25131619069228 11.512481126213853 0.2410000408302882 -0.7629962032678279 -0.5373232797129133
Ni 0.5188884796592292 0.1241966020351532 0.4573184879583997 -0.4926256796952226 -0.10421041067134311 0.34415064277854923
Ni 4.728481561689321 0.5348219627031279 1.675618786080052 -0.04922942644977328 -0.3849141978491564 -0.20114099985182132
Ni 6.063822971648609 5.892328425487405 0.32785146855772 -0.03392647754411576 -1.6120084056861592 0.6009046040089844
Ni 8.006380565457802 8.838021822730322 11.221422078213688 -0.5042887178554476 -0.26352778961915907 1.2275117549903956
Ni 0.24932849717090577 5.041546707279096 5.772606381538566 -0.3278706746716031 -0.8320228669491865 -0.6584572056124725
Ni 7.858752743528737 9.073972821777941 2.5899832322550504 0.40993308849099724 -0.19518323960648964 0.3247208161887117
P 8.580205065328904 1.7868082044915747 3.8532762893777517 0.5562165170729905 -0.5128335221016652 -0.9225372681906757
P 1.6555864919360437 3.1255449185430666 1.5347933427229166 1.1369806415783579 0.41153180043668475 1.0236667259438499
P 4.7406141149788 0.9229975727134445 8.317786086407306 1.2218352734309086 -0.08313996315428906 -0.23164328220573654
P 8.363267769197632 1.7580703506551536 12.405881606801943 0.16128967218283832 -0.5605187439927702 -0.37948942728915935
P 6.340870731428273 7.776188002150562 1.4851793484987708 0.24015851876559932 0.3950672271227583 -0.25734917161227294
P 2.0305819841676334 3.205230442051052 6.023580016718948 -0.7043825073896772 -0.020503519269990497 0.24439621099603073
P 6.966801831434414 4.143918846742605 5.805934686507649 0.3701244411344916 -0.7445562513950854 1.2832293602676739
P 2.3013280595521675 8.496472339343011 10.155723948869786 1.3060748974072798 0.019610318031759773 0.431742728166921
