# total energy = -340890.46990727837 ev
CRYSTAL
PRIMVEC
9.09957600371507 0.00000000000000 0.00000000000000
0.00000000000000 9.09957600371507 0.00000000000000
0.00000000000000 0.00000000000000 13.31814928067226
PRIMCOORD
 96 1
Ni 6.2190322133370115 2.0368490239601265 11.445031370718166 0.7487839163231879 0.041866301216482736 1.2326719590350965
Ni 4.568178090857249 -0.03804350607296505 6.0583464459384135 0.3744739763524389 1.6018098678866026 -0.46127081953302496
Ni 2.750929127186748 1.5383742672922576 4.731232477809711 0.6108210917917479 0.5177942085410501 0.8543935213349029
Ni 3.786524538506575 4.609026086159952 5.06289472276236 -0.8927440960886431 -0.20086872002704115 -0.25660458013676457
Ni 5.099120133611115 4.352581843874193 2.6360342446093257 -1.0168574163315003 1.6254570749918973 0.46831281398147084
Ni 7.253107995515481 6.454147050189593 2.2749931095621547 0.14541053905873666 -1.0169358349779194 1.732225990419036
Ni 4.885407498797286 4.424322898667356 11.885569128924839 0.5330588480096046 0.33165482430438364 -1.1778470407754167
Ni 5.9358807163812966 8.174922312323169 12.503517674660733 -1.944989147890818 -0.5772993058852187 0.059833941438496956
Ni 1.7173993195500827 6.589212052256427 0.33760972762804425 0.305360409384229 0.02614837626059368 0.37143621796737963
Ni 2.39382537854356 1.713659393938719 0.37354304209693334 1.1172402257266374 -1.3996059739879059 0.4961493765777649
Ni 0.5309229336449032 9.141979719495088 4.739037183884811 0.6450381039930891 -0.17648180654224446 0.2879956928535362
Ni 8.647208490135796 2.487387215857525 1.4594026896504584 0.29800268346757713 0.16086595438185844 1.1482428447557385
Ni 7.084875040034 0.6803798246337144 4.650537440530948 -1.0246992809734223 0.3006115818453339 -0.10189513227460516
Ni 0.9377385742769966 7.354486368352954 2.7548055464335626 0.2538370446939564 -0.9539211818185956 0.656808871375772
Ni 7.614970822248068 3.8150426087401836 3.881281150109523 1.0658757552117322 -0.35904401495061394 -0.0054975327794615
Ni 7.549308284020333 3.7654863194956927 12.949955597749177 0.22044278550422683 -0.2872490444954988 -0.9297972921871986
Ni 8.054180042403017 8.923262318048048 6.650311153272243 0.21181622017748036 0.30131349300836496 1.3783951442382454
Ni 6.898624924672957 1.0408185677697606 0.5398341481247287 -0.5572770971270209 -0.4733256938150299 -0.4359909619203136
Ni 1.9661453207963926 6.556135094598747 9.38789666265728 -0.35394294627862266 -0.08358167867739799 0.1875864010958382
Ni 0.05914906194400292 5.074096300445057 1.3217852566006862 -0.25718462100995065 -0.27868984207157804 0.565480973094052
Ni 6.494330776466432 1.8486697985513727 7.072549664752755 -0.6403599817911295 0.2100491009747286 -0.3656831175336864
Ni 3.290979845213059 4.2250876887870525 0.40457987488340225 -0.5981373256764925 -0.23788077847501607 0.13817211232876847
Ni 6.07083652353977 5.573717603650716 4.665680044447906 0.044334817361633326 0.6680353362192107 0.4287890448552357
Ni 5.361433602221277 2.5976558741507203 9.383794573933184 -0.6878716542188476 0.7022891151957583 -1.0087473856298563
P 0.13495307728576414 5.638579379217138 12.403830912945287 0.22018181853335628 -0.6497113410990424 -0.5128818588410973
P 3.9082313634505823 6.153679060682966 13.030503221901652 0.3843920067970993 -0.2394689488977424 -1.7593243892977248
P 2.184799025213556 8.546794672322179 1.4396520606006662 0.4522907275216017 0.6308538420729071 -0.7117877987148128
P 6.500773276059731 7.680005489752729 5.79061145012813 -0.07972913770052721 -0.903221084360567 0.2699918000769479
P 4.596177485276144 1.0204628169361347 12.64450377063344 -0.08487108691278286 0.4446699777515503 1.4728734152234892
P 4.090805250230139 6.041463093190666 8.361772999680197 -0.09889105534095873 0.5228510542386673 0.15469119302971424
P 4.869929120537118 1.0621479732029384 4.100644621431034 -0.004233064244741097 -0.8631938932353521 -1.826363076014777
P 0.1400433799305251 5.295607271631 3.638331578582042 0.8439520142866046 1.7459137723187739 -0.2077204528415519
Ni 1.491338560515766 1.148157162688603 2.6426805746982307 -0.19862954628387727 0.4330979566432348 -0.19995623551510078
Ni 2.1817506673551454 6.378192891848835 4.916967557186318 -1.268323389690119 0.23078427663955095 -1.7250546694815774
Ni 6.076751247742656 5.440554412904502 9.246218088974048 -0.6799431434003903 0.03587485951973822 0.41612019113831566
Ni 8.715155021863415 2.1755174580028727 10.348415114733514 -0.7097473712460164 0.9773791557312199 -0.3384605343723074
Ni 2.315869313549517 5.452620450278391 7.202467946805507 0.9338004998093209 0.4748405877976596 -0.21673088387027836
Ni 0.6852444578011959 9.062804311357683 8.7055413201398 -0.19751908682851788 0.31037200366620743 0.9129246848015762
Ni 1.5042872567322387 1.2449857476777009 11.475982667493085 -0.8311196384086266 -1.618599685750432 0.41040231481793193
Ni 4.059166025532546 7.29338271754929 1.5662408079059795 0.7836115655253344 -0.14150734734958853 -0.7098193621345323
Ni 5.652028552096931 7.666265130450638 7.926655858716077 0.17212198691165195 0.7670521185047564 0.9037183357119597
Ni 5.299811275602898 2.9528214131705006 4.81641542582211 0.8627951151350367 0.2094970851260005 1.01073022038784
Ni 0.7621386023114276 7.344049155028784 6.904967328933591 0.3495239912753206 0.5868622669833055 -0.22419222524433002
Ni 5.19041617657659 4.366986472202145 7.113729794568389 0.2937925020409714 0.4348915582085478 0.09091060823864343
Ni 8.185796305280784 7.32214647632671 9.035871387210445 -0.1483156285206736 -0.14772324635231332 0.07730124498532494
Ni 4.623821996242865 0.21977568210057255 10.651229884812334 -0.3829259637745341 -0.22900044526625077 -1.6298914566141673
Ni 8.46927538696158 6.999430024241534 4.815895840049826 -0.8325450580012437 0.13281470467159706 -0.3673607623464254
Ni 7.129499359250854 5.852164619971212 7.150287339930075 1.0505568654664745 0.9130061887717889 -1.6532195898171465
Ni 2.457285819452682 5.34292506525409 2.5013213961219556 -0.47900783180147183 -0.025388872386749826 0.2429633352042461
Ni 2.3029024181816515 5.180998115730455 11.45906837618797 -0.624781410626582 -0.32118169268720165 0.5040241513401513
Ni 1.4959611449697139 3.5334926371070963 4.009282151562972 -0.6480223834323937 -0.14098001409120883 0.026379004214161016
Ni 3.5896916166102137 2.6695698208821215 2.5528231746504115 -0.6913210462200288 0.05196045222769116 0.7152143078978586
Ni 1.299310214587288 3.6065895286790752 8.178594901074376 -1.980663975584608 -1.087486134392656 0.42980797303805335
Ni 3.6781303928069096 2.6567758174524934 7.206264289786191 0.6358176138360857 -0.6408459202886124 0.13320011303547383
Ni 4.1021069232455005 6.798593289038604 6.1526253298172815 1.0914978266552104 -0.7580671413973267 0.3853363729882396
Ni 0.622787700091425 7.621777304869237 11.500967372483647 0.0501496242711975 -0.39707680135361934 -0.18901696289477768
P 0.16186325249375771 5.65480392268444 8.087938558280381 -0.0049182632372237875 -0.5222977528383586 0.46974851798673295
P 8.568697351024252 1.804746146663169 8.139253795507054 0.8439959801506626 -1.526532595309842 -1.0736515425024091
P 1.6974712487742039 3.146706072541116 10.375796647962598 -1.067843163350748 1.7875918687838506 1.033746221667039
P 4.162155023268342 6.229842509264748 3.443953722208663 0.6054698547821636 0.05800691553208719 2.0967906780775634
P 6.875266313859404 4.026644141992367 10.74537591488603 -0.3263367545255799 -0.1465855332034443 -0.6327279191671684
P 6.4152554636616905 7.830175787476165 10.19490982251722 -1.233728682434385 1.3164022474752166 -0.7251212825989253
P 2.436757176680818 8.393403124802093 5.640182724454904 -0.31735254874909863 0.7419031300429546 1.2470387692797296
P 6.946770779684452 4.3160470474517485 1.759127243822661 1.2265974707062424 -0.8036944523181384 -1.3018516033545515
Ni 5.255014064447806 2.8935649762332765 0.5300211656933554 -0.1337467295675632 -0.1504162198034442 -0.6093087689122797
Ni 1.8063931698642803 1.1611149584807723 7.002389206258116 -0.9083404078650034 0.07631728380550082 -1.002680096389854
Ni 6.988692524919371 0.7293792198455643 9.235071108745531 -0.7161399050359214 -1.0759020290994825 0.1145110212664028
Ni 2.6361743780750557 1.6581155838857677 9.263598278554836 1.0119910893781345 -1.7910818842149798 -0.707573246412833
Ni 6.282101372491174 2.2914369528037484 2.6158704948229015 0.3675703072540702 -1.6756825468063528 0.1855799121887707
Ni 4.2889576106025284 6.7440595318879915 10.731391686955266 0.24097381557804307 -0.011571763997999425 -0.35973152793594176
Ni 8.11254472092196 7.22658273235946 0.196662759830832 0.5059709906538771 -0.19126487838868994 -0.7340815771160067
Ni 7.743784415811237 3.8001648024760004 8.18549419936765 0.2320682855582971 -0.34417892491332336 0.8448030494329902
Ni 3.0692959820888785 8.20970089063614 12.489294127889146 0.4477936109821965 0.8879135074692192 0.15219362341884113
Ni -0.0915380916790086 4.7795157364142264 10.190541116225212 0.37418781257058786 0.13693361193597708 0.6440657127774908
Ni 8.621893470547443 2.238204434977771 5.835093815964113 0.9335883837985147 0.3583395326844216 0.14299498763870858
Ni 3.4808242929743174 2.503356971205318 11.442660931249163 1.358779426889847 0.8587181168521857 0.4651395584598118
Ni 0.9958575642521275 3.3026818995590776 12.937982376047396 -0.4183956174360536 2.0092988657124815 -1.5570058241980347
Ni 3.1004256305474542 8.403367160190033 8.136949782940638 0.38420663025917057 -0.15699078769716832 0.08977598041356798
Ni 5.8113166246685095 7.949234635892418 3.742852944865171 -1.0388256930724753 -0.17389450543104246 -0.697576025990805
Ni 3.2851743159185336 8.591346194933458 3.5379259503865526 -0.2641451114881838 -0.756166324830188 0.34304995351520273
Ni 3.315403106383131 4.202802827905717 9.334929852441647 1.353754719981746 0.28704592734575723 0.06459819559635972
Ni 7.133703363222751 6.282783840668429 11.266927195520854 1.257582606233847 -1.6967221410854714 1.3754473744638311
Ni 0.30472204114485674 9.125873470511843 0.3579318100315921 1.1672525530890219 0.812593297469665 -0.4896781670311244
Ni 4.279239263758402 0.6968882748627551 1.5922910732106303 1.0665146743473117 -0.9425142255332347 -0.4240877827248245
Ni 6.242381724574867 5.652993107120787 0.1211908790020021 -1.6073266839397737 1.0332026904587432 1.0039193681135936
Ni 7.790419741257071 9.074242478008493 11.556130820272474 1.0018825401892228 0.46195319031203025 -0.6532643485576233
Ni 0.25947531095034576 4.930696087040002 5.895079128914646 -0.55019293658673 -0.946789198759505 0.02550765735280123
Ni 8.280440992102662 -0.36780302974742457 2.412915378397768 -1.3030052573430206 1.364545639949663 0.5277880865289686
P 8.697656537798569 1.6537841858541156 3.588428595503505 -0.559732757756365 0.32985325231927065 -0.19398407709206592
P 1.6653315474132893 3.42753717769416 1.7484862000028836 0.2364414749253283 -1.0009078349807794 -0.6292456170455227
P 4.77029786623342 0.8178125362968424 8.157992551739367 0.12300286078749785 0.5017883200310971 0.501372315539601
P 8.593502794373588 1.778357377142599 12.570281261547773 -0.42453206935109467 -0.5586598364071604 0.063954905585406
P 6.389048685655056 8.123955588845682 1.271435484355439 -0.3743639331371359 0.32754440168043586 1.2696958445576132
P 2.0702717654942826 3.5596448176595508 6.1375755415724305 0.018700404622980695 -1.2299671585094238 -1.2424902306770989
P 7.095739933415918 3.8214032121522106 6.0508347462007475 -1.107833844811073 0.9620512671248981 -0.3067092101026395
P 2.237358174437974 8.534755933675381 10.355006847368239 0.8141081914522947 0.20753687607583612 -0.4689216512100634
