# total energy = -381173.65253774973 ev
CRYSTAL
PRIMVEC
9.18955928164019 0.00000000000000 0.00000000000000
0.00000000000000 9.18955928164019 0.00000000000000
0.00000000000000 0.00000000000000 13.44984890356737
PRIMCOORD
 96 1
Ni 5.241623428892561 3.8576298797386253 13.328557663278318 1.1674821526013248 -0.30161791162266116 0.29804716355226735
Ni 0.6040811815661064 7.095414808220772 2.5458276690093338 0.6095949326941308 -1.2539943746619564 -0.6574511329454613
Ni 8.416367981907783 6.218023273460503 11.052628264167103 -0.10831826219212959 0.351630238985046 -0.6193083033271528
Ni 2.8956944012034738 1.8866624322502488 5.1633568729429635 0.13129286871043194 -0.9083188105984485 -0.5034929614270297
Ni 5.52229094310696 3.4461673707690195 2.361241590027358 0.8199425387458846 -0.248669641560404 0.791678658804185
Ni 0.1783766938940753 0.1533351453303193 9.78281498690479 0.8572721284342782 -0.23618256483698677 -0.023158697504650435
Ni -0.08250478060926893 1.7098645046105785 13.228235246518494 -0.268492332713286 -0.12199781656175118 -1.2888014550388127
Ni 4.897704179351802 8.585189372243475 3.6783452574048803 0.34243597408028764 0.23086963726450563 -1.0286659789306543
Ni 0.07378113214997589 4.184824131706527 9.622694271130625 -0.7453095846213422 -0.5673442515550359 2.289073713318122
Ni 7.013342855845393 5.29877329697256 1.6462745935091183 -0.27511343757422946 0.15906335395548088 0.3943925696532369
Ni 5.834772710946211 6.055165906984581 10.980281622193568 0.798239085630522 0.537816674409564 1.9526088692196046
Ni 1.9701220080506276 1.94387662724399 0.9172457336469307 0.37314805845216387 0.5371623286550168 0.45977777992726626
Ni 5.389814259035361 1.2123417746136056 0.001485951707434623 -1.7366323470168479 -0.22816252274598767 -0.27406159927094736
Ni 0.7774210781142019 8.948204525606432 0.9662371111526541 -1.0649555573903078 -0.6383468080158425 -0.4969988690622537
Ni 4.1915784576494115 6.622667129573482 12.780691771631135 -0.414513508772828 -0.016662291147029367 0.2031883692991533
Ni 1.9718496451625491 4.375608568305477 13.173763215961971 0.18630959126594365 -0.2789302402171583 1.7729576638104436
Ni 2.183714930350584 4.659418911734116 8.836469595392908 -1.6322982662834469 1.3670810047770068 0.2191847447274096
Ni 3.504989738606305 3.093784537291666 9.35996477629107 2.960508305026869 -1.6145198592541032 -1.4251804800229004
Ni 6.125337380317734 3.915248415333029 7.340483808370481 -1.729204687094209 0.04184444683961181 -0.2618180060169039
Ni 9.15882922031516 3.947182133226259 1.2554380499528524 0.34083314836954204 0.7938890361919424 -0.28257015096259075
Ni 3.547987685663118 8.144292705457463 8.263049377783855 0.3076857150832959 -0.3104221401778524 1.8201667173960783
Ni 8.520127293773239 7.493874091055436 8.129344049659789 -0.6666417983057938 -0.27040189103117307 0.9501419172818215
Ni 1.8920934616818745 3.3792857595958026 6.6713001142740715 -1.0399811468331572 -0.6929063884292777 0.71776047135848
Ni 8.994161510695365 1.7998854256126167 2.1518409445915427 -1.4960323698384559 -1.447759650874997 -0.0690613735740359
P 7.997783564631054 3.7334881257761374 3.1208487078146456 -0.31411218743493 -0.05864120668197643 0.40463738730969667
Ni 1.8366620411546908 0.5182984852237396 2.9524169547850456 -1.3392819802868676 2.507629566212281 1.3000677719812512
P 9.149253699726744 2.3190311881859262 6.189607318793036 -0.5459639861070468 1.2810619203027098 -0.3586447226296662
Ni 7.0044749313081365 6.148798324715264 6.807223801966319 0.8496187256540786 -0.6800220762674417 -0.6945840332420167
P 2.578378925274485 0.6851165516743314 9.983889891790598 0.568164433463486 -0.009866351271118491 -0.7093586204480299
P 8.504128271369755 2.0905695592525175 10.591351912151788 0.8755233613349825 1.7298757450193045 0.2827290451379582
P 4.867920818289368 4.794248122936842 9.640649750667771 -0.23328004647821116 -1.651451185062814 -1.2685398765762992
Ni 5.160268262127449 4.40566761614109 5.058192477490205 1.0337292523861745 -0.10240703891401719 0.32809281798473816
Ni 6.830672799937011 7.355846913283833 12.913845726208843 -0.300513879925205 0.3146950565215935 -0.35532285734528485
Ni 8.98364865507814 4.865320173062379 7.494040422075254 0.11275110115250259 1.2230470343508226 -0.8533249708610723
Ni 3.9470534793987757 5.116002155914012 1.275557670659453 0.24254038873421457 1.3006064180935406 0.34530635364954726
Ni 6.962212148979801 1.0107963643015703 11.72479764601704 -0.7845687872322811 0.47911478969298127 -0.04918134682065723
Ni 3.6823114711150153 6.350086427372333 4.10648130241635 -1.0288953213326408 -0.596635030099353 -1.161276280900929
Ni 3.3548874801694644 6.167609352205176 10.408017451120045 2.1827148888452084 2.2996710292179943 -1.720678651901069
Ni 2.1367654728782064 2.8440215103506294 11.071350152933686 -1.748141890318344 -0.5738445145673987 1.6526359493995344
Ni 7.119656865142308 2.655249587195886 0.6219401707326397 0.6220395862153868 0.6590251623008004 0.6042958890787206
Ni 8.836110283631864 0.6336063160176629 7.497080328227507 -0.8103973182596108 0.00888393275319115 0.7237046047570568
Ni 4.997098450641925 8.195460170559478 1.2275220073007502 1.2225904064293782 0.17318745206168884 -0.3882098378812927
Ni 2.91050797048229 0.9934924245050372 7.544558185348477 -0.9360525290682912 1.660027099657283 -0.3309449427215526
Ni 9.084173242138297 6.319724124086222 13.425827308503143 1.0204801006857522 -0.04163541615259927 0.7757853846126961
Ni 3.885363969120429 7.080996389983511 6.143796447693886 -1.0705333085884015 -2.2309472414890354 1.9273773483463257
Ni 1.41311526196074 6.944917398742374 4.9605864944021025 0.17336460106950144 -0.717786182390093 0.07403517263954347
Ni 3.69125291212512 4.822211951296295 7.081426461349671 1.1983811561730264 -0.14328783628877903 -0.43436628183269704
Ni 2.9998304849922746 8.635511397907743 4.728980198342633 -2.500998691159325 1.0208541961957194 0.0881052775793644
Ni 0.7924800086211475 0.43289439871653845 5.5016337331926595 1.6966100409876395 1.6832212783855593 -2.100108943817519
Ni 8.169959144040424 6.319714934527117 4.144920309200693 -0.07386008051425991 -0.4953320228827921 -0.44029807393609977
Ni 5.222564283306789 6.440842513102848 8.211495951199389 -0.38307174532377897 -0.26806784358135766 -0.1610091648279421
Ni 2.9698817118659333 8.676460073283925 0.1517591359436462 0.5732508468474579 0.44573338601905815 0.6640061604551597
Ni 1.6997559895940164 0.5657469357555712 12.00941023795563 0.23335229447704325 0.9445582525464572 -0.5677448294275641
Ni 2.8072540843676617 7.969856494508025 2.339211459982627 1.8428016811867747 -2.30897636577932 0.4937186556490852
Ni 7.099384697754549 1.1304536134203471 9.31313294517525 -0.35782351227995146 -1.606287701152298 0.07825640980974263
Ni 4.208239128308527 8.767896186388283 11.640319867067719 -0.8612411403843554 0.38808848181208006 0.7219379997749373
P 4.601193865238718 2.409658620088958 6.597393085164345 -1.026666174891806 0.9718296866679004 -0.49354716306822743
Ni 3.8966395581434488 4.324349207612402 11.624152675732594 0.22486071206626437 -0.21055329430465675 -0.7089158764836565
P 1.699094341338387 5.907324280087808 7.124506195482526 0.10178560327993437 0.9612084595086284 -0.8436717640420245
Ni 0.521668296547897 4.654162483925504 5.175838132120686 0.7399817446505256 0.3219275697142907 -0.6545298455336082
P 3.4048419234694927 3.5002571156667326 2.6551209333684027 -0.4046271028970515 -1.734129378089336 0.5403234999918178
P 2.152599083217785 6.62426611285792 0.7757200907236876 -0.7293011250082277 -0.82446819453038 -0.8970676631646615
P 7.336732630343425 0.39843814684872075 0.481145097758321 1.014271400771879 -0.669243497594699 0.24200482794571873
Ni 4.65565119250067 9.069607790955342 6.217206321655982 1.9024911266276077 1.953462989689784 0.9319817014330272
Ni 6.408917984768723 0.7924956308716278 2.593789815895189 1.1846149556268695 0.13555292953836653 -1.1570948958297298
Ni 1.940200803601604 5.023215177621079 2.5765198774673475 -1.0254610988401114 0.8475549011465147 0.026959045087347117
Ni 8.815213226224898 3.955765181431231 12.09695549173452 0.3291814230632266 -0.6530725442617914 -0.02815846471208699
Ni 8.716618446576994 8.844380886827233 3.412697158593272 0.04190126821947623 1.0585468256504864 1.286894467824087
Ni 5.915741916228873 6.809160042069946 4.863330633515937 -0.2074682276214298 -1.0378108786547158 -0.8011511170709944
Ni 6.808185948804713 8.94572334464782 4.921447243213884 -0.1609302319608906 -0.6706002687329096 0.3342210423696631
Ni 7.685889928574585 1.7320205316150614 4.392303240333285 1.8267430850620152 1.9625071021699234 -0.5640619812593382
Ni 5.196787570014555 8.037519218205249 9.901052449141693 1.1514153289464493 0.962601483201413 -0.9831427976878746
Ni 1.5417507103260455 8.327339533289189 7.313274442813627 -1.0866824075444381 -1.5203398362355687 -0.7819218365277372
Ni 1.1449363585713488 2.8562895717570935 3.544734581739606 0.874040606141869 0.5831400809367119 0.7512873994713318
Ni 5.297477569138619 1.703900480750807 4.649370128851743 -0.6386471128650808 0.7731952552880168 -1.4365601826147516
Ni 7.5046902021231565 4.092110669886441 5.377760314356066 0.12616068969018918 -0.40034467347161373 -0.45605379410845975
Ni 5.032799887768601 1.348714831746134 8.385711612730281 -0.24140884623293263 -0.525509832017753 1.101501989055774
Ni 1.3474099143530869 6.909179203379274 9.29679115221711 -0.13311423818988688 0.014650660033639283 0.19743141221071805
Ni 4.69104937417685 1.8236771941379613 11.050597371604685 -0.6002214618990308 -0.0250685129328536 0.08669271350255392
Ni 2.0047942145574353 7.452603781110544 11.80237682294551 -1.2412676711239075 0.11440663447805459 0.544802618809094
Ni 8.642228965614205 7.927970484103034 5.798875536210578 -0.6685919800536292 -1.2207811211347814 0.5865102829605253
Ni 1.2580690207248901 2.1904416876161505 8.873403352395693 -0.4946216270793288 -0.20546688092068482 -0.26725023277606874
Ni 4.1894924277323575 1.422488612248825 2.0449011263195116 -1.4921947412599204 -0.112082100109936 0.880377346993174
Ni 6.433187610367578 3.540148991745729 11.095695132917209 0.4431620257474561 0.0016529622223907016 0.2797421945954924
Ni 1.5696961595672865 5.297762445470903 11.205378034582372 -1.9252826706008261 -0.8595161872734487 -0.41343030301097833
Ni 2.9901171210172692 4.2330233692173165 4.675113759731194 -1.5519649193400176 -0.35362130127314584 -0.0026217538935632266
Ni 7.984100311122272 2.8731432231574345 8.097575743830465 0.8886282741480566 -0.2649922899798275 0.1229295843474012
Ni 6.62412826947133 1.5161394090977194 6.569618561722475 1.0997870632471962 -0.0764599800309522 0.8598494022431513
P 6.584530459283725 8.267212248058856 7.156462887273522 0.10234713221035924 0.49638617517891925 -0.31319867448172506
Ni 8.7197061384366 8.759772616138608 11.924191780542367 0.9558780484346506 -1.4999851838386167 1.744072862455293
P 7.172588725592669 5.15728165541801 12.893630534087542 -0.5193702947789184 -0.3112315234530253 -0.5271437680767502
Ni 7.026952592881328 5.012288791844085 9.216898963261666 1.0021586766687451 0.24149266419599055 -0.8780047329959395
P 7.234609059998831 8.058719531062712 10.555454737416156 0.3317152452286739 -0.007214001249935963 -0.27479462078223
P 3.4877776944008314 2.3992192809445814 12.943798175158829 0.20844730370524744 0.349120842299631 -0.603741045016515
P 5.103531924207218 6.584649923552102 2.6272664607623106 1.7588034837972484 -0.45596560527002755 -0.689712049861696
Ni 7.6542962243682755 7.715204622122616 1.760490704681253 -1.0369796410026721 0.3720080313104496 -0.5513162515578957
