# total energy = -340890.78543728817 ev
CRYSTAL
PRIMVEC
9.12541712883580 0.00000000000000 0.00000000000000
0.00000000000000 9.12541712883580 0.00000000000000
0.00000000000000 0.00000000000000 13.35597037935186
PRIMCOORD
 96 1
Ni 6.492916709079469 2.0682027613829392 11.475315916513823 0.9162228959368737 0.03788366241965088 -1.0599143954219747
Ni 4.564743471674526 0.39101225572342796 6.167907682028602 0.5776934559998438 -0.5800136194925881 -0.48124623421368734
Ni 2.7004481533211306 1.4398174208388628 4.668312391999602 0.17743131493970732 1.5870674194701055 1.1810727468015658
Ni 3.4296511009625616 4.169129268154285 4.816029167264602 1.3737879844835374 0.4586112704229908 -1.073455624441519
Ni 5.135693437574256 4.495563685341702 2.642625860995671 -0.012145891333914567 0.21272022004898847 -0.15777625971294118
Ni 7.489156734607386 6.3744414200728645 2.879386630335125 -0.6256445299578257 0.7313991451878372 -1.2679207549350617
Ni 5.295607245211298 4.368145487667881 11.607192792937441 -1.5054477496150849 0.421969450830241 0.4805921455694562
Ni 5.622251546989885 7.958257921287928 12.427690062487343 0.24700742336663267 0.134584137867194 0.584332044362284
Ni 2.0726559648825327 6.510492262235652 0.4323476571416836 -0.499540661647501 0.4240409886472891 0.3188183346613477
Ni 2.8694782525485296 1.712156366006627 0.33295087747237523 0.29177752849347166 -0.6559791763856251 0.48775781007995994
Ni 0.7083586701132111 0.03139417213043357 4.751038859879858 -0.20016320931958428 -0.9585720503270458 -0.543791146825444
Ni 8.7209694001804 2.6149612467961467 1.4617978127845 -0.058257340979996436 -1.039668757799061 -0.654031565740951
Ni 7.283305577755274 0.6659729331974079 5.2792408098085915 -1.1065158973305975 -1.0287906774339768 -0.7953674205096818
Ni 0.7761304046017996 7.5231945400448526 2.697545358171088 -0.1498793734633677 0.3551163977614336 -0.21409318913711514
Ni 7.413269766774149 4.246731814384907 3.892891032299274 1.808445572304408 -0.16169410671010861 -1.7296330328808793
Ni 7.683884008127522 4.17631097133908 12.65332603595312 1.2680701360287323 -0.8286632064483341 0.28715339945789903
Ni 8.166134920715674 8.634989721137018 7.353289313326448 -0.6235161707609133 0.7443919579030792 -0.9868233318632551
Ni 6.987906703809902 0.8379350289092728 0.09458768490642766 0.3337914110314122 -1.163343447842603 0.8208704498767928
Ni 2.031317825839175 6.537759008253654 9.201648915959884 -1.1729341768548316 -1.5275216986959885 1.3140046937773178
Ni 9.164656300495432 5.0837789402193625 1.5234619056700598 -0.651060141817453 -0.6532538070346621 -1.108982356593219
Ni 6.412065514394225 1.9056790844817906 7.283224361543909 -0.18579048553768004 -0.39291521377676203 -1.5239046707686914
Ni 3.383622497577419 4.280149091465873 0.43687933922754046 0.5062815799157603 -0.15690362730000074 0.391365609901455
Ni 5.81593852297118 5.805927940514103 4.690403201491027 0.17087525898874442 0.5615950077760844 1.122848058831718
Ni 5.31758124936503 2.789457470810957 9.362642260428897 -0.15441017145418567 0.3100701561550725 -0.014561442753942663
P 0.2777877316628612 5.756422553249154 12.556909617478418 -0.2559090967316367 -0.94330818218944 0.28402719512409147
P 4.236903740267976 6.135036104884676 12.689093107913482 -0.9682062309827003 -0.35847014472501487 0.8576943035733616
P 2.4813468909743266 8.498026337273494 1.5901486280764727 -0.15286313868203996 0.28565341787360476 -0.9454249714221268
P 6.413206191520146 7.821568299934626 5.910510694668695 -0.41458884209545377 0.8276460780377294 -0.5396388152199674
P 4.803208868910957 1.1062195513006654 12.50802658365337 -0.6128409504352543 -0.20338403024972715 1.4034711133702666
P 3.945182409376571 6.0110581894226325 8.422982557971737 1.1209433856098372 0.3337587580212639 -0.34267868621871306
P 4.751321747807086 1.0100376560430515 3.732245366218241 0.2966893639727923 -0.8485540318349901 -0.9363032116265165
P 0.1777749863455558 5.582154464659528 3.6513485444479614 0.9766373924691891 0.957472903725596 0.5749696293107774
Ni 1.4814384478094489 1.2008501256670276 2.474420699465737 -0.19512976066073492 -0.7828777726831033 0.4499934468469928
Ni 2.0064784407451306 6.2637409863565345 4.813718611678337 0.2781799923146951 1.3738365783332858 0.38254055541065735
Ni 5.985406642214932 5.64261947775032 9.324390337417432 -0.22091998225096146 -0.27700525528030356 -1.0190125150012903
Ni 8.708449328046296 2.436769228893355 10.170624933094901 0.0004142047192831576 -0.358518224354131 0.27117219353829425
Ni 2.456498380463275 5.140146641073849 7.021700860613272 -0.4538351891905862 0.30336317644854205 0.3424948523426811
Ni 0.6114120649103799 -0.00980799819951458 9.350087511710168 0.635174323825132 0.6169490590663568 -0.9446217587945409
Ni 1.5564311247759643 0.8545688390302956 11.47456854486092 -0.1672543744067055 0.8075873596146413 0.3097210003457698
Ni 4.306895688714456 6.966909119275957 1.7041287366652493 -0.4181045685581961 0.1879862076374182 -0.14039894477675818
Ni 5.543125056119034 8.011103211177572 8.37337861620311 -0.22065567284598128 -0.625779255763477 -0.684585270158092
Ni 5.181941050967575 2.4727416227363825 5.13647913597859 0.8340141863476024 1.4437358744275846 0.04524678765294143
Ni 1.0746638592892015 7.304914565228712 7.138271675090438 -0.2517750199586051 0.1627937675321906 -0.7659092631495649
Ni 5.155751104156441 4.736027548902745 7.009574093952186 -0.409554622105656 -0.8249507905937534 0.03106329706370779
Ni 8.277839150302814 7.291509327644894 9.2072455342105 -0.43574902111283664 -1.20637831544589 0.49876650248563786
Ni 4.512372703469266 0.4130464876294085 10.549106166183817 -0.22937505499685013 -0.674100054356052 -1.1960568789152242
Ni 8.580392351181962 7.196285601173053 5.17495736933184 -0.9585098296305427 0.7048602183570442 -0.6747945093199152
Ni 7.102065670572022 6.0964994688625795 6.843331809620537 0.8590150792673141 -0.38410995678030624 1.233830498119572
Ni 2.2339933375727243 5.3215325549292185 2.5329593370262753 0.6737629827316073 -0.66288310259431 0.5267223642686154
Ni 2.357834371779658 5.263695661936548 11.731242799193843 -0.3481844465282907 -0.2700583916488252 -1.347588443270034
Ni 0.7857887459623935 3.3434889135790336 3.7270502663159486 0.12239299511764082 0.3622738347418213 0.9409941893442827
Ni 3.636204914924241 2.583405554784683 2.705946217068067 0.11387750144746195 0.5911156429430207 -0.8020988256962445
Ni 0.7461534097326097 3.303108943321449 8.085370417492001 1.4643373527280201 0.8956993220622251 -0.07089559856929725
Ni 3.523871031563593 2.937298351747257 7.06924793338844 0.9169762291631305 -1.5025038364954124 0.9111141139553985
Ni 4.139325656208235 7.080146418920334 6.386037087464122 0.3509013312388215 -0.6856697614715224 -0.6926647047321168
Ni 0.746685421544139 7.399134495829743 11.264933077575854 0.8573027245618977 -0.4624118751160036 0.1831399352887104
P -0.056568460028648 5.593205344655445 8.013221220464981 0.32938505443360044 -0.09180483791813866 0.1739065896159005
P 8.549594068782108 1.6227546555854844 7.9490996527793385 -0.6225597203849149 -0.9963382133322258 0.4485112058745115
P 1.5917556140114695 3.3233582436607887 10.435340504894713 0.015096489321806258 0.2910859017430858 0.1658394963370499
P 3.9518165875409244 6.120225553081726 3.7943374411614466 -0.42923358859182204 0.5213063354593668 -0.5244312542415935
P 6.965376049218721 3.969446893199151 10.399906510655121 0.8042876058174471 0.020270834433894123 -0.7037317611795557
P 6.509944737215209 8.111619679513684 10.333367620004227 -1.4794482402275295 -2.9668363041274257 0.8599021098579579
P 2.5549798808067448 8.607029443426455 5.9475069602999495 -0.045355545316663824 -1.2054871710901887 -0.48845380770572006
P 7.056091819688924 4.023852629397054 1.5101196334635931 -0.2682251950948284 0.17624963592678033 0.05326091620666956
Ni 5.587136942345549 2.795489371452824 0.20726742157165476 -0.7860168325327174 1.4967589635918352 1.4871882891842645
Ni 1.3723714637374371 0.9441886469179145 6.826636859205565 -0.19253114669562324 1.1398625911118434 2.0890778828143377
Ni 6.792075254831875 0.7180635511005424 9.313812154022495 1.1210827394011789 1.608834635943868 -0.46006805747417545
Ni 2.662121401890203 1.7714715765544915 9.21634083734174 -0.06375075999439987 -1.0886205051074154 -0.3586910024865694
Ni 6.666007618875145 2.315191298104247 2.780939806576283 -1.3136236562888148 -1.5568441018091896 0.019172973384025047
Ni 4.176028083411852 6.8124979380943556 10.630109755333082 0.35829916636478937 0.33006922498481867 -0.5946768779317178
Ni 8.359137490421418 7.2304785386996455 0.508136983012942 -0.9895638707228699 -0.7305499098136644 -0.23877963614020167
Ni 7.478507372959792 3.830576297181089 7.888744144692634 0.5623712238204767 1.1774071250245206 0.7680067691085418
Ni 3.1413791776999407 8.451158195523675 12.698001339996072 0.41303666711698545 0.0917924966229645 -0.13243083896961708
Ni -0.16209021959329895 5.039493291482626 10.229484785334098 0.9473237311067362 -0.7892757057896471 -0.037168638630497276
Ni 8.847246920728299 2.396763400733072 5.812785691395136 -0.10590682453715955 1.1801906013069288 0.25202364563430146
Ni 3.4646927022708387 2.6630704452589686 11.453466018031392 0.46593994287392015 0.02155201513916288 0.5872106514616596
Ni 1.3298013933980852 3.2346409395151983 12.770083921478937 -1.6057971346691249 0.07442186655500087 -0.3445694754835227
Ni 3.030843001489743 8.38827494692593 8.282945733660135 0.8735356414809924 1.5407793350368433 -0.7371859270729434
Ni 5.9334373923579955 8.03333272700751 3.5230241928653094 -1.2530055283861259 1.1433027271416438 0.6278801041565638
Ni 3.1429578748422147 8.455803032780423 3.7877260765396112 0.6408718884305414 -1.3278151172978487 -0.695500374408699
Ni 3.3633093193190273 4.090532051469861 9.460661102130095 -0.10304698649086123 1.494511048097923 -0.46839663194452885
Ni 7.144142968392977 6.119906163486467 11.364608182463886 0.19728485933052475 1.4881730216950368 0.6571901659745907
Ni 0.45206129550269153 -0.03973571581686479 0.48747521382486886 1.2419238166506676 1.1524597110505634 -0.4942009946021424
Ni 4.787166385812011 0.5046565489663334 1.3536004809532898 0.03530176062508759 -0.7626858711162606 0.6766739857308153
Ni 6.076076785600099 5.629360246838621 0.47782873550638466 -0.16905774616403144 1.1331959777249452 -0.31204887714799806
Ni 8.194487591357554 -0.2169394510577596 11.250468379077482 -0.14934535533676857 0.5846513753749156 0.7406646296501631
Ni 0.16749064137825684 5.06187793940169 5.779301798770016 -0.25909880731352797 -2.0713064177635294 0.9346602767064549
Ni 7.8029980763246405 9.23382696141125 2.308499629812747 0.7762777508680824 -0.5055629565821809 0.23267429457341218
P 8.621228592289913 1.4895053164439587 3.7482458723989525 -0.13230459780439793 0.8568255278151631 -0.5122555381110081
P 1.6300549891913754 3.2970496664285593 1.7829020738979156 2.069945532860261 0.13512844040643823 -2.3281264563452098
P 4.635319446809478 0.9881914077274225 8.224446335392729 -0.05566206944899446 0.8298543985429578 0.7399298083666677
P 8.725258346173861 1.5184420137743089 12.366012281476271 0.2615392984342205 1.384392756582577 0.9550457823413422
P 6.369048298621513 7.8892971449632805 1.300371923549337 0.2986027789454212 -0.32348540111971386 -0.21462129372644326
P 1.8791332464073693 3.326670770034462 5.870148975245126 -2.5450404027605718 -0.997128056223373 0.3094101539735704
P 6.894225172812305 3.936558890304612 5.765639224426591 -1.2493301364170677 -0.4239679693175086 2.9105818525100715
P 2.5783683245966182 8.360287292964346 10.402577520213175 -1.1074422657996088 0.3487336341635413 0.4349226685567994
