# total energy = -381165.596432179 ev
CRYSTAL
PRIMVEC
9.33619331675064 0.00000000000000 0.00000000000000

0.00000000000000 9.33619331675064 0.00000000000000

0.00000000000000 0.00000000000000 13.66446263595238

PRIMCOORD
 96 1
Ni 3.0411248438081584 2.638576207983097 3.8988259615907284 -0.22909660452448288 0.40525470917872136 0.6929999765843484
Ni 3.5040599762938522 0.1525795358109751 13.526902018738529 1.040912143287859 0.46965930070703626 -1.0646647656227666
Ni 4.5507872603239745 2.5092605980192095 12.344898899100095 -1.3006223589331405 0.47734098562201016 -0.8318935404601737
Ni 8.492518630704685 0.7754576595677928 12.237673655516653 -0.15070006959245014 -1.775690489360574 -0.7288812638619899
Ni 1.9088500228421406 5.934952569834189 12.740225055980094 -0.48040291237678545 -0.4821965139420986 0.41059309067249933
Ni 8.748489035612625 2.6810092054046457 13.346271890902683 -0.10204991268491456 1.5098762177000835 0.41411395934156425
Ni 6.7763956410359265 5.257770479190147 4.751065406437851 0.5736244281367927 0.7455258143972063 1.7080051701984584
Ni 6.0947975310782665 8.765555596511765 11.192506449345528 1.2118437094358356 -0.5410367240087585 1.2049212712843895
Ni 4.890363274012986 8.050412544918105 7.3998936880114 0.5229191884724413 0.05198616325930402 -0.3057949258184862
Ni 0.25947521177967936 3.6868999810251184 10.915472659292867 1.0591944865368146 0.1842982172628697 0.3200601774882488
Ni 5.734775254605275 8.270653339015867 13.619437696173883 1.4364640233565196 -0.8270123011084725 -2.2318304154249367
Ni 0.2226149879908971 6.542449315537762 0.775267201229531 0.7842157747682366 0.4023403637454039 1.2890446813978702
Ni 4.070160042004653 7.615532672553808 2.862937064074727 0.04011897950807285 1.529778098830333 0.0191374921603993
Ni 1.4724110062381526 4.239751988795066 3.302960245191395 -0.736455476664822 0.6057421346069438 -0.5859523535745264
Ni 2.6869190156065903 7.141412780791764 4.812965299992221 -2.899884263586909 -2.240832361813231 -0.4980175401347552
Ni 5.7874220472257605 4.34673542497846 7.178871454555182 2.0929638481323054 0.3763097440095971 0.27558600633527375
Ni 8.54123488605026 1.0005318008085988 5.640430222956435 -0.9189315531172884 -1.4033219893869122 1.577474890685664
Ni 4.965090163201562 3.2418156496549364 5.440109130354518 -0.816186414137562 -0.20378589367383615 -1.4392215314969987
Ni 0.22248054681094767 6.027679639227109 4.9740146301400125 0.2955313391089491 -0.45673436511525217 -0.18139081380808758
Ni 0.39797110037164324 2.822629917811129 4.989647151786357 1.7497989663057931 0.786810017857974 0.6417823160599527
Ni 4.475304139498183 5.355455067093703 3.48506642514877 1.4136197717684944 -1.1759063721092782 1.2475298499835354
Ni 8.155976879757587 1.6975252931090825 3.512737034116424 -0.029467670441813767 -0.06503039803777187 -1.1715910325633758
Ni 5.614347700426935 6.526493761611816 1.4208304068642097 -0.8743583944926039 -1.3843179374805836 0.6893400112342579
Ni 7.244811118843172 8.958077233438004 7.805249717087212 0.050112600385674985 0.6093529918866538 -1.4513375980342424
P 1.0204925815538728 4.441273715823476 6.679872475548046 0.5117212628740929 -0.517202083483006 -1.1792578050800142
Ni 8.086338215782376 9.272884326959938 9.800275602657651 0.10908547937545729 0.7659894815681969 1.891318912060872
P 5.776797459532532 7.239685548857598 4.060340234152512 1.2069187613303924 0.31021310949083997 0.501070468028466
Ni 7.792584237592806 6.092696887641556 2.7692670391835508 -0.4783293176772085 1.3693595163985384 0.026555124780709104
P 8.654100123856443 4.259012555061437 3.7897017363405006 -0.9069075320732187 -0.012031477243237344 -0.0962315062309246
P 8.23288843812034 8.17912130233361 0.03201567321407566 -0.14519276662097574 0.009990278443492472 -0.4430522396424692
P 0.20344124831991053 8.85830133829079 6.6563284639093965 0.82887866489325 -0.6018299440367313 0.9218227586221543
Ni 3.4120704661520445 0.5741142538266769 3.11209484891259 -1.163151643546771 -1.2153902891365134 -0.28931209767211463
Ni 0.3695274546192804 7.6299104098539585 8.507357575941606 -0.6701420981495685 0.1519200580424803 -2.133072029007101
Ni 1.2216315246671487 8.280288290245577 12.804994895278663 -0.6282230893182794 0.15265899309103387 0.36048383272093404
Ni 0.3590447770604433 5.699652496343477 9.798540004369276 -0.5380866402414992 -0.05151359449825967 -0.5742013836861853
Ni 6.337165102709377 0.08380446969307925 4.802060626507431 0.5214911977766632 -0.5576293382601171 -0.18856136341459784
Ni 3.3056005205865135 3.2160384206382377 7.162596602826856 -0.6550749194038008 0.10562811695447615 -1.0888002252183893
Ni 3.9555395999046863 0.23314061203777361 10.999919459067927 -0.9422442597012999 0.23928665768360727 0.034669783468043516
Ni 5.201071778785073 0.29109689764695873 1.5042110133927262 -1.7633088278667695 1.6641508920176695 1.9241755535795768
Ni 2.358434399263409 6.064482912238273 7.361838431511956 -0.7914323471213338 0.05963930892918761 -0.4869044609407292
Ni 4.398495279259002 1.0548124272131933 6.834594667664465 4.210207908968213 -0.5259631175050877 0.7866554945579807
Ni 6.342402707011575 3.918633628769949 13.480169704416515 -1.4949820741970703 -1.994465400244075 2.461329140483845
Ni 0.749095984866036 0.7494591627757606 8.862674411116368 0.0603677024547799 -0.7783929974388724 -3.1980553543115504
Ni 4.373726359091925 5.011827145620103 12.676220784511795 -1.345634919088089 0.060690375901521286 1.1209672968692372
Ni 1.5504709163463082 3.7005308228811056 8.67839569903578 0.39269152780173017 -0.015655961369702067 1.1732599356253666
Ni 5.150852396358117 6.970215008796399 9.414103583065184 -0.5917067395598002 -0.15909806384815828 1.3864588950829866
Ni 2.881606649320903 4.705824082146247 5.155587713474116 -0.980834461269672 -0.354877285167434 1.112613011367271
Ni 8.478757082145968 4.357789477552082 1.5532260269159668 -0.12283882440580782 -1.5933218850202497 -0.5916481184077229
Ni 6.355529394442752 4.014170892271534 2.9971905865438413 0.043080890349874196 -1.8194979734638277 -1.7564545239490976
Ni 4.100362626528022 8.562054596556322 5.250282852362407 1.8059073792635867 2.182543139154035 -0.07683330420997089
Ni 4.062308303647883 5.0332910534467565 8.374662264092878 0.2412548371535716 0.418720347765324 1.5942274275536543
Ni 0.9792452806499341 0.2304704608248885 4.190057300417637 0.7743437670701632 0.3672556042271288 -0.49954091875781714
Ni 2.972261083856268 5.762783833761412 2.0308264514478145 -2.070981944544575 -0.2816535526855924 -2.4607485853900264
Ni 1.5509657345780665 1.247343400332483 10.862154594391939 1.9684239818749905 0.23851249852174405 2.4290206581591263
Ni 1.4188119219263573 3.8238152521333713 0.9373696539535928 -0.06681782895549783 0.02732722706004326 -0.6375993883268567
Ni 7.133234275678171 7.439358709661703 5.993806997214981 0.3442383173963491 -0.6783187204230898 -0.47027045192847394
P 6.618184513575957 6.352793889878503 7.838030958131555 -1.022073156204485 0.04244968452377851 -0.247837889687728
Ni 2.5386789423262064 8.435017017697135 7.449550097997316 -0.5425827283396397 1.1090489481650965 -0.5575200663757625
P 6.52766078574332 1.8229383743772147 7.2860145396397655 0.2780228979115405 0.17988106203178053 -0.022463214099522604
Ni 3.3055818482004096 2.4145075747339964 1.3999649490121926 0.27979644487219557 -0.48033837768743726 -0.5403391837211017
P 9.22962974454981 4.9269051336186935 12.964664336093362 2.1374884129072416 -0.5576164827443106 1.0395556292599646
P 3.140592644584655 2.978208238830421 10.206356120314302 0.2043916455786351 0.18651296552600136 0.6052852495751834
P 1.3321627142103198 7.2009030029194 3.0010165584565693 -0.9652615465320795 -0.46584018407126226 1.5608827906549376
Ni 2.3701139767715182 3.627372414125274 12.273788851099882 -0.23435142516551893 -0.938851431969667 -0.1247075021834304
Ni 5.6122937379554845 0.5434523286051479 9.364023309914705 -0.09153230098304235 -0.35591395396206443 -1.593234981733398
Ni 1.1754920586039381 7.940758957521827 10.578138265555651 -0.001649105567648773 0.7675038613301943 0.2586388369579739
Ni 8.884153256851905 0.6775107246394744 1.0608996250831273 -0.9023358535421363 -0.03594736462888648 1.243521757265407
Ni 8.94961864253285 2.900979249903898 7.747613662899711 -0.32988667666036736 -0.9697249816200718 -1.050891623098074
Ni 5.606047824803666 4.623628238516035 10.654181557964563 -1.1196969147972458 -0.8924620460718501 -1.2068737670250698
Ni 5.309268920065231 1.743627414400085 3.6287756439409966 0.7079532554600712 0.7046038793718639 -0.5832395826290535
Ni 2.5983092073496237 1.2242736673008778 5.896407163199513 -3.0503372501655597 0.06432591577157955 -1.8044693612654794
Ni 1.4489771616775176 1.1085515544207694 13.613152571011245 0.6315130729234608 1.8563534517292803 -0.34253187622820364
Ni 6.106393082848907 1.2043222227486559 13.12753048940908 1.1632334046272998 -0.5683384971475051 0.1257418569852157
Ni 7.2424397258079525 3.811556830656035 9.044397807158608 -0.04622252130264943 0.000851035146385631 0.8776648331580176
Ni 7.382295897727599 3.0307523333273356 5.57033128466376 -0.4692366113473209 0.1910784734094967 0.13783144115989812
Ni 2.56589394507292 5.246595056106848 10.372720545166622 0.48295061849930376 -0.657716470791706 -0.22652010204655826
Ni 6.619724985429545 2.2927636173353183 10.964077813941122 0.6393189421211248 -0.4950941958403732 -0.20236510206690952
Ni 4.747911640424871 5.9821283533261775 5.763205829687364 -0.16992857880475898 1.0170931864913904 1.1332872518871708
Ni 4.945745571197722 2.6602175034777398 8.81547715438036 1.3681243584398566 1.6251899373734398 0.6559460091548445
Ni 7.51879104014851 7.09069858013305 9.709352285762387 -1.0774107524345253 -1.0447112053189749 -2.0820220044088207
Ni 5.932189056690784 6.480485002251333 11.899382301991603 0.5164639197654008 0.9746625281310052 -0.6971366244605414
Ni 3.1592370221095907 1.2859578947957448 8.722996560484015 -1.5912847999855628 -0.8100419918027211 1.1528613173643563
Ni 8.548190349874034 5.30278026589406 7.509810556051747 -0.2594515626672564 0.7327330335079123 0.16827047437604567
Ni 7.363931605994225 5.999699068650127 13.65182308263282 0.4481589647414152 1.4856062894091253 0.3348964711701329
Ni 7.5878788687336485 4.397421617058017 11.878790394596011 -0.01715748561589303 0.5555500871335851 -3.3499306751590243
Ni 8.575396016427696 6.859301035338094 11.498440424990799 0.8057202244989157 0.15132690454317163 3.557012980195945
Ni 6.7998388217896135 1.9392019864543417 1.613048617516256 0.21828511573127565 0.8246887951816184 -0.3864319200452635
Ni 2.2161881619224384 8.14590312745443 1.3457571449134038 -0.22033634183334955 0.5851982490173212 -0.19174798867269557
P 4.742011166415977 4.051179561529843 1.3087559446095356 -0.0415377142324704 0.7628753614192474 0.4127613019684117
Ni 3.4404711654163678 7.0992038520034635 11.466738447863273 1.3589280366525691 0.97595193636639 0.25532159965928286
P 2.916673390424387 7.69553451081679 9.439218875994491 0.8697568911648506 -0.1939344548010531 -0.9829448227444557
Ni 7.1374448987446435 8.670177048292066 2.14963884422815 0.10026556709098215 -0.4772823644699329 -0.2733476039230583
P 3.768797066477665 7.332384609671362 13.62595622616282 -0.21755620798505113 -1.2319003709763945 0.5718236274826282
P 8.97997060614505 1.8389592816545253 10.282371404144058 -2.388996295247389 0.2537491129658404 -0.3994645848595056
P 1.3031738347837174 1.5401917677960058 2.2037224769593466 0.4870798101763289 0.173585715941372 0.24298364691922023
Ni 8.52015376213874 8.043242348654132 3.8457403678967954 0.6654894298689055 0.3894408820749164 0.9776360089370325
