# total energy = -340893.6107599001 ev
CRYSTAL
PRIMVEC
9.05616653131013 0.00000000000000 0.00000000000000
0.00000000000000 9.05616653131013 0.00000000000000
0.00000000000000 0.00000000000000 13.25461512991952
PRIMCOORD
 96 1
Ni 6.48689564731136 1.790132379077974 11.470503924776878 -0.8277594636871423 -0.32268604514687005 -0.28172091558841805
Ni 4.481787994218346 0.42212330355576866 5.8704424118996235 -0.7164322394653597 -1.259656200933424 1.1391375400203607
Ni 2.6994982550972773 1.8222183760379236 4.729856310878332 -0.4873405200368833 -1.2617218252132012 0.6696438183569112
Ni 3.3081088505521064 4.314257975092715 4.870076555114767 -0.26881063528465315 0.46636777443995814 -0.2582374877544972
Ni 5.192687987263531 4.487457154279572 3.041894693613076 -1.0341830520941415 -1.3630793398167815 -0.5529247336955961
Ni 7.072530749035623 5.791037946377513 2.7686103876967283 0.4912241713620056 1.2295953769923018 -1.6930809447884585
Ni 4.923638344677263 4.576886795820499 11.449720928891077 1.5327541507395215 0.4266072067125685 -0.34241900479942317
Ni 5.816956694133475 7.91709975566502 12.593249378321143 -0.5989356532080717 0.3750015667211348 -0.4781490833456023
Ni 2.1076325110054017 6.34114570797367 0.4599500042901785 0.2463484496263951 0.01627688278315261 -1.060187446577703
Ni 2.74196261855909 1.5951621762694055 0.3137535959572526 0.2952410615620399 -0.3642916365027984 0.824472308295438
Ni 0.4312229393856748 0.23120845198588663 4.7180597487445395 0.33410380006550844 0.11407084840519066 0.30970608794743437
Ni 8.902727607523932 2.2818640931427074 1.2202305549485502 -0.27198106259283483 0.2179184764204763 0.38497076211870473
Ni 6.752322823404829 0.7782534181623841 4.888156285380316 0.9442337793275029 -0.2864445463163325 -0.14317984995600505
Ni 0.8491025234451317 7.21149761986555 2.229823739507185 -0.2673325080772299 -0.1400968401553071 0.6424942545253128
Ni 7.4570917919109565 3.769194498087777 4.046938965873381 0.6868380707480107 -0.12961085302231873 0.17756732629693936
Ni 7.540426633577751 3.6795293962248183 12.529521136546611 0.3797902463590298 0.6461171959898808 0.74055458643486
Ni 8.045208283182786 8.992637225875155 7.046603850730051 -0.18186929610640293 -0.04583994115225008 -0.18254575334813722
Ni 6.884497569560761 0.8771150568339312 0.4770362731200789 -0.08804100000033226 -0.33770925802857965 -0.03977882255983471
Ni 1.9291264184065962 6.414201800967155 9.276175828815987 -0.502374017331238 -0.24528838379299692 -0.7468213932801783
Ni -0.020349205523287332 4.902311073200921 1.406235153187446 0.4028054763072804 -0.5554680689427401 -0.265649206837536
Ni 6.31201202120535 1.873847579726513 7.02189681801593 0.6331824902060837 -0.22792469570356877 0.9826105793334884
Ni 3.7250547438730455 4.43681507271027 0.5701590192504122 -0.24485078203494606 -0.47689952720921736 0.13881051724371576
Ni 6.2619223657762 5.775606239118198 4.965735027790058 -0.3791371861560632 0.2411442797176363 -0.09049357530588285
Ni 4.965450664170373 2.560757788423151 9.517250973911631 0.3556681564998455 0.5741160230612306 -0.06238653265702159
P 0.26622230748863956 5.603665867037586 12.532211723534136 0.22167871479385692 -0.9094796636757693 -0.20395352959995197
P 4.20725031489549 6.199208414619651 12.652709448950537 0.04573812546706316 0.7807265306680554 0.36722295121698045
P 2.566309218323362 8.334978434107853 1.34172445865047 0.20950942642117468 0.22004966383086616 0.6506335958029956
P 6.762203100763934 7.867191223560509 5.724522216636774 -1.1988133586144385 -0.6264073762657791 0.20851723771123445
P 4.729084725515366 1.0713988022421144 12.593752901163642 0.43040986828811034 0.48050292828975966 0.8574482490008265
P 4.102859886739312 6.400608495452933 8.138929641901056 -0.23189010810922 -0.856391525601538 -0.14380077136945557
P 4.62233969413887 0.9383818326266075 3.8310870549670835 0.19959525263125624 0.9716216844221526 -1.5092414123295619
P 0.010684464920504849 5.56759515693556 3.6403270638397687 0.15060005367947613 -0.5955595376469872 -0.2127891256137109
Ni 1.6185633098128742 0.811530300981841 2.564582207422921 -0.4209052712317848 0.8294232245428101 -0.3887222587413369
Ni 1.512533715568705 6.781972711648373 4.577772488877988 -0.04699642335419648 -0.9180656055725673 0.8026631828401467
Ni 5.94341699939702 5.735288187053367 9.173916316574198 0.4353975513106889 -0.020339997108932712 0.7007593088147931
Ni 8.590217423190332 2.5040661878108774 10.605547676726019 0.37603540730228785 0.3584241219784279 -1.8998194933327153
Ni 2.2926047062938504 5.107858878168456 7.059646541337367 -0.8298101755685838 0.07194563710036642 -0.04470737020970365
Ni 0.676141521430175 8.990617700805421 9.053047288342285 0.37935187327003056 0.3810570288865954 0.6382005122459653
Ni 1.5402003034074425 1.2579558266211617 11.233630840812879 0.002285453600067032 -0.8528557445341377 0.3316432543401579
Ni 4.336898390672696 6.652931399008711 1.8528888942158128 -0.11102357693843459 0.48888549592649994 -0.8039492486414219
Ni 5.649897595651908 8.016826258211722 7.745863953317258 -0.66415091356314 0.3677513129166247 0.038979209476674805
Ni 5.154860380912498 2.7769737572119735 5.007911405165694 0.4178942523196029 0.5814205271424439 -0.6150672686626116
Ni 0.7071688525576049 7.453179528098736 7.088289383895914 0.43242715582845526 -0.49090381190810944 -0.46380258481594316
Ni 4.904584170925151 4.834072860642857 6.732959834384206 0.562741719786018 -0.21240397436015032 0.6001924084333082
Ni 8.168082346618462 7.27135887865902 9.222666565017636 -0.3460054365991009 -0.7764682696123337 -0.2891712012188762
Ni 4.6284344940130016 0.34855191470368413 10.514978769473107 -0.34111725526886416 -0.4464381253955666 -0.35458032275230544
Ni 8.145777009189064 7.533263206088246 4.152339156564427 -0.2874845575450726 -0.6864246373596758 -0.2453418627387517
Ni 7.081985386581824 6.237371099121267 7.131432959825126 1.1794421531766783 -0.4433533158226558 0.4831035991374002
Ni 2.410036013824098 5.1917552021416356 2.637072290026906 -0.26942512894020054 -0.1638530620346404 0.2543227260811233
Ni 2.5628407066565093 5.349178539752363 11.365208785614124 -0.9340421835064817 -1.1743333711952033 0.42158995600363525
Ni 0.8902138956718854 3.433274124044476 3.7036178927852954 0.2446985727277979 -0.1258254178379575 -0.17284600956187007
Ni 3.384986645695492 2.696871966889999 2.7292839858343005 0.4194654534614647 0.4007606779631098 -0.7915634733825593
Ni 1.0838872554760322 3.2532194270199994 8.158122374996516 -0.4248172046916813 0.6619443928301245 0.8765163213758711
Ni 3.7051040096639656 2.7632083845393445 7.00144527781422 -0.575224682744377 -0.2405390420334696 0.5535942489587949
Ni 3.60899997361006 6.825043838247731 6.03173816619115 0.7417565771627612 0.4834506980641738 -0.6857916317613673
Ni 0.8915360959417562 7.238666118561527 11.260285854883504 -0.15535839430006793 -0.24626463166333717 0.33893464579524857
P 0.11956765714437487 5.574894426918546 8.058089774031172 0.5365259806225986 0.0038813373322771866 0.733644232468272
P 8.581215593955733 1.6393834359802253 8.207601644821631 -0.21787219656357318 0.8128208400994389 0.4558524767309311
P 1.8012352388783965 3.2972233387412517 10.400047869439513 0.4471449216546041 0.45306025869777455 -1.323348853996379
P 4.186457357226835 6.172691959892377 4.005942606957774 -0.4001999203636334 -0.4805222115634692 -0.24490297542912015
P 6.5622791750264655 3.7927676987896533 10.256871692544957 1.5931197963117725 0.3595083561815421 0.741913928676232
P 6.288991246643626 7.815326559549887 10.303448461092717 -0.12828442090141132 -1.1030302527748423 0.23885394102156285
P 2.2510640717877 8.453713829575507 5.779887088896061 -0.3573314031348814 1.8287608868229925 0.6084767599292875
P 6.970830002250347 3.8565049967304175 1.5277000771574232 -0.4073581286749694 0.2627973392110377 0.037157839997219874
Ni 5.215147279518873 2.6481226240631828 1.0100097682053064 -0.5613098724354978 0.217555950874735 -1.434993095237948
Ni 1.3789733759792784 1.2033109195773184 6.856214256801626 0.8404650841792686 -0.9534390999758546 0.4368764498490605
Ni 6.84113664564198 0.5236528887992608 9.224801103398516 0.2816203854548117 1.0844038959229068 -0.11403562429188102
Ni 2.733812068950297 1.5027711683706173 9.065957758922613 -0.10379054952510512 0.11622928950909013 0.34231796044518464
Ni 6.392593788337621 1.9550632784950226 2.8876102232183576 0.2019717232832328 -0.06714538749824564 -1.0849314862916024
Ni 4.161761191912191 6.94453089551264 10.404116804927549 0.3274122469779458 0.40983255835739096 0.13645281564481662
Ni 8.181657539800218 7.206625402432738 0.27171124984185024 0.2614107432761562 0.48845252215413937 0.07491397570007098
Ni 7.599291714085704 3.884724010709306 8.255623777500018 0.4049189231058575 -0.20528356126528519 0.3278634755827515
Ni 3.2614695944573446 8.375269317673988 12.4551093354682 0.6739064502880072 -0.29774248782765494 0.21329460449521975
Ni -0.027144952663774567 4.994638687936085 10.264545887809948 1.2304584963235454 -1.0381880594884765 -0.7458991385762251
Ni 8.577756138455111 2.370179826237099 5.871635108992377 0.07297433547519691 0.40091134460836114 -0.0747918482999099
Ni 3.569134729856829 2.8250076629064624 11.610458823342713 -0.336458159230298 -1.0107808711201174 -0.06926346228251297
Ni 1.2324989433430305 3.3117132047124396 12.543902328523016 -1.2876508863741372 0.994064586806701 -0.11834942117588651
Ni 2.939903243891752 8.208373230184597 8.108179429460325 0.8588890952124111 1.4527668742816011 -0.6785958853438764
Ni 5.532910040267028 7.925259361440045 3.6179003737828626 0.9685361035182932 0.15470044900109486 0.6509498414918338
Ni 3.0823295702222997 8.292124655498064 3.6860290067295196 0.7578149161772045 0.06660108495900142 -0.22435806139823297
Ni 3.6489829475243076 4.548740231171466 9.091698100203805 -0.4515291667652288 -0.9124276905604995 0.674367963305458
Ni 7.384144372912256 5.969471589646463 11.459343105512568 -1.4051605852575477 0.9561277025516113 -0.1492373690039946
Ni 0.9534331809041791 -0.21004328588509677 -0.11350545946867903 -0.5008043588512731 -0.18918022794551936 0.980000395404151
Ni 4.6861041605783305 0.2191546947311045 1.5137037722458786 -0.4794932560783226 -0.3328565579219687 0.41744328082511334
Ni 6.221604313711368 5.755420044587086 0.3469326721814039 -0.5692846631108582 -1.082081161327001 0.683031809628043
Ni 8.11134546517503 8.603366976559185 11.2891804588633 -0.7276862151126241 0.7812080982901642 0.3754615370766889
Ni -0.09972016323033993 5.133596502599779 5.913559724946764 -0.025842414984400656 -1.1659502893378308 -0.5809638992209993
Ni 8.380847916072895 8.938019487330008 2.163616825034957 -0.5056747995696969 1.1069100474452227 0.0563521535374836
P 8.507290109003977 1.7148937500225794 3.436019953646016 0.07232513192697222 -0.17268762960713485 0.6335702125628057
P 1.7834760968974592 3.3803498885847114 1.3517849537175906 1.0532254134375734 0.15860158382771394 1.415595921658259
P 4.68605887974717 0.9952273880648249 8.093413350419059 -0.8574297370580651 -0.7018797955724816 0.2386611082844664
P 8.617820617865446 1.3156345493527224 12.439773623570941 -0.35124457351085314 1.1741554508564425 0.2648519077472213
P 6.540707387061859 7.870614454396201 1.6124503976062794 -0.303724930663335 -0.5804003134080455 -0.4725116825541668
P 1.6586911823868336 3.2798898365732176 5.959659233534099 -0.07382691328347932 0.216106362912402 0.05567518207511702
P 6.865624519133289 3.757964851960106 6.202232268524513 -0.769204903181701 1.859640092900352 -1.1264815418192469
P 2.4531977020857747 8.48117212559091 10.421242015272245 0.19333718753668638 0.3519431422397745 -1.4624825589074681
