# total energy = -381171.84682909265 ev
CRYSTAL
PRIMVEC
9.19883984152522 0.00000000000000 0.00000000000000
0.00000000000000 9.19883984152522 0.00000000000000
0.00000000000000 0.00000000000000 13.46343194105031
PRIMCOORD
 96 1
Ni 7.173135703478804 2.1433112794123965 8.801381864386446 2.495764696453895 -0.26828124514374435 0.26583484048578093
Ni 5.00493236352473 1.604884787311321 6.91407797658496 -1.263820873834075 -0.986954715234797 2.2792451572634747
Ni 1.9158423684461663 0.520379288266368 2.1881850598020547 0.5750747874300741 1.2741024582657412 -0.6878770535354862
Ni 3.7433298804611352 7.320225152134175 8.991202683638367 0.6113581952421406 -1.4077705120765691 -0.7713530598729554
Ni 3.413431888145464 2.62574443355442 9.966857391258436 -0.9290586142489613 -0.018255860886394366 0.2663377482641284
Ni 1.5806090490373046 6.884154150664014 10.271669227512316 -0.7687554743491083 0.0020687096035706307 -0.6733896585525886
Ni 4.652552406699131 8.572168853391132 6.9221425994515124 -1.3503981448046871 -0.9579644986500341 -0.5810731711053541
Ni 4.181240649894466 0.44496443980412087 9.16581046160284 -0.09183620537670635 0.7493058502649289 -0.5037534141772679
Ni 6.730763496734789 4.926760622769673 6.215824402335512 -1.2542486567646076 0.5173319241926511 0.9527873253244686
Ni 8.528005223435256 0.4927606916032732 4.776205971155673 0.38713537387019137 1.4671102874874669 -1.5459721920916925
Ni 0.3497720857378057 3.4031383863915323 8.811546582382956 -0.4102105105221 -0.0004651125618766183 -0.1637157651258277
Ni 4.1314473299712935 6.07182300420632 6.694098760996791 0.95357356867119 0.6134973530723304 0.6117621155487787
Ni 0.8413958007398403 8.89653834297748 11.61896902218431 0.3374691169933156 0.9966765705082512 -1.0048045989320245
Ni 7.865219615863765 7.993598624333706 10.186096100241429 0.6107825252443287 -0.11880039267037605 0.5877600962072265
Ni 8.647010614132853 1.7063663881597297 1.8769910684839421 0.11233252555784526 -0.030489426838108784 2.988996385164233
Ni 4.777095498965865 3.6944932398788106 0.6401159867293225 1.0254531284203112 -2.2462280789075058 -0.4531695305821293
Ni 6.919431701357782 2.6041271599871822 6.402548892105417 2.42041800409178 -0.2877596655833302 0.6208291108470534
Ni 4.429572529563034 -0.006306724577743753 2.6982331310712464 -0.1999410660064492 0.8483146621306745 -1.6341805709078243
Ni 6.5260617143127755 9.143591583911647 8.510343450988834 -1.3139239611380533 0.6631618101769934 1.1218715538510613
Ni 7.532598766962604 6.020475080354269 1.0901462276200296 -0.10462538672157465 0.3641327423274309 -0.23277996691334102
Ni 0.7317391909470895 2.335337060568174 11.306159714594534 1.2141301914771672 -1.7728705034132757 -2.2402613198011094
Ni 5.764830123032104 7.226755740765368 1.961823689149652 -0.2985801532376019 -0.17713923762058525 0.22031808700090444
Ni 9.035247648560617 9.013547585435036 0.3310174911212597 1.0690731791031072 -0.1363481717461523 -0.6575328940259901
Ni 5.662879381353087 5.412413370847243 12.94374361779924 0.334716751059159 0.5020127773370774 1.0436398266316673
P 8.71656304198046 4.1950481084580495 6.880001794371142 0.40988603730314566 -0.5266493449388349 0.8047432052976269
Ni 1.7902506084404262 4.821433906878242 2.8771754023569462 0.014996473408832239 0.5701074161224697 0.7334647694676142
P 5.7797966354124855 3.2607863402413217 4.823530322472272 -1.1676400183354279 0.8565578759760732 -2.110664350735862
Ni 8.577724952639903 2.94007798890168 4.4738309075690115 0.0250811113383439 -2.0327195586292675 0.5353103630479426
P 2.001363982214083 1.033830010383441 10.013117436808342 0.579331248713583 -0.8628689057957656 0.12268841487087258
P 5.80155189157696 1.374371060366046 10.322696111854793 0.5868044171621765 0.02740847391993989 0.6099795697270591
P 1.0383834360922846 2.2247026141029984 3.3733028693328193 1.1993391492109216 0.11750609933898472 -0.8701433279699918
Ni 7.4947731376398465 8.797255264845058 1.8651024879059432 -0.7497282825143281 -0.28925116252719224 -0.182135405283596
Ni 3.12766992926622 3.011635763829143 4.532558140721333 0.052015730945658804 -0.6239285757079835 -0.01989211093823671
Ni 1.4472442693871748 1.6819434684486598 5.438000863678998 -0.8266148085597376 1.2648647417175571 0.5260479639094102
Ni 5.2753230610716955 3.1348174278031316 8.761638276962087 -1.097485154586897 1.9220628781119478 0.013721206240834432
Ni 2.457847209235606 3.0055001376719743 1.5363663090590134 -0.1800175876096448 -0.5689108247112072 -0.22553331265325674
Ni 5.336670123803571 8.820887084331966 0.297384692986565 -1.0466076510107396 1.5347873791194664 1.4290780153050937
Ni 7.650610682960087 0.824572962484622 11.726932125566963 -0.07739123359596994 -0.16970437860909482 -1.3902019070651863
Ni 3.4219960080140157 3.3164577188068196 12.220905224257963 -2.1748532267089447 0.8901917619804346 0.5428982026975295
Ni 2.6629261440900676 4.718701263814877 9.030247159236723 0.6767272075662538 0.8755611565514534 0.3882777150047506
Ni 1.4377050724981426 4.564215947947566 5.433437319246358 0.15121351889375892 -1.1908833051340846 0.8643228646334726
Ni 5.776669029875098 2.001290391495556 2.326333236156424 0.0903922738413282 -1.0037848994182583 0.27605857509631815
Ni 6.55747575228389 8.827620635077164 3.869915115166987 -0.35030457819508704 -0.914971797138592 -0.04156008282997359
Ni 1.9780265256012826 6.1158578504047725 12.43416560724464 -0.10520928424950268 0.939875245248491 1.381385080104505
Ni 9.172181578059295 4.287800010321221 1.4442224505076693 0.35014439846813894 -1.4043131496555878 -0.8055793280456771
Ni 3.434074084692221 5.368084161774683 4.544016215595951 -0.44774501713244824 -0.15569160926977058 0.8651623298156325
Ni 7.231796704984451 4.814884332929359 8.726983487723851 0.6718670512604751 -0.6810615732755497 0.04191540928686329
Ni 0.8982657881333427 8.721438427082859 6.090627272557872 0.057231985039275624 -1.413593289405933 0.783079090060632
Ni 7.879680192054274 3.2767095319625503 10.868368530078808 -0.48377157173870233 0.02467924791423492 -1.163599272607151
Ni 1.7593976996980796 6.262257386073956 7.397388700045416 0.2776349184445025 -0.2599400722679007 -0.6721804687358359
Ni 0.06373692131603109 0.7055252571238743 9.239159250642448 -1.0441018538697502 0.07206725027989523 1.8953218625726778
Ni 6.850109244505569 1.3795408083425509 0.34928822676349225 -0.10799893117949788 0.785548377536731 -0.42361084308840585
Ni 6.447779587479929 6.9023770523392045 7.618216048664605 -0.2963340375159026 0.0279193521180874 -0.40070771323798726
Ni 2.592674604416455 1.1621446269746716 7.497461958518018 0.28823377700627134 0.6150094188414827 -0.5986798284435237
Ni 9.167609754670819 6.8998657690694785 12.303436295201749 -1.2214097558577157 1.2425869041559634 -0.26745952057339745
Ni 8.355922527000233 4.75642570589966 12.560048970472542 -0.43474449110772223 -1.0437678675690991 1.0414253354788516
P 8.10199775272363 5.860442864078004 10.69875664201832 -0.2619653302280456 -0.5462738040379818 -0.8041428527094667
Ni 4.510227957068368 3.8755724016537316 2.8475293813984393 0.10630997351284917 -0.5592283073161207 1.4097122091839722
P 5.045775212307084 5.424822605758818 8.714920129189352 -0.7576531937883597 -0.0644138474996955 -0.6464110730812158
Ni 2.2334323130882363 3.4132387125093313 7.246032829483454 -0.3963257821202078 -0.3461710156426877 -0.318007151613962
P 2.6973941968800412 7.6209352257141685 5.948063653091896 1.542198326871557 -0.34015926223096904 -0.23588071732585184
P 4.291957885917983 5.895913590407904 2.660414860820342 -0.3670442595472711 -0.14516499870683386 -1.819608530899763
P 4.700625543576741 7.280789725843646 12.55730219690353 -1.3320013874650545 -0.6475899238806653 -1.1373434242344154
Ni 5.545106635190816 3.284068603815227 11.572048499935624 0.6707421936274126 -3.034388440145787 0.7021500185147327
Ni 4.302177796953388 1.0913043615528446 12.00293227563363 0.8611377820372716 0.7345186646534254 0.45184181290964115
Ni 4.4359657232350465 3.72228293496248 6.58382030963249 0.06853224054344326 1.1682650535139363 -0.6457564702163524
Ni 2.0194764978114828 1.1924548041678829 13.149612732993885 0.05765158907519749 1.7656883838425397 -0.4570909771237225
Ni 5.907596116974028 5.76793933088986 4.200900410348891 2.1503806954888773 -1.7644375421545742 -0.1497374485688647
Ni 3.1950698285969206 5.430029149094588 0.5932782540389813 0.7608601307614316 4.5251415638631745e-05 1.9751016510054822
Ni 1.299050959953902 4.45586281375672 11.070293182760418 -0.2980677323775576 0.8906411908130274 -1.4405327941092545
Ni 9.064196397461082 6.517580384002566 8.681866857963055 -0.46754791079098834 -0.5812760311447795 -0.10608140244181086
Ni 3.2616694288636428 8.551121907892478 11.047243649833854 -2.0402613755322667 -1.221386101708632 0.641024869068638
Ni 0.42086071983466067 8.37432940547174 3.11472440199338 -1.4255448053408546 -0.5349406384133496 -0.13164253874036683
Ni 3.583049295509841 5.972236364359975 10.951734855677874 1.64447681062751 -0.618507147582096 0.14167112662096248
Ni 6.817664936475082 9.353656289946295 6.186244613023678 -0.23803067378931908 -0.6995863715526145 0.358800274370924
Ni 8.022271408039696 7.422258683371535 5.243212670926523 -0.10410525255204651 -0.35457723742851194 0.24940394862326726
Ni 4.5352396025276525 7.3854725229479685 4.209853641141653 -0.35711465913838497 3.7164254899607285 2.5755218591788807
Ni 2.768041286665736 7.331935275219747 2.798374460958487 -1.8004558692307122 0.31651385489788714 -1.476379885714851
Ni 1.7923479439184387 8.519643478042655 8.435755578226031 -0.4946195701967998 -0.993559107925192 0.536938899790301
Ni 5.843185840583478 5.149528926590007 10.72478107974133 1.476546493199702 2.6105665094878394 -1.760126830594362
Ni 7.109856884385603 3.9268375359474392 2.9474821350694547 -0.14164104471397543 0.554970046260399 -0.11895620152194998
Ni 6.920461971417157 7.6922814273258675 12.590476892815396 0.7783096936964466 -0.274716716356443 0.09487704908555918
Ni 8.527867240838019 5.069526616711597 4.862735777767406 -0.5898905122866679 2.470870247205061 -1.7196844063085996
Ni 2.7700282360659583 9.308306009654178 4.3942894595653765 0.14156134051597555 -0.7921568839921842 0.811399277161564
Ni 9.043167849642058 2.1585721546668846 13.2571582090489 -0.8203644567746518 1.2930975113110055 -0.02884752035931161
Ni 2.528310322224983 8.3626376800658 0.3153279499313534 0.90704225787887 -2.150506422433464 -0.36987273013500166
Ni 1.1344285226095288 6.732005340109928 4.536045420895521 0.2592990962497921 -0.2816090726009021 0.5566741734356992
Ni 5.5032795105481656 8.168063820281034 10.633983931339026 0.6915275058038799 0.11221862568780026 0.09408257820872183
P 1.430842737995522 3.7681115549250235 13.140282349768672 -0.09315492418812989 0.505865061203632 0.20938061415279427
Ni 5.08913854319898 1.105387785310904 4.782399550003682 -0.6446717217926059 0.583854333394917 -1.1691986210717993
P 7.032982180044581 3.6418206830932784 0.7365235075353108 -0.006461182244311452 -0.12590692180817026 -0.33637562681882066
Ni 8.914236910783167 1.2116435840237367 7.141098904052158 -0.4506755605156819 1.1404863407387713 -0.9842388589655306
P 8.223201666137212 8.270566492349001 7.708784145955494 1.6251210318087173 -0.15075303431757262 -0.8397881127169021
P -0.32946288719238176 5.986494566074536 2.7968796494884116 0.46515498507877956 0.44860607958116294 1.122570636800615
P 3.909681699690887 1.3752173536291035 0.7848293750602608 0.6330464788488517 -0.04469991401053592 0.8412040192278222
Ni 0.7597468985343947 6.825971488828791 1.0871934000391432 0.4668740246524153 -0.2537059184327308 0.430897092337174
