# total energy = -340857.90265706944 ev
CRYSTAL
PRIMVEC
9.38239168124795 0.00000000000000 0.00000000000000

0.00000000000000 9.38239168124795 0.00000000000000

0.00000000000000 0.00000000000000 13.73207861219350

PRIMCOORD
 96 1
Ni 7.108081270371429 4.455294427657894 5.891185052631711 0.4945061845473871 -0.7179877568779377 0.24857373941248803
Ni 4.119920832414207 3.5912699658872658 9.723245660166578 -1.3675227203001157 -1.399180713525029 -0.7130653798756559
Ni 6.782399685867334 6.021825476192296 4.114693901936931 0.1988912845856962 0.43404926481291056 -0.5929300704439402
Ni 7.905650250952772 7.968108833231054 3.1108652345250203 -0.020880957214067263 0.09369177052820638 -0.29638365980691533
Ni 4.425833717374913 4.794815040081543 4.497736615249008 0.85005298497802 -1.2162462093789055 1.172266975584478
Ni 8.081222948890808 5.349867957161449 9.871099019741544 0.8552548408939336 0.32245850251709623 0.21933798247582223
Ni 9.280461505244356 5.554385333832925 2.844064726302107 0.18262545754613707 0.24861873371781051 -0.5822522790151199
Ni 5.385943253670387 7.812192246134689 1.9918245486446704 0.6707673904383932 1.421711033417061 0.8564421763338154
Ni 9.093817584970676 3.6067696771571653 0.3566040714310534 -0.2550526622686124 -0.9569496842322746 0.39503431700229386
Ni 8.844546199366137 2.6430760671903224 10.080252236206274 -3.959498868380278e-05 0.49756399753710434 0.35485440234929855
Ni 2.1221562915147105 3.981333522990666 11.52571853026124 -0.12800391354651505 1.6201942839310612 1.2949055110540215
Ni 5.763744024678292 4.094635286486617 7.813498275074622 -0.8597280461739386 0.49981165592070054 0.08543904360111092
Ni 5.296256970359871 8.65914075481136 9.582244261330358 -0.28315276293893815 -0.8889378349686756 0.7834732401752572
Ni 3.35368904047782 3.974540671320322 7.415871571933288 -1.430480294969259 -1.3293238406328913 0.10890678770574791
Ni 2.361294693964594 3.7184013749109597 3.907312081045903 -2.934761277969752 0.08459212221978335 0.5044005608429636
Ni 0.7462069530965891 0.5863300584172788 1.4235218178508695 -1.3649369618508107 -0.7174653087155644 -0.1722849948520775
Ni 7.630661729397387 6.2854706860495515 12.637371520830502 -0.7256807546468212 0.269120196105272 -0.49608767010189403
Ni 5.213720069608472 0.8321036883551002 3.9117058551304638 -0.1926969828495262 0.3483644237495807 -1.4368160073792997
Ni 4.225463357883399 6.058745187964122 1.2047469585851207 0.6361166331337432 -1.1528224937066212 -1.0086543116954179
Ni 3.892050682527974 6.185942273730484 12.564838126226784 -0.8176812535155338 1.0002537463365484 -0.03468469586637898
Ni 9.319041900366528 8.272764477689238 7.493265983733698 -0.45623865642575623 -0.871829457423163 0.36048357561061783
Ni 6.818840895656857 1.1354664392218838 9.603969189566104 -0.7608012524990381 0.6492027768937401 2.3534567075798822
Ni 8.665652134727408 2.428632119984008 5.300582252984219 -0.8079270023422472 0.03680611308475597 -0.557861251765265
Ni 1.9923884303924433 1.9267492172906158 10.355443417424752 2.4864135942562986 -0.4740463740311385 -2.093994860499981
P 8.923583467972454 6.202108134818886 4.832305201275409 -1.59445882683817 3.265875399279318 -0.12306173904989127
P 6.422744460619712 4.082897914332473 9.82835096617743 0.1901500480579564 -1.2854320243459476 -0.7691619657589076
P 1.7369246661933917 3.969127031246029 9.491077436592246 -0.0365186637513242 -1.1291043241540748 -0.7779309702007893
P 1.7821102651497098 4.678051174007751 1.8990092376655636 0.4315416678997084 -1.061099159758695 -0.46137777742453445
P 5.6355711701637015 5.023698488283242 12.979822254216371 0.21925133629928692 0.893005834390462 0.08373003132980418
P 8.596166140983534 5.58571314008607 7.501134057505452 -3.0513088700502093 0.7087292143941473 0.3183223688615356
P 2.0313253564033906 7.869753219888222 5.02838499299227 0.8932686011335454 -0.2696508717977614 1.1255616011081389
P 9.106352460428658 7.224507370340065 11.2728696386596 -0.5292716130530304 0.6585988733966593 -0.6989258551504801
Ni 2.7915711823650833 6.138608107049707 3.2312131742701813 1.229487647769844 -1.581699984510605 0.40967880638834603
Ni 1.8578918437980037 2.3978391100640253 0.6121747948967378 0.3406778537386004 0.3719604659019658 0.08732134822548833
Ni 0.07644772846679428 8.93648425671102 4.682432750982959 0.009489427547673979 -0.6364812155620135 0.003920932320960989
Ni 3.9090515764874523 8.794106460996293 13.384780358317936 0.29315743956013385 -0.6875052720183644 -1.1474262623917142
Ni 2.3087439174375306 5.407973109639954 5.628874957129 1.9240742521150218 1.8674508471940223 0.10255410601484274
Ni 9.173868151892458 3.297094453080703 7.764639469724741 -0.11421174485842911 -0.4440462281246223 -0.3493033906240823
Ni 2.656211415724136 8.423342483845788 9.805212111495937 0.4626129353832162 0.43846719137494816 -0.38979800830401906
Ni 1.152692510584799 5.206364274429537 7.839547547695536 2.573341306587794 -0.21446034266854677 -0.8821822614123968
Ni 7.074736249879162 3.2193801017195773 3.6275479220592963 -2.139685677668876 0.7644213657501286 -0.5574007671890788
Ni 0.6959248389091512 6.803819686369259 9.308742848876838 -0.3385968028398556 1.62056760811008 1.2824212625440816
Ni 7.816395557665509 1.498414883994769 0.3139498417850372 0.5839705472578073 1.6212340380494854 -0.36699078060151635
Ni 2.9661024348122242 5.736675824306826 9.666229803377199 -0.036385737717885724 1.1000295182753055 -0.3853284025684396
Ni 7.7104120597812535 8.144028679666055 9.726239581393106 1.598803734070427 -0.6190115980223403 -0.7840422253048498
Ni 0.5838568599361978 0.0764026929861069 10.669001075232138 -1.02325097856267 -0.7841885210747269 -1.4180448974193838
Ni 7.2209045318850755 6.300426218594479 1.3264788011222368 -0.6949987521819321 -0.413607709129107 0.5107601845124042
Ni 7.428246008491322 0.46494911733385164 5.83756186872078 1.7941450965213361 2.330320635783051 -1.6935069765822832
Ni 0.318189744643916 4.494128147358933 5.521778707576095 -0.1894867034423446 -2.0215270323475574 0.38301158150980485
Ni 3.958018279343147 3.3265833105391147 2.501586783979989 2.221718780912232 0.8247762126891021 -1.7486270574848788
Ni 3.727624266060059 2.2154735604556453 12.510514077647656 -1.9561209961379216 0.3786725878148188 -1.5346655088296215
Ni 9.176842370096187 3.2608878030864274 3.0735964977778676 1.3569966239578115 2.510200926483883 -1.674727381981935
Ni 4.816300717326137 8.406754415125944 7.031661689080064 -0.29255580142039295 -0.16919735706568922 0.2975897642998746
Ni 3.6364086528845343 8.586830661132717 3.598655784719993 -0.90885334294568 0.209390127234491 -0.5049548906845368
Ni 0.5805204814086092 5.650048200726326 13.530574282890637 1.742279003779664 1.1666457727429587 0.2643870522956608
Ni 7.012258902817259 6.920377139823235 6.26130633594324 0.8388172641632007 0.7263466703655942 -0.10087234743704562
P 5.762449254608529 7.8495247831461485 11.739677407810985 -0.8132954657430123 0.30712135793939366 0.27537543298636447
P 9.050818083306057 4.52949976448213 12.024522131962636 -0.03956362122523509 -1.270723000270547 -1.2089239646858794
P 5.841599111916565 2.3947147735913394 5.122957625957365 0.6401684346056137 1.3530175847054051 2.4231947955059687
P 4.368779392779113 5.75885579854535 7.430524053222757 0.12576216870018986 2.9522452936871284 -0.3924770977980789
P 2.6912358843503683 9.025307359975029 1.5859178847311293 1.4812881216497455 1.20692621752956 0.26950380469693586
P 9.240201661988218 7.038135539428872 1.2536526758940512 0.08543827227016254 2.502920076551754 -0.11966145511909068
P 4.226167037269138 1.0939493554632234 9.339900833838223 -1.0861206215036971 0.7515550513104218 -0.5088575681730527
P 6.208591367559503 8.62885439404911 4.92631489073191 -1.9034933426398766 -3.907038850808349 -1.3172381131129507
Ni 2.4842790858083275 7.242690445667587 0.6357330424921321 -2.752838502917595 -1.3594108898262587 -0.9605332878184747
Ni 0.3310820892298539 0.9140288571604946 6.584628248907152 0.8272221031264333 0.6322705199147757 1.828369822032161
Ni 5.554891982990657 2.526537378519967 11.134614465906127 1.0034539984414008 2.6396197181000542 -1.0458820856986246
Ni 2.987475523355101 4.310852505744996 0.07657251427786549 0.49258917003033226 0.5511527293968379 0.30806855234401137
Ni 6.418907062369477 6.756269724676855 8.448386902303866 -1.1411609982082929 -1.4626887613810036 0.09262656248848564
Ni 5.088174284800646 5.359409849632083 10.79334497564912 1.147551732225985 1.5913796736922141 0.560496375395267
Ni 3.611676668073726 2.521001767352146 5.465573489439088 0.19181329469299224 0.44428251250514456 -0.9629760929320125
Ni 5.925271282076957 3.1625321897435947 0.15074501273076707 -0.6616523155110025 -1.4271597152364583 -0.26411631513277745
Ni 0.757054874507157 2.110418919360567 12.164286931558317 -1.8777347456185338 0.2694366989044263 2.036006971131287
Ni 7.601435578909652 9.172573381822698 11.705334100830148 1.071147802243949 -1.235006520705544 0.3096040151519313
Ni 2.0887549766715847 0.9222703501262816 4.896049171231643 -0.7069695513905631 -0.7334025487711111 0.49956277313468805
Ni 4.3471811268328 7.05378536896773 5.157329080113631 0.4348961861942381 -0.17416601392487424 0.9371228793143345
Ni 4.1866671677496 1.429979718133601 0.705234048062901 0.2723764982590406 0.20540723132734298 2.251753379601109
Ni 4.891350469413262 1.7182443240999468 7.061048278467748 -0.6409199680596575 -0.9999321013310716 1.7872010611033349
Ni 5.682989778370769 0.7839635742178549 12.2503872647191 -1.0243462685093778 -2.3267599150149865 2.5206766292042264
Ni 2.7901075292427437 0.46533473363723715 7.589225334208291 -0.10905102659309607 0.39691842139888417 0.08411852501747448
Ni 1.4254292581058157 7.7727205237905785 2.88671614123058 -2.6610853441729976 1.017314558473577 -0.9688554345309249
Ni 0.21101843595653205 8.78377644761363 12.922353227902576 -0.20572836211218762 -0.8727704811801937 1.9486419141520568
Ni 1.7681398837448183 7.084118641689029 11.777866557194688 0.8083147246989691 0.460729088096942 -0.25832207704850346
Ni 2.4537769300344503 7.4240239321768815 7.462341620328377 0.29549508655437495 -0.4724463765338703 -0.5171935988425738
Ni 2.7324245843956834 1.4393058155926086 2.728619086277601 -0.44702896490203015 -0.18476898625170116 0.24976287462458277
Ni 6.966988862334652 2.182607041945682 7.585380430044608 2.544490958015005 1.2406562627921538 -1.216727777001014
Ni 7.056215408446485 8.82951560768673 0.31155920835188317 -0.5450877541496807 -2.677167851557157 0.5155838311532928
Ni 6.8727896485635895 9.230303238628808 7.745716123683421 -0.4220663814194215 -2.3131677781528484 1.3371942445199034
P 5.931716985250335 0.6753417477566656 1.7356524138639737 0.3486999527121285 -0.34745939543680804 -0.37700934117978296
P 2.0336334247886176 0.34235597122858974 12.340415067091497 1.4735434447073203 0.18713234427755512 -0.3456292842066047
P 8.687541254819827 0.9716404958298004 8.59271060607996 1.2296629970054436 -0.6047993110777004 -0.36193316357295086
P 7.3059934432087585 4.087457756752069 1.5322393447085196 0.6645535483181974 -0.7207300955097653 0.6223488899256895
P 0.17783385436421434 1.3943923059987764 3.3486769667729885 1.337443127305916 -3.762645440160217 1.6316056110917967
P 7.628588220807406 1.8905613320799597 11.812526050779516 0.22771309391339495 0.3500071015593262 0.6100302204593365
P 5.365883699980892 5.329170400828883 2.740236363816578 0.0815916448305627 -0.368379690529243 -0.5831387953851311
P 1.5647859236577664 2.712121088519132 6.453802053988733 0.4858048001186472 0.21920068556700958 -0.9428633813425373
