# total energy = -340865.2670832766 ev
CRYSTAL
PRIMVEC
9.28748568600488 0.00000000000000 0.00000000000000

0.00000000000000 9.28748568600488 0.00000000000000

0.00000000000000 0.00000000000000 13.59317409490670

PRIMCOORD
 96 1
Ni 2.685309247489559 5.678340750893618 7.045165126812722 -1.2143394792744957 1.0882173561317259 0.37024811119654943
Ni 3.7037656161047847 8.928421989514703 3.2499512138245725 -1.6888882468633495 0.7785945719267172 0.8606819254467757
Ni 3.9296186876446044 7.632557717542997 11.10656115947571 0.29936819635653605 -1.932630626325465 -0.6929855784066452
Ni 1.7521119954437685 2.087176608567466 0.1814570335196433 0.25601476907156556 0.05681160967240538 0.27207413652727336
Ni 3.483577910698664 5.639584074047839 2.622259294912769 0.1129544754125603 -0.30210616411298935 0.3399988253937048
Ni 8.469211558179278 2.863211031573169 7.134581321876329 1.7478050758042158 1.1586033620544562 0.08332199725810811
Ni 6.409897406007054 7.532856561075361 9.169465672281207 -0.6326122195249105 1.5858901113325528 1.1073453352104283
Ni 5.272338323787639 3.020011648680118 4.8498134600392815 -2.75542888935259 0.44562797078944544 -0.07104266567012281
Ni 6.120945158217479 5.644812928364679 3.4232371176320386 0.5107038773531721 -1.2439511314933416 0.38766090735635816
Ni 7.453160648299508 1.8154619338010807 5.187223163242912 0.18124914602390074 0.49619539932435186 1.1035100206247384
Ni 3.933445131656217 3.0893613026478715 0.37007378958431686 0.012426141578494728 0.1237831905969481 -1.033350271780201
Ni 8.995728396680137 3.3727689216147922 1.2724449486229594 -0.15522341138410042 -0.08764453589286196 0.32080939694944755
Ni 1.9179679108791703 1.4984614799069644 7.370789939709713 1.5957847447384452 -0.02058785145368067 -3.0758883591617865
Ni 9.14765308391792 5.772924502869995 12.690546449287865 0.0914022031630813 1.2434605650101682 -1.889976281990048
Ni 6.051511916880539 9.508527619149074 0.5230135989834315 -0.497673269421459 0.3170198480000282 1.716151967675309
Ni 0.1793283418510469 3.4531799707714566 3.7752996866539252 -1.5744803268337142 0.03621810179176988 -1.2194454330424935
Ni 8.019585811843818 6.986826715612367 4.440373734562677 0.15160406946395827 -1.7904877022744066 -0.8479043140661332
Ni 4.732828293121132 5.526889725414557 5.694873403770008 0.5732711585624319 -0.9904634997190037 -0.4370667114829957
Ni 6.428425939509888 8.346969674487893 12.16207088010242 0.5322792895311027 -1.3962766525043564 -1.1877316468789803
Ni 4.037121331902907 6.811869064421188 8.748199262813369 -0.9635399358552825 -1.5584425566445612 0.09793434785464424
Ni 1.313659094122799 3.963313684911915 8.144485773875308 -0.8559282128118741 -0.6413747962088889 -0.5227883193215319
Ni 9.092030333467555 0.9575954763625557 0.9479810714091047 -1.4123532463512452 0.09061390293383104 0.2924208185044254
Ni 2.972766210119255 5.512456973001822 13.551007830165332 0.22691373794055114 -1.0215746193015116 -1.1375377996334086
Ni 2.090464378422104 3.533600307413586 2.1183463385368215 0.7045647986038124 0.5113484529157064 1.095387905738236
P 4.620106082031454 1.3346766737302755 12.727532931404 1.244846132503785 0.29763810103930677 0.1516164107591324
P 1.754916816054223 1.4574572315786354 2.375909671700064 -0.43013193203637534 -1.3064327949673307 0.03986778272921521
P 8.815606903570373 9.171196859571898 12.489910758282832 -0.5764405574293492 -0.10743740224907303 0.2627775417166958
P 7.1362809317164375 3.3729453838386294 10.99352038763458 -2.638300227957682 -0.6949259899624677 -2.985949370807793
P 7.52744195704922 -0.009289342962173182 8.707338970509747 -1.081512947528357 0.8740627176290559 0.03973408536482834
P 1.99498902784108 6.2275840663275295 10.524637040187276 0.3276575302195325 -1.7082692224931224 -0.31021388082178836
P 4.131147834751379 8.754746011317703 9.314096897183262 0.9356792048892725 2.4151215315795307 0.07649366148236503
P 4.32645436659655 0.8388642621769709 5.683047648527321 0.30389205236881855 0.18224647694016355 -0.1531647290828588
Ni 3.0148013693342075 1.8483024824056038 4.22025940029173 0.47907390915271675 1.6951398842000163 -1.2427280577195177
Ni 0.6099481779307679 7.617344816351196 5.593020336920113 0.4003719271651234 -0.24175260272559654 0.13965923839725625
Ni 6.020324540688801 0.7717928283938014 7.123571007857476 0.0700201379428794 -0.03831355086821789 0.5345796555295051
Ni 0.03391139567864721 0.9114988997537232 8.302996217056378 -0.36052214215803713 -0.24769596479322503 0.5009997626915307
Ni 8.83779470634645 1.251897315780016 3.506699105763981 2.0240228021862174 -0.6705899843202644 -0.9053111341203763
Ni 8.384630428048794 3.4850453334021467 12.440608141691452 1.7776147029664806 -0.5187329183052356 2.8877268022887685
Ni 3.2636131049437056 4.38965570518642 9.30811575654375 -1.1529178816339047 1.2166347030665754 0.4218972028314089
Ni 4.834006159777716 3.075197887313624 10.16876753087325 2.464242457475898 0.49595782939224914 1.0143924997307754
Ni 3.577140039273882 0.553249007915 1.0444427529465203 -0.33618202275077586 -0.07447148884601368 -0.4614813928819343
Ni 4.434727872148454 7.7772103036616205 6.684524636215287 0.5172681608342511 1.3903194064796571 -1.3676196508892962
Ni 7.189024561672629 5.567791811402769 8.554442812292319 -0.2778460060140441 -2.490043991920034 0.05699852887223087
Ni 7.664339492804501 5.3849119351098755 0.8460295572132801 0.2350163124430275 0.23512507010674988 1.5694383935344327
Ni 2.3319018505723283 9.310054054760311 5.34418352509986 -0.8427322829468905 -0.5343024906087185 0.6317969227124667
Ni 6.937705204987559 3.0371006219358656 8.869750157586152 -0.8614170038405874 -0.1896067739599767 -0.012216596670849927
Ni 2.8457226964424236 6.863173134130291 5.00677382189623 0.17819647524050602 0.37335040427095706 -1.3096291904174413
Ni 7.080063782196308 1.398565286244562 12.364147060103086 -0.9649095625092995 0.24529404021995174 0.7744676942425371
Ni 1.9426819097017485 -0.17914352089029179 9.53490500661845 1.7768773105798237 2.909707420324918 0.5597672105387262
Ni 1.190497749370371 8.321902751217642 3.2496660880207946 -0.5753894904570156 0.28420357280095565 -0.10426903182342041
Ni 1.1267670241089909 1.1491777265362293 11.747016869662172 -1.2685347343699764 0.2610317626701827 -1.4190378574602722
Ni 8.13734184005557 1.35258294570695 10.462937487997108 0.9492554009118103 0.5217963877219078 -1.49346589466286
Ni 5.205839927857665 7.523959149999815 2.5465040622197495 0.855843623517868 -0.04740677141873771 -0.7861600429788009
Ni 8.611235785911285 7.583213307267025 7.572485332806312 -0.6428755491241315 0.13554778733204398 0.2417263774733514
Ni 8.955216385081458 8.40738476743824 10.314731509939545 -2.340651328285098 -0.21950381862972518 -0.47187816273522604
Ni 6.567682496573299 3.016110904784784 0.4590321116144942 -0.5367180420287466 0.12482243049473987 1.1523699795502347
P 9.132235858045886 5.251905855764464 7.168658963544801 -0.4606187877713228 0.6603881040865982 0.2588324410260187
P 6.428723139044771 2.952380179523404 6.534905102869939 -0.9257156659186573 0.7083006114971607 2.622714971924915
P 7.14577274186175 1.3531123323784595 2.066638263209988 0.5199541923068465 1.339456558191519 -0.5825137602066226
P 3.1439995796389377 4.378176373151581 4.55448813972357 0.12158335473215189 0.10327041535557697 0.1731676545673469
P 2.3047080931305737 7.9498460834865305 7.00753966569659 -0.740728393008563 -0.7560082019857689 0.7195658999983349
P 1.1174423887020504 4.074438448501599 13.183992409544667 0.8943150401201888 -0.22806739192902012 0.5802735580221943
P 8.451648923164813 5.4758735677548716 3.0066469570958674 -0.15882372714084905 -1.5644278276937187 -0.6560498817225604
P 2.4068982957028506 7.3490479362359595 1.751290052980109 1.133587813846725 -0.14164515847903347 -0.2385232971550215
Ni 3.0718636800316603 0.008000239979620056 12.145650605800158 0.6479113117758262 1.957763673947667 1.258270119219175
Ni 7.919838217948857 8.60322068595492 2.4870075015818993 -1.6183042659972 0.06923697991995172 2.3290996188917568
Ni 6.620658313666118 6.7251889625755945 6.707605895093105 -0.5597754380688424 0.7062678973378481 -1.4253851398345387
Ni 6.9888328124728245 3.2129312967607633 3.482366822594018 0.865978912179657 0.8422468586700398 -3.1655951769003163
Ni 5.179435606680443 5.620451853989774 10.421845937305408 4.4190758451506476 2.6904355152003405 -4.133150404562579
Ni 1.3728296640208248 7.898458426408242 11.624950519446077 0.06066132243579876 -0.9794098130080037 1.404183308945943
Ni 1.4231399727851641 8.71316593889054 0.348305781151262 1.1689633651325417 -0.3748437009870318 -0.11151362920097571
Ni 4.232186389125986 7.473407366613383 13.472044699992676 0.18564161866464157 1.0953411116607008 1.0269348551721602
Ni 7.54193972186021 4.663757263717331 5.68442033887906 0.10122793100425148 0.24529661132311303 -0.6929932917161291
Ni 1.1380513189490633 7.270995908387427 8.864869583974253 1.1181766214979776 -1.6390674666864804 -1.6608557662061654
Ni 5.246259064601694 5.40453639189759 0.8792880426637322 -0.1211588656002236 -0.3086467934449846 0.37706744811122805
Ni 6.416537958114586 4.981779341012606 12.41744608169009 -0.007844178634767135 0.2904361839742288 -0.896012996647902
Ni 7.809753652731262 8.939446234761752 5.4318731766155075 0.18444168481926945 0.06150284450048763 0.940791072194541
Ni 3.508477659230544 3.5726170338523877 6.980462001823148 1.163291511558745 -1.5991924848684136 -0.7834426440476379
Ni 0.9762168847200413 3.699465510334453 11.073406693862466 0.8020744002162122 0.1163521882401996 -1.4744538723367315
Ni 8.58647534966138 7.750490207978584 0.6949825373519488 0.3638434932217863 -1.4154259717392979 -2.654178332640519
Ni 1.4791156476832024 3.2353977241007916 5.532598742729941 0.5146618335596556 0.7062930941488288 1.6991981134297895
Ni 4.050476736001692 1.5679225837002988 8.571067411274813 -1.0802430796769977 -0.28226984611335254 -0.8409335391752549
Ni 3.0994010744356233 2.5984805458765243 11.652707098507017 -0.0016496197882810298 0.21856716574806875 -0.1251427899486361
Ni 1.0874159481934462 5.516710641344829 1.241665293043137 -1.6659249531989566 1.232830596100148 1.5928649999884892
Ni 5.655827886126264 0.9342838878452044 10.074649081918677 1.2123047082326541 -1.545397807645461 0.5173149549117865
Ni 1.209955031419714 5.453648615036934 3.9140454320167577 0.5072799392732876 1.4751755809941045 -0.29685262902353393
Ni 9.25602875180994 5.369262522101216 9.503843940229036 -0.20181848553482018 0.011930689999314936 1.363004520714788
Ni 5.972976939787823 0.7112904330800831 3.7269629685509154 -1.1438298032897074 -1.0564984277618903 0.4587506242143325
P 1.9901409604283082 2.1894689734798587 9.276294045094746 0.08220228183136812 0.640881144401922 2.898252641520757
P 6.350866148391003 7.326098559651746 0.6711666383738438 0.40269620442292586 -0.6937227136829859 -0.2824408244735781
P 4.946784095780184 3.542887792878666 2.0859952404163074 1.1375596540102795 1.115960073462633 1.9552702181018518
P 5.99706867708424 7.746756638821623 4.741992255029527 -0.7624233614834934 -0.46019558419097517 -0.29431392176208027
P 7.551868043822381 6.631598971543982 11.009818067128702 -0.37084537846091614 -1.0568889783320894 -0.46717330106038896
P 5.025170473105461 4.900913205068153 7.963425315985025 0.3614189429406937 0.5642820676899443 0.0929903735858076
P 4.149518481001308 4.739766044763547 11.650152111255574 -3.463665737491351 -3.085009347626448 5.096384379141668
P 0.23703520403977602 1.46320618508152 5.832463785940985 0.4158466257619548 -1.1808560028050696 -0.5484211893982877
