# total energy = -340894.73325043736 ev
CRYSTAL
PRIMVEC
9.02598733051442 0.00000000000000 0.00000000000000
0.00000000000000 9.02598733051442 0.00000000000000
0.00000000000000 0.00000000000000 13.21044481899463
PRIMCOORD
 96 1
Ni 6.4557471248385205 2.038681689493075 11.434142318017082 0.13260130310921034 -0.2205029493182009 -0.03430314415724415
Ni 4.424268173175574 0.4429142206293706 5.908754245162519 0.9752379410185011 -1.0559713516138265 0.5886730949397991
Ni 2.612030451956014 1.4714074164532895 4.8191966351582085 -0.3298617369597029 0.34374672247191124 -1.055564345983395
Ni 3.2276027828015863 4.43115500145175 5.054368733108083 1.0929898378197047 0.5307754512920665 -1.3591062141016463
Ni 5.019550084670108 4.48445345619725 2.8004425203284895 1.0521962008421104 0.6980987312634945 -0.31372857884326616
Ni 7.08256583580482 6.1924229726378055 2.450458059287386 0.3706263204715746 -2.2189286197616043 0.3797671064305782
Ni 4.915444347661708 4.774954856025179 11.288073863657743 -0.12955017498771237 -0.6458659992110232 0.5352540558887106
Ni 5.50557242043318 7.876392388965191 12.287906842148319 0.9873365240542481 0.6483581695052576 -0.10518228766630919
Ni 1.977115430421262 6.425049742181544 0.5708431484007289 -0.6397909966615368 0.4836278470719864 -0.5820213939512363
Ni 2.792261365479832 1.490452249563028 0.4041539235567879 0.18136330300426184 -0.16375561722482765 0.4790479410107879
Ni 0.5492340323116177 8.769234022321688 4.849025717841177 -0.6285033395628595 1.1300060100327378 -0.7708632647207305
Ni 8.470031570779168 2.4206975741075616 1.117598644611904 0.5341693074649639 -0.22653578577584213 1.424471626881334
Ni 6.768587843124555 0.6873451763062441 4.811679792971578 0.18577428758776396 0.29486079540448573 -0.10585771646677897
Ni 0.5999727170713728 7.556087179218609 2.722764874005073 2.9677721856781343 -1.3957441770396541 -0.7141778962135442
Ni 7.4098120297511105 3.7592966140790076 3.791635823817814 0.6057737591758277 0.7598807975672978 -0.721403724538022
Ni 7.617527074468841 3.935763690917157 12.583595476852157 0.9161568185856286 0.02611726591234212 -0.4107118756385507
Ni 7.992421455138501 8.91257572593105 6.7798910869649935 -0.5027020900946181 0.626852691333314 0.7566352940468066
Ni 6.862412980648598 0.7886311948959315 0.37049601707990903 -0.6189594046281662 -1.2570215915240543 -0.260390529541758
Ni 1.9234830141472972 6.559798705923385 9.222673446690047 0.12950235246891245 -0.42095489352279764 -0.8001926098124671
Ni 0.28594598405992644 4.706962094027236 1.2112396519959283 -0.7646483941592702 0.8722842855723945 1.0807801831273904
Ni 6.2647752864803 1.9449738898033577 6.979658749903991 1.4060897819400364 0.3557301200860325 -0.11534637268350456
Ni 3.5525654019721604 4.541145682150931 0.560625730827163 -0.1568750880549105 -0.7089017354162694 -0.0397705950297186
Ni 6.05450588736918 5.535953893536203 4.916227803355512 -0.796813408927589 0.7389358198845145 0.20559337919622012
Ni 5.299445949472471 2.9122799180202072 9.412177659520475 -0.24413010181883762 0.05128322365500845 -0.5852753821121598
P 0.18861605568445636 5.732503792018508 12.451821478509826 0.4482872627891634 -1.4906528506940973 -0.22769483908094978
P 3.9711094570108707 6.3055366449274945 12.512430982932525 -0.4065189206031257 -0.08913243329229811 0.3432232458682734
P 2.3271973721247274 8.375195522682475 1.4942332356244825 0.564607569350163 0.7121914619111347 0.0012734673957849037
P 6.354619963624535 7.789408949781044 5.878621889307754 -0.43471209520789006 -0.5303769303020673 -0.5063175753600184
P 4.680732575061881 1.0805731422898859 12.443420089572127 0.8806858793725285 -0.9063138643532778 0.4926395636522935
P 4.008197238644954 6.139205751777609 8.041289955338854 -0.4849928457403131 -0.620414391907138 1.2247938418386004
P 4.72764965681753 1.2023337103706302 3.8214649065007826 0.08953018295134904 -0.8764386740604003 -0.3719959471255916
P 0.0732395683897394 5.498351630628539 3.3815834175893604 1.1131287746614247 -0.5144250349585011 -0.4748788972347628
Ni 1.5246246373134875 1.1882441442643261 2.4931148750582977 -0.27567959449034457 -0.6229682686772433 0.26483468135604066
Ni 1.7334498784636803 6.616815867418275 4.72108234849021 0.39938925153687993 -0.8525297286532866 -0.11859804685158284
Ni 6.043882300369103 5.683871772684257 9.293138426597354 0.02526211700089843 0.0733620578319188 -1.0070208898570527
Ni 8.776418708177305 2.1058621126379955 10.114959981830314 0.2861972061922168 1.2471020184174975 0.5519153185944753
Ni 2.232641129632965 5.13705941275337 6.997347879727908 -0.8366696216925784 0.29718738665513333 0.8726681512743745
Ni 0.6372193560811579 9.118593885044689 8.951595068837875 0.1430536087907859 -0.2750740996958618 1.1096163906327923
Ni 1.576812895626524 0.9178797220040877 11.519375618272328 -0.592411993156941 1.009588393473913 -0.590886300541034
Ni 4.143054514233864 6.82572234245377 1.6736445895054741 -0.2103972283427667 -0.07861790691421945 0.31524141594336674
Ni 5.556524118492172 7.747149277449387 7.966082721727351 -0.30294202975072343 0.9517671115900705 -0.10877129056914815
Ni 5.238701055240936 3.076417496266933 4.915883913241066 -0.3737540674672789 -0.7102919308955767 -0.4304967715749618
Ni 0.5449918183013915 7.298765308543001 6.935047807892198 1.7469864365576622 -0.575290502985306 -0.03651737819974356
Ni 5.2220751867157515 4.479642604989908 7.2365762563505385 -0.04759703305267286 -0.08037988391064867 0.04058614895247849
Ni 8.487532960068163 7.115943936676769 9.178604063913603 0.5866200690655122 -0.5260896157806231 0.24145306920730675
Ni 4.6164675458005835 0.3618003809576712 10.211158954002633 0.923197527482494 -0.7850912353946544 0.6371712996505027
Ni 8.00284647041895 6.914628316923402 4.546031449052495 -0.18377885442428993 1.327564177629307 1.1113606270174086
Ni 7.450735855968909 6.197441421552031 7.122160134099838 -0.7752282265576456 -0.851810848209391 -0.7395482566575328
Ni 2.3639963221666247 4.977813919599288 2.769727988295727 -0.16015658701965965 0.8823486117869319 -0.1272292401640196
Ni 2.411680612839018 5.118402697095631 11.496508279559759 -1.146036066912407 0.5161008799990273 0.41043779604155767
Ni 0.8869269039077721 3.1974559853672138 3.655475195669166 0.28573106518907565 1.0110472374076265 -0.6687452178020418
Ni 3.7368760617356003 2.6444879021278718 2.5085845146160137 -0.4155692037308521 -0.7142979667311763 0.4523439493570403
Ni 1.208994888965411 3.136295895721912 8.168017524206466 -0.3829002527429212 0.5780570099868496 0.30759726913454766
Ni 3.553711702353647 2.759280408047138 6.755676168355133 0.0966030306377304 -0.5114824073904094 1.3324320472445697
Ni 3.8613534519803405 6.841030416839607 6.020210746192041 1.1279614687988833 0.2909753443071505 -0.40570953732795284
Ni 1.063775780006842 7.345303298833908 11.402793259080237 -0.2716468191818676 0.4214688570447386 0.21517793756086165
P 0.2936812551381472 5.292351523489413 8.141808765011799 0.7703037926728346 1.1918068453896185 -0.7011858548292506
P 8.438350355511309 1.7884542448005265 7.929318070437025 -0.5450263047841258 -0.5932252330868557 -0.22353145173187955
P 1.718150830065099 3.2231168671354538 10.542053451997718 0.4253993024473964 -0.2911617492863437 -1.1829668785004852
P 4.0372789695831415 6.1377615938166805 3.8733553072343776 -0.23494586421640828 0.34414601479285895 -0.48120098279804874
P 6.797741781960789 4.10353874202797 10.537324737274403 1.1592373960940294 -0.9346888159515451 -0.2552714631476378
P 6.675538940504511 7.688317892516082 9.960728424596828 -1.9825205691773726 1.4576326870143348 0.9934377518559794
P 2.4058588510590266 8.433458270418665 5.822450462818734 -0.7611972023858762 0.47360697250087463 0.06513298505390717
P 6.855535178359678 3.962634054977674 1.475659559049497 0.1364949817366617 -0.1481220244526288 1.016238551800579
Ni 5.239513394093958 2.819465691068814 0.5506827032661736 0.006577396107201575 -0.316039743474946 -0.39409714990000516
Ni 1.263836787531653 1.018095258505237 6.943000605263284 0.5498026431268467 0.8080858965176148 -1.0451043269923355
Ni 6.8787409915943405 0.8022306498942456 9.202554521096868 -0.23138257234518214 -0.661481337150777 -0.42471024680017183
Ni 2.9363341740569147 1.7118597169478063 9.394356750282622 -1.2275099552181827 0.7198224960938313 -0.490977088348206
Ni 6.540374781348904 1.841202114323423 2.6717599226212716 -1.1498940072059163 0.32444802214329926 -1.1894355169439643
Ni 4.153172645947616 6.8935797146428754 10.222307853460997 -0.0005684709089603113 0.5607781683017439 0.15279320467605298
Ni 8.175558736558687 7.211520115728438 13.5426869540675 -0.889162806495288 -0.3031060661324135 0.16740658371385364
Ni 7.616452981985401 3.96642496962511 8.319369791505352 -0.16110558119649027 -0.9778614946842772 -0.12247604174975035
Ni 3.1455655846336184 8.42093922609487 12.472138975822633 0.24960423755953137 -0.969423391219253 0.06013733161152869
Ni 9.1046036047982 4.823686161219244 10.322536026344304 -0.2862046623913845 -0.412835863960089 0.5541015276125166
Ni 8.682584544666007 2.2107079806013705 5.4746854920438315 -0.5582880548900384 0.02111158516763461 1.160388478979337
Ni 3.586530192015736 2.738457455448007 11.644623827828713 0.17271822573475415 0.6531270516488107 -0.41997221789455413
Ni 1.2248716005483633 3.1811008964597036 12.716624990021767 -0.7530468053645999 0.06062944075659881 -1.070318621474434
Ni 2.9850654792509794 8.71597167152521 7.960376492584234 0.7436908180709967 -1.0372539777099814 0.0721217576669145
Ni 5.601924834388846 7.923932263841489 3.650798831671936 -0.2662811839945801 -0.6162916279880161 0.3281002741839059
Ni 3.2069964538965943 8.424098321634402 3.5870979266141263 -0.3686920795633392 -0.4413907927796463 0.11952775775470383
Ni 3.356493880814413 4.479886306645815 9.427699649804275 0.19069820725194256 -0.6220712107842705 -1.184286368642857
Ni 7.1917802816000025 6.164144554565384 11.471514418249724 0.4570115300360387 0.14623946271793525 -0.28950184508541754
Ni 0.41655653264498294 9.053155477440137 0.5086947131509167 0.9095704236173624 0.48774906832921167 -0.03940112750544182
Ni 4.678385818375372 0.22415678310289514 1.606997602207371 -0.3044381546802757 0.6814004446722072 -0.2018195139760847
Ni 5.882768427853069 5.492746492542688 0.3042470758197869 -0.14914969438619474 0.9358630387653044 0.22714128057032493
Ni 8.227674786973678 8.869043389396326 11.222695930167804 -0.8309103506112981 -1.3929894971126524 -0.5652020084010524
Ni 0.012857518845887357 4.861938295209325 5.4731267040447555 -0.06768711893432859 -0.5922790671235025 1.10288164301212
Ni 7.7899685609909035 8.529783606412565 2.513630944090732 -2.1074237323113767 2.4367645637706032 -0.017951185161781985
P 8.528853929725217 1.4940536184780921 3.3664305901843234 -0.18385084531280593 -0.8562943379020415 0.4305404803287037
P 1.9088699407801568 3.2401128011381255 1.5257664247013463 0.05321669323229545 -0.6841597525848991 0.4728040169836051
P 4.620520214078437 1.197920002602544 8.049982883664915 0.045708557780708384 -0.07879171348792237 0.8373360516319838
P 8.576935363836865 1.5295438003678985 12.33730065480696 -0.42003186748789595 1.3826688319129348 0.5195538715446342
P 6.181284904364149 7.652872840562555 1.2490368762283173 0.04031592601022734 0.9321382816155496 -0.5151315741072224
P 1.6708005009211713 3.171370882197951 5.767363057399134 -0.9358183015702979 0.04848303520205199 1.0452115419941612
P 6.965923002498114 3.8061324619493546 6.003249110940941 0.5505415781754002 0.8985108233690913 0.14542545145707214
P 2.515768297872905 8.479553987334036 10.176612890379783 -0.187759950559225 0.4109980394204019 -0.2424221179887954
