# total energy = -381170.20254720835 ev
CRYSTAL
PRIMVEC
9.22341391181916 0.00000000000000 0.00000000000000

0.00000000000000 9.22341391181916 0.00000000000000

0.00000000000000 0.00000000000000 13.49939857691022

PRIMCOORD
 96 1
Ni 0.3635629890328558 8.433253114751356 8.196025068494553 0.3446175551126388 -1.3861632182194386 1.3509324200416024
Ni 0.6588413567308229 5.961922411953799 1.1372100213559238 -0.9075701053578822 0.34795484701598783 0.5987973278579946
Ni 1.1438508792537976 4.044162555426516 10.719345387560091 0.6980000009021011 -0.194760036026142 0.8507006458643477
Ni 0.7340675192517393 2.4476726465363807 3.2427447466524644 -0.026066872290380915 -0.28828159952507126 0.323359674175127
Ni 7.330916820773016 2.190772903439877 8.735838270819732 -1.7213522809293256 1.464035505216885 1.6321841093030858
Ni 8.085871682796318 7.830835069276718 1.488092661169339 0.22048340893417512 -1.0648156893783338 -0.42265105027829786
Ni 2.053676081503768 7.282392441049802 4.18236987637777 -1.1912275758473807 -1.0333374162643945 -0.1686815937715353
Ni 6.898587748207676 6.41439542014269 12.880464093461836 1.4208612838222563 0.3529648986360695 1.1088975101888967
Ni 0.041178853015066644 6.107145061401056 7.792000808036151 -0.12154967328073905 -0.4406477439660347 -0.8351408437528779
Ni 4.319961073290719 0.5275368386278597 1.5940226457128006 1.1000459733355379 -1.923728695850145 -1.3562530609235675
Ni 1.1586360114903143 3.327807679934607 13.667060798685759 0.2863411879692488 -0.17836565382851863 -1.4665379599237647
Ni 7.835705031735159 3.576563148692468 6.781894962162785 -0.4045103748135291 0.9655232848338985 0.03215473035567366
Ni 6.531182285007801 6.206093844079377 7.0727267220933 -0.5718593658165699 -1.7690884106630242 -0.6100554172703171
Ni 0.2984991837784359 1.1057489570647459 9.481410154038164 -0.0177030737067179 2.3324387105673186 -0.0646529600936951
Ni 1.2363063786541981 6.79378209779998 12.507503368162116 -0.40799267693517477 1.0657083763959323 0.7309880257923476
Ni 2.5341329270012007 2.382195632346093 9.689895276035044 0.8483987372040485 0.3774029770737758 0.2243776017822587
Ni 2.02940005652154 1.1076858739516258 7.879760667497929 -1.0919302862069389 -0.5609987689529822 -1.3352713164655776
Ni 8.572591226227996 1.9359668752639527 5.20450397611866 -0.8884968907765151 -1.2672396697076371 -1.4467152687708829
Ni 3.504131680536907 7.833343837815915 0.06567623992722384 -0.5675285996516999 -1.4441791326125901 0.15410318173672813
Ni 4.842080078683565 1.3762347886106503 4.11179508140949 1.3962856513654212 -0.3437045563800661 -1.1016194884702448
Ni 9.065149190561554 4.887118008010395 12.455003697113922 -0.01609484867933357 0.5626573876023278 -0.2180334047317858
Ni 7.112690851517881 0.028860983955885194 4.960947745690009 0.5020991664032965 1.0302101834893225 -0.8341404275128214
Ni 8.448278055745295 1.9320561478352047 13.064636296821497 1.324343099588848 1.9822467466906957 -0.6857085851292578
Ni 8.575413590834593 3.813927701472726 1.406421177121986 0.24780240846410226 -1.4281333920036372 1.0423401339836371
P -0.12290844456902601 6.214182777935537 3.2790711616952097 0.17338825521858525 0.2715799704996742 -0.27446037737126283
Ni 4.514759571628356 3.3715082142681156 5.669436893938437 -0.06889193787570717 -0.639427442674531 -1.114962485436054
P 4.863026451303109 2.1476257739311904 10.228021515985887 -0.4507151555043657 0.6908924433230423 -0.8734135140808313
Ni 7.31428700578709 5.852385150293867 10.602751292042294 0.8540726476603743 0.057838508275022966 0.501815830834923
P 8.259022829069634 2.995109922664869 11.11925231612181 0.5620248962246515 0.2305942721159319 -0.3708698039409484
P 5.023513850501729 5.946574651478712 2.886981076284112 0.5288725778423988 0.6496624901389779 -0.28305454679817704
P 8.482598378298057 7.459620336199312 11.721014576879034 0.006021266493415437 -0.7546282909191069 0.6533304259088685
Ni 1.9259410245209125 8.053737309301606 6.492414432346212 -0.35456463902302165 0.24515288665639715 -0.7472538528319066
Ni 6.228331494623508 8.694616990101428 7.876831311291868 0.10198614932651466 -0.11910069751961423 -0.022731380159244724
Ni 5.427739181379817 7.285556071965039 0.9370914579689914 1.2923745171020515 1.0389984712049138 1.8153307294600156
Ni 5.122259718077616 6.47786173013612 11.55174556545185 -1.3788571714763285 -0.49922030219360475 -0.42989821875901446
Ni 0.7442520127112286 8.628522007190089 10.827746324646387 -0.22819877530056182 0.3537519133137391 0.6605747661761074
Ni 6.438966594364824 8.913442481250122 2.6884185027963063 -0.8687158514948458 1.0512538915334992 0.018545109992039028
Ni 3.437418728904515 0.9168515988424711 5.7628663858305265 -0.2916751985876525 -0.6568695494103785 1.976295157092951
Ni 5.218063316668195 6.512394191205066 9.009430548115642 -0.8660419042071085 1.0163604220904237 0.8119451223627049
Ni 9.074169689206167 8.66641179086296 3.47355698630682 0.21962080382356372 -2.1195793938373044 0.30334132207167114
Ni 5.902228478182909 4.3178396881289 9.613731092336051 -0.22541375635625693 -1.350112238133152 -1.856316170733442
Ni 7.239724929055961 5.587470260651179 1.6001110211272265 -0.971742783381049 0.2416980953385773 0.9566306103299589
Ni 2.546104918044868 6.708779116707193 8.498209006064934 0.2428689757182269 1.2439092225118125 0.022440845502019417
Ni 7.052139140268517 6.909720408600362 3.705125545888434 -0.2970164082949078 -0.35476698484181485 0.6517646240836453
Ni 6.0067205325232065 1.6509541670664492 6.6031092324313985 1.0576569668463658 -0.7846171239717132 -1.1296738235042998
Ni 1.1848766236006631 1.6772224494180394 11.614153027547118 -1.5744666999869594 1.063908347072716 -0.10386151197235662
Ni 0.6912404422000753 6.465880515678707 10.090287356159857 -0.6314017441565771 -1.1424923154252065 0.2915327594725173
Ni 1.8547270469799615 8.593556045675033 1.912055175124733 0.0313340342265912 -2.3248071621639896 0.10020283217384678
Ni 4.37521854504928 2.401389556353698 7.926589783774437 0.061427254067545824 -0.932195102995414 2.870669589696166
Ni 3.4681695903371703 2.209625561138841 11.998818264891845 0.5934394059801908 1.011859706006593 0.599494096814703
Ni 7.4668976096457325 3.8869771383493394 3.7745529481865816 0.7869784251150382 -0.5022608887921415 -0.3401597764516012
Ni 6.097432806725414 2.9481442998649054 1.2010480349233612 -0.2588499245275155 -1.1601473095028083 0.9089279049373573
Ni 3.8604782706540726 4.892237002640006 7.721439848188491 1.26258725853729 -0.16949431948081778 0.2927362928623152
Ni 8.334830066656615 0.8755583754969412 7.345643845502926 -0.05074843419746098 -0.9981120174031972 -1.5694779885231163
Ni 4.191229887623183 8.085788672072596 3.6058244288049752 0.4351178152867409 -0.25980508935193325 -0.07620441237672038
Ni 4.153395444432796 6.890332792904069 6.402913192368991 0.16829258586323276 0.5467368597173294 -0.5945213261904599
P 4.776888990319435 0.3849594642432557 12.783673589600323 0.05912843073104009 -0.5864436913886482 0.8098671567877536
Ni 2.559958485492933 9.344701637820807 12.402342616325157 0.3375915015037928 -1.3387865287076879 -2.6938841358705736
P 5.786797455138615 3.9358335609674477 7.273759325782565 0.9768649350989627 0.6250056108222461 0.842133215910311
Ni 0.5514383930119577 3.81781998207398 5.280182085913182 1.9507013677842469 -0.2979726015605901 -0.6124149186414292
P 6.7495742757103825 1.8889366885677594 3.125772491171038 0.422773177678459 0.1778717449112356 -0.36586283764466027
P 5.283448096721011 8.613358714989944 5.5440408946818325 -2.0821700999509107 -0.10023934183873705 1.0246663708529578
P 7.393728268390407 7.009526968757158 8.852473871699392 0.8743630224782941 1.1935896483216542 -0.628156240636086
Ni 3.8171282260429513 8.988622526702304 7.823684156598633 1.7233346014666775 -1.1983693290984845 -0.4039089937841044
Ni 7.046955581742676 4.210248566769594 13.137655296432746 0.5327091779796695 -1.1996371400673147 -0.7510050923442227
Ni 5.765592826934153 5.131077301619792 5.0014726586704095 0.97665924684606 1.287488392654344 0.43634628837720335
Ni 6.597987470777663 8.485310061939689 11.829589836485146 -0.5992956076506518 0.3961581461940919 1.598935374552285
Ni 8.346802057700282 5.469696490515133 5.419859619015714 -0.3885168275987502 1.9532297906330551 -0.715017361395704
Ni 1.753038910418767 1.067204311015836 0.6206305982595559 -0.22000338397396305 2.7726498812165667 1.0157109614318829
Ni 4.926400527159069 5.076668383925961 0.5048251046171308 -0.18530249015766795 -0.8195442748662015 0.2208341074053745
Ni 2.8941596592034387 7.160495804968827 10.978953124932728 0.9609978861597193 0.12186720452115787 -0.7146360667968854
Ni 2.0331816561578293 0.466645705752604 3.900637936450091 0.17131877428406625 0.6233169102659136 0.6202033043375963
Ni 8.036904579213246 7.7067155904827045 6.373444385447175 1.073379519787945 0.09938856380266754 -0.06166430977901639
Ni 2.9972958717229194 6.215206576861459 1.8713402598211428 0.7584913734189389 0.24712697966363248 0.21791436265541825
Ni 3.0285540209116624 5.3477076202966884 12.50184664851105 0.2578268825796398 -1.0047292656093987 0.3821628603562644
Ni 2.7043325808754615 9.122555717723175 9.78273078008182 -0.30164207999237724 0.6127833577244415 0.4056804838622304
Ni 5.0625104438242445 9.131041258370459 10.179274851991368 -0.7182870332859114 0.12304374132776229 -0.39529065598747404
Ni 5.004089341150447 3.7713800938575974 3.2408004510345867 0.5692039304715939 -0.6246487417034596 -0.8817832262017652
Ni 1.7194656843795153 4.168420385426735 2.254804608696002 1.0857619526126978 0.8521638606734355 0.4585449359614296
Ni 3.411058212415454 5.132137994200702 4.29693943257809 -1.0105854672798595 0.35155541988305256 0.046351590681345985
Ni 6.335157072641808 1.730533780875972 11.910424756905643 0.29655129573303124 -0.6575853445304805 -0.32098063241998914
Ni 3.3584755306435383 2.2440288944153273 2.402393063769377 -1.7373558554464335 1.8962595438955987 0.04733246653737654
Ni 0.0306235783229459 8.994304149570485 13.347408637819845 -0.05614775083616137 -1.0891149282453307 -1.1422092369671488
Ni 3.5841909118612763 4.631481872597237 10.165587305990751 -0.3853309736716009 0.7270328977993414 0.2885703344100837
Ni 5.382387655985585 3.784385107240934 11.759271452419034 -1.7310952192487026 1.5634294683361913 0.22949872505890798
Ni 8.665517119729497 4.208791267397561 9.133355412879592 -0.511375706609216 -0.6159072480654039 0.15101760083286894
Ni 7.04494487754582 0.6881330741086951 0.5922750573770089 -3.8138970392463416 -1.5022361846563226 -0.7838591627597662
Ni 7.4011623398705275 0.2382998069342086 9.968549362795331 0.8170515903513348 -1.1020869150249664 -0.7666800798773183
P 2.749093807789881 2.655743637256017 4.6270804595571455 -1.1792899438695303 0.20766774522674555 -1.6352987436726676
Ni 2.028394704423112 5.2925977231580825 6.310347934345 -0.373932244916356 2.3864804708040706 0.1268011514876655
P 0.455194837585645 2.534630991343541 7.0902216932887 0.2325189999424705 -0.0763072565031718 0.686842955844017
Ni 8.65672720642856 0.9256249099986624 1.9726806736840738 0.9173246136414847 2.06103768884767 -0.015409392576534753
P 3.18817441921806 3.6336099627179546 0.4242521291470512 1.3259608376979293 0.001564516273642467 0.9195902697472097
P 0.1909016060295081 9.119170724878009 5.433845081280362 1.3085678390324624 0.0670829096914264 1.4809978441028364
P 1.8046808039884839 4.703599744685399 8.705356733068491 -0.640587010200271 -0.24761008994763808 0.061960500863196516
Ni 2.5446752889140756 3.11455313068913 6.833314571461198 -2.0104250088971245 0.009164440108087443 -0.3359945893303181
