# total energy = -340868.7436129446 ev
CRYSTAL
PRIMVEC
9.26586578414570 0.00000000000000 0.00000000000000
0.00000000000000 9.26586578414570 0.00000000000000
0.00000000000000 0.00000000000000 13.56153118316585
PRIMCOORD
 96 1
Ni 5.748478362054969 8.481890279741808 13.633949869705699 -0.7313060712533985 -1.3274050263436235 1.0709040616642589
Ni 8.631283836134953 2.8857056901161475 9.092857387929946 -0.27134805699452624 -2.0924370290945578 1.7170950483148686
Ni 9.081604920344272 4.766454093171097 10.668775480438908 2.15900751792594 0.36355347278519323 -0.5819463177389268
Ni 3.8645147035222283 2.1655069948228665 4.1164396993663654 0.0815124548531951 -1.844390108719817 -0.018154302311523575
Ni 3.1169909696006903 5.581479660394381 5.28020929553879 -1.1083835466669558 0.9079902236144362 0.885321835482643
Ni 2.286556267335429 3.401304799803956 12.156950455521532 0.5775713285996827 1.6235174347670234 -0.0366148230095563
Ni 4.744855359687723 5.664418426335896 9.895767835449451 3.1337566922334803 -0.07102106840356802 -0.56286179030365
Ni 7.380373403821654 6.752351542802329 13.414402589181574 -0.2504434456313751 -0.04668017766535832 -0.1042813731185946
Ni 8.863764412324496 4.883324460149125 13.153247864284332 0.82117281160856 -0.6326667269119298 -0.167953200245943
Ni 4.514589325455507 3.531462418525938 6.047914085456374 0.2218664053246308 -0.09528893981199718 -0.6274021360788808
Ni 2.634452469551953 6.348294927182664 9.302654197735686 -0.6971114276495608 0.11460769474526715 -1.413388886704611
Ni 0.6155249876392191 2.4770161415313656 13.43139526071103 -1.7920753584765006 -0.5887342871950377 -0.9770860499708334
Ni 6.020885554537886 0.81735963885111 4.6106087143307315 0.930891810802958 0.8669592738150553 1.0399317816524607
Ni 5.482640668516587 5.60251317605601 4.946311036983069 0.988162362389653 0.4487631739843174 1.27087752357054
Ni 8.383143946523317 0.5142676047536343 0.22083894223479844 -1.4247241092117722 -0.7480418959508407 0.6764058196710931
Ni 8.269220124911103 3.6377048372819876 1.603176416902521 0.5019443859929872 0.12596605718087983 1.7269169195012968
Ni 4.715704945471211 8.0259633466447 4.668489799037117 -1.829562042568049 -0.4240497303980374 -1.659061136199588
Ni 0.4011925364606303 0.42565998203600325 10.159078727348659 -1.0488838486394259 1.1555234375775518 -0.5947570963503499
Ni 1.374387361699583 7.626196826950733 5.301215940189221 -0.09869745127291389 0.7323697366312226 1.5733369572578904
Ni 0.6077657515092422 5.017660984405641 5.140810828724587 1.1033053608130998 -0.7812281528948223 -0.12599408220533787
Ni 5.798875406849506 6.975853494905477 2.4238523091700617 -1.2210428594366005 -1.3005789072897151 -0.8218919491627715
Ni 3.5759293091251254 6.404001313155224 11.556011794029683 -1.0423036243187467 -0.33351064656619983 1.1959424648245467
Ni 1.181175525322367 -0.012004855899209722 12.554980551940172 -1.3850015938111695 -0.44608562715215433 0.41618266894513484
Ni 8.876134343341358 4.826802677974704 8.064011771914014 0.5771067302584384 1.8203253544611295 0.6411251420919281
P 3.9791705285429297 6.020672439621491 3.4717114820748307 0.7689038270015146 -0.5051680351366075 -1.6487409852205026
P 9.139062554977645 8.522206062404251 4.105197424233213 -0.736947328699576 0.7085160699420766 -0.29181326682741354
P 6.46627719807232 3.106742921881853 4.744420790575596 -0.6644198509538106 -0.4577435231060568 -0.014835265240619611
P 3.947110632424324 7.896982492895858 1.3787877214298505 -0.8863160810751124 0.028617149516060397 -1.133177980002816
P 7.083569186344435 8.69278138831391 1.9554507407710802 0.20582580692200034 1.1249134260011788 -0.31836582050496137
P 2.192776438255542 4.2114935850116595 6.605469036076278 -0.3020799388607443 -1.3728510744915647 0.18967105153900882
P 3.3619804647960483 4.331829385847593 9.341128852837793 -1.297991606178513 -2.3902288821029094 -1.218200762002115
P 6.531657148076042 5.694838264184851 7.416042354720084 -0.6588966071427362 1.0118226821210703 0.10547693608859253
Ni 3.3247502154883724 8.341632867155873 12.624497711081744 0.9138371693135166 -0.19372002479740186 0.37637427869894535
Ni 4.487319882022832 1.1169816061577136 6.640525513236721 -1.7590181709112158 -0.8393991048085995 -2.179169080475479
Ni 8.23808681538552 7.863857022195275 8.305014164999594 -1.8036476366951322 -1.3530422672957536 0.9074711178861726
Ni 2.5514117790852056 8.866080878807054 2.8972583717579616 0.051012229381808924 0.7240501610219336 -0.30605435012746
Ni 6.139896336545797 4.579691299481324 0.906648302714613 0.24190069826768662 0.5742162960845207 -0.7805900050901912
Ni 1.1530258246263194 8.36887451299076 8.200386786675182 1.735268891010418 -0.2050061392341824 0.28121106583153505
Ni 1.4461236957314458 2.0665475466879792 4.89506153252295 0.8100085674616244 1.141491127854202 -1.315822977932979
Ni 5.82014983502532 8.036026077044934 6.551318388993404 2.5844914096673426 0.0937107966915999 -0.03573961949345458
Ni 7.052741650394549 7.72437794234748 4.206244471962182 1.2878249500581562 0.06161905836337774 0.6025477960393621
Ni 7.123384612246645 5.665270886001477 9.582835451734068 0.9532974321916677 -0.8031779176930361 0.3608584424515333
Ni 4.102619660331423 5.551532381707868 7.3729838757422925 0.9069437846277929 0.062269547463183084 0.9822992187406567
Ni 4.830527556078658 0.4107586164470028 11.154807211943345 1.1613518713338706 0.2516220393205086 0.49619154266961
Ni 2.122244666794609 1.4165470516821426 8.461907513276667 0.9006826342094295 1.3096510447943122 2.63399748681727
Ni 1.9184604773909975 6.96484564618036 0.7320580770973861 0.49505331530010865 -0.24664464071057518 0.07875211849923856
Ni 1.8886058573637872 2.7382950290320722 1.6842610830713962 0.11987408535052903 -0.24906944810198392 1.2634966577254367
Ni 1.9287826520372768 6.651483326285815 3.4159059513368173 0.9197625336590158 -0.17620155629766426 -0.9389414205803119
Ni 2.954152641742778 0.8801951820703913 0.3729816810494433 1.1748262516712218 1.4925595807985068 1.028895064222325
Ni 2.3213125304397324 3.878719275993275 3.636877395454418 0.5031813437238818 1.3437320456384214 0.4412509247676723
Ni 0.5238957660417393 5.212207105476811 2.5546937487976944 -0.7935859031292268 -0.8689991870632195 -0.7414950959712584
Ni 5.173790825330064 0.268767560345521 8.623438427451825 -1.5875669848143434 0.888061088790677 -0.6138619355006009
Ni 3.5723248872782647 8.004336815563535 6.827295719619239 -1.528625987503761 -0.09962536240382196 0.6418969872609461
Ni 4.718206729272374 2.6724795833296286 8.252341423532592 -0.6892765049861742 0.9616000385200923 0.5277862867567555
Ni 1.9218888477851834 8.016586290323303 10.611002806363906 -0.15263199650784037 0.7047563457893281 0.7239959107452305
Ni 8.49946762741146 7.389592940422235 11.006607099082014 -0.15139555299757795 0.5561982622405454 0.5480671484929787
P 2.9488803640284753 0.0040408441321745595 5.0714159790132936 0.6927788617124778 1.0383402687956245 -0.2617025634849622
P 1.7023619521661062 4.664501770340745 0.4679920171248652 0.6402131718006199 -0.1811154486595139 0.228641005044303
P 3.9704328169707206 8.209121718487612 9.817626934886611 -0.4524797036039562 -1.1453189862407243 0.19309473250857712
P 8.821067302117983 0.692702238145315 7.97564506171057 0.579065396646706 0.8552404427162302 -0.15171616956179032
P 0.23273631408921747 6.9592490631585 12.904814246722708 0.6007649931073267 0.9559999187244953 -0.09824056624115339
P 7.747218301865504 5.920267516401486 1.9954570435114536 -0.48760817187597305 -1.3553418619632078 0.07333480413840919
P 0.10900364680325964 3.11936303127883 3.413830397368445 0.9334217763136635 -0.12149233768024237 0.7991338295306495
P 7.043531379659898 8.986592731095664 11.988895445144896 0.4741222215743964 0.41958912352352257 -0.11000464875561701
Ni 0.47307805093397004 2.7847818784040506 7.0885986983713645 0.5049451204925238 -0.06270483522838878 -1.0951184541269334
Ni 7.215329799872345 3.9147356968640903 11.533025033829963 -2.181147801468405 0.3616025197064095 -0.6090881682610414
Ni 5.094345290844248 0.10311426241800362 2.630123456989348 -0.8575523786788586 0.23085369642490566 -1.0977695185965353
Ni 5.895008765875671 1.4304273188456316 13.39939003320141 -0.31244714102768123 1.5111640832735718 -0.8928487399873075
Ni 1.4023702768088864 6.134040309277889 7.2562330384347655 0.31061343025305216 0.07065391487213638 -0.31823263736120677
Ni 5.078834231277039 4.036767151165257 3.0797421885611542 0.06680471632937528 0.22640131708050684 0.06018001192400603
Ni 3.81404353180025 3.625872326489081 0.4328623396235733 0.25806959471806523 -1.7454432604402588 0.34287383294865464
Ni 4.881406425901566 3.2974993037875575 10.55237674603673 0.14107925867323445 -0.42811284472381755 1.1496960322624974
Ni 2.5655422246288104 1.315261871198767 10.885583770994055 0.8441204215436688 -0.9829664200110102 0.39148696597066773
Ni 6.460106131362784 2.0531027752232114 2.0694625881096305 1.0213738161446153 0.372394725225907 0.49046029661278767
Ni 5.950557632127418 7.355457490335257 11.132633994772297 0.08879073368216321 1.1953421122363863 -0.16189516697732115
Ni 4.0676317505788635 5.794881818633574 0.3564773206545125 0.1838945540665478 2.233159675759322 0.06290075328927879
Ni 7.687184756503525 5.086626824524364 4.22905518070923 -0.007168749834297331 -1.0151106088437227 -1.5736226068191093
Ni 5.956191278612999 7.397515255792585 8.712809557522107 -1.4004379829708977 0.06687105079093644 0.34186570339911443
Ni 8.390880944575061 8.684608894563445 6.156677746332041 -0.12531942473581642 0.8534319287525819 -0.49133395746699254
Ni 6.713925996789653 1.8214283293695985 6.90894930995623 0.42292795808876843 -1.2357449415334654 0.7796129858889026
Ni 7.06908663789548 0.16733134624748258 9.786122990723818 1.286776454188984 0.6726787485284931 0.4855605453183251
Ni 8.286639952859941 6.314798821844873 6.179027014955763 -0.7822465668570077 0.7610601625873796 0.371103002997677
Ni 1.637825195962034 0.6984313230499779 6.5873922582329865 -0.756110274781272 -1.963640187333102 -1.3502127682667584
Ni 8.096152281066214 1.537438804473891 11.658943518888861 0.2918752304136006 1.4825255936012725 -0.2425416742857952
Ni 8.42942694684483 1.6344524207634292 5.071199157750526 -0.7288933480468479 0.5057097665726904 -0.6208769333658533
Ni 9.151525144653808 7.564699274771777 1.875438135290333 -0.07429639672073012 1.286304399648572 0.05290353286725082
Ni 7.453119717239913 3.9457763477303707 6.6099991179295685 -0.6741396493447358 0.04897565856775436 -1.7096823007905653
Ni 8.55037429483216 1.0744512815379446 2.554409286713636 0.9209670954900784 -0.283390332871041 1.4971114618352475
P 1.0395560304446876 0.45404040279371355 1.3919285724921069 0.42461614442446866 0.3408056375657163 -1.125233785455075
P 1.0944192226175964 2.7643877074916086 10.557150520163985 -1.6929392770042717 -0.32956220344141307 -1.1258572779716869
P 4.429927108450969 2.2263744681185664 1.9342949156791722 -2.058820626591693 -0.41366350206770697 0.6287128844705042
P 4.113775762911423 2.153035139280773 12.310534036488326 -0.5373312501327132 -0.03671072515747226 -0.18446533896835327
P 5.559269379759613 5.651622265486245 12.232989857691393 0.24013435039588318 -2.0272076276721025 0.8717564380933824
P 0.35483170286530313 6.560696371901392 9.389407720680678 1.3046188816870434 -0.6974448997295796 -0.659839687782296
P 6.554015682565694 2.450089535138109 9.372509560983712 -0.5635451895239197 -0.7281682969553652 0.40060204089805845
P 7.425887337270958 3.007477700171268 13.408272292282133 0.5434486758843607 -1.441951528833652 -0.5168264453111422
