# total energy = -340872.8157720498 ev
CRYSTAL
PRIMVEC
9.22060642359089 0.00000000000000 0.00000000000000

0.00000000000000 9.22060642359089 0.00000000000000

0.00000000000000 0.00000000000000 13.49528953410629

PRIMCOORD
 96 1
Ni 5.449747243274959 5.108455715692089 11.526339897713774 -0.4804103685759532 -0.4514540905529193 0.5009190300522663
Ni 4.811294010636145 0.9553839179491939 6.140816022567637 -1.1455948656099302 0.5972037581186296 -0.7549656196538675
Ni 1.9357833412296765 8.637071161405421 4.741272725164045 0.6504297073223057 0.5672712322252553 1.6125071996994487
Ni 0.9792929505050479 5.68785096394207 11.193519341287505 1.2379689457679777 0.34132242930113477 0.1003478423921433
Ni 3.608779398293584 0.1897056794089458 12.027569298803808 -0.1806688480403985 0.7601229954850909 2.5665217125627993
Ni 5.5068596797003195 0.20902561612868392 10.697459934240689 -0.46961842016677185 -0.5583484758143288 -0.8115044352808605
Ni 8.449662335066147 4.864118865056695 0.6356142079091776 0.6118456764015204 -0.3003413589030828 0.3189036952863024
Ni 3.0071256060444393 1.858404011800935 9.099792543728384 1.7263317364217883 -0.1728105283382443 -2.011726758427684
Ni 6.539254102819777 7.042800642313701 9.963788264851186 0.9365924607321612 1.437440528337176 0.9556533340183543
Ni 6.224849863679973 3.243440529057931 3.4586808339419735 -0.3281208430091962 2.7159118050945743 -0.35327368812573995
Ni 4.939229925295795 5.061117122116403 7.217159544327366 -0.5570490402766148 -0.515758409057944 0.07721357036752509
Ni 0.2613101430105639 3.725954865212131 12.14512649882988 0.03267486452520179 -0.9454277996356039 -0.5879927810433228
Ni 1.3913618532898981 1.3943216679641863 1.9146441788549946 0.0350392509923203 0.011903436305805306 3.1795133296433047
Ni 1.2264974097501102 6.674133134145281 6.156632128831831 1.3598922003380518 -0.20136699981969838 2.458065639241225
Ni 1.724483923547474 1.7832007454972152 10.737783490420119 -2.658674677848976 0.19081467822514878 2.8047141087409635
Ni 6.443387457434811 6.2007933014207275 0.5553110241713495 0.5569217706701312 0.007102415372736155 0.4306813767819421
Ni 6.038169465251195 8.6673239712071 0.6295488929785024 -1.7491567047361036 -1.7903015544055298 -1.6641784028214952
Ni 8.46832484254515 6.206537739246527 5.188304323531343 -1.196566985782423 -0.4529700129768135 -0.5206208793565679
Ni 5.8360814334244875 4.935126755420225 9.283490998027366 1.1494322370781493 -1.142069368955175 -0.12361606889146455
Ni 8.280095382230762 3.2945964537088672 7.538117790540328 -0.45034620220072114 -0.17120590285528578 0.06750328505829664
Ni 3.3655951234659347 5.699810090523228 12.64717837801632 -0.8583404217977926 -0.2657312250283811 -0.12240559352313113
Ni 6.9604053029696535 7.897145154652772 4.788101419202384 0.27226439816120857 0.9623196902949362 -1.4708013631858088
Ni 8.326465812127942 9.050329522423862 8.058523286889294 -1.5681016770008802 0.7734950459166227 2.4763919483542383
Ni 6.71093257453495 3.1157074677404433 12.32665165618578 0.24301784259126533 0.9946543978718999 0.428579757057907
P 3.5652489151866855 4.7549007815148165 1.1005208739636252 0.2134344725071937 0.19552339655472778 0.9329152689908901
P 0.9360667474113944 2.8067987100519654 3.769436479104781 -0.5845007087296643 -1.070912289194375 -0.005263305281468356
P 2.4425478723788236 4.000406216552276 11.20971349241664 -1.3861254230029676 1.6530496398981853 -1.9073194012541859
P 0.8416025562692929 2.397330018289387 8.6276596883897 -0.6418517358453075 0.9381276664297651 0.1757187031239748
P 4.4173435995490395 2.098868207722307 3.741933254150056 2.6234994154994236 -0.9191161583242686 -1.6858975396661418
P 7.196867755686537 1.355724209314435 6.382853253951418 0.40655028806169335 -0.5802784431182006 -0.08030146526422945
P 7.470941062161741 -0.09919067401450048 10.263559401535863 1.9267517989471852 -0.21984886067396975 -0.6026241578032525
P 7.491973265501465 9.092006663631908 2.23280950337063 0.3613986312257195 0.9033213573838572 0.8630820502478362
Ni 8.575136347800456 7.064801009331929 2.3552656116099406 -1.1134496483359533 -0.6109846139528059 0.18235343483167307
Ni 5.643785685660378 5.866186713522777 5.196495910312145 0.35768415848860985 -0.09930963093561607 -0.7865027710302003
Ni 7.574682105465217 8.068712979090401 12.19657010640243 -0.6462148979100097 0.58157685021465 0.5241625739612392
Ni 0.02480250932201765 7.724858122911108 10.371562209146056 -0.8645570921314658 0.5514700035269405 -0.4684663088401997
Ni 3.971877660158982 7.159515078909149 1.140232181873981 -0.3990565507878095 0.28598200485761716 -0.1886364396269074
Ni 0.6954605541505082 1.6148693539277315 6.465674585314007 -0.43606526680167484 -0.6831567652416816 -0.36648915837474944
Ni 3.959107120209171 3.9624726415677856 4.838277193386415 3.0020524470172427 0.6602176399470049 0.7028817544744347
Ni 3.282720312585867 2.9176027379053004 12.619108085764186 1.1003557912664728 -1.4917810507612697 2.4679767277073497
Ni 9.101789727088045 8.86984537153752 0.6800141942054383 -0.2402981296672571 -0.13274862732035203 -0.07370067211826017
Ni 1.3927541648656536 4.503740682097575 7.968361430722341 -0.3603244243249343 1.2893632410795535 2.0033688733812918
Ni 2.0910583540490295 7.118151438320811 9.201992823692066 -0.030774305068379252 0.15651050562664015 -0.6044280437812107
Ni 1.6024215352040898 3.7570651914147732 0.8188654627947537 -0.7004451200084839 -0.021198488454486072 0.22557213631099216
Ni 1.348227856260864 0.2940774121944198 8.41660738296068 0.26487453345504064 -1.564742787830976 1.359199288036085
Ni 8.306484757924883 2.35450952188006 2.6480862551435953 0.22076288784780687 0.17042403038393875 -1.766596754589422
Ni 6.206722151375765 8.513054004492101 6.8442579336716145 -0.155560483008545 0.6137593484844656 0.6848356956060012
Ni 8.526691281449335 1.4091852855808606 11.869673789627967 0.4872826702157543 -1.0516040757840666 -0.4198354352063737
Ni 4.173956471379227 7.130147447327817 10.624045465590589 -0.41695091456972716 1.3131109783184547 0.8451519481319767
Ni 4.221387271019533 9.018619856801193 8.560736526688817 -0.4205190915369596 0.11942748473141368 0.35138778395693676
Ni 8.034670500032858 1.8637888459747178 9.628456937285323 1.107998395413395 1.2280216047472787 0.03003974089519988
Ni 6.070810412126522 7.440245663249888 2.5599354132459955 -0.3337271334523801 -0.67554398589143 1.6519571781649547
Ni 6.058307269764108 3.1894538782231736 5.867819682927189 -0.3074923681255672 0.22974915050681724 1.223707293642641
Ni 3.522520624841978 0.2082215792452013 2.812229647258058 0.6388641139718932 -0.31148503422472806 0.19161891929399902
Ni 2.7171283122094354 2.0481917546073922 4.7716241954548675 -2.6766921974723195 -2.2102819998301997 0.7420666522040124
Ni 1.2315871845171105 1.408678152225453 13.289257153115978 1.044349451104182 0.28693228458602843 -2.927599213003674
P 2.69269370508525 0.7101950832767153 6.847699064003217 1.2346257403273575 -1.0571427462141085 -1.5980290606879317
P 5.299469799157986 1.4713598349538355 12.405301585184977 0.3789543807212957 0.2010888064576472 2.2013895824365766
P 8.620704584935446 2.646821187937015 0.31729213308368853 2.0464417933113657 1.1791583033876725 0.7235002020557346
P 4.88911592917506 7.829760962628791 4.508830456864575 -1.4813837666873455 0.27791671135097945 -0.08821892033909323
P 2.8021054213628296 9.168095108155976 0.6794959961222763 -0.6099376607455301 -0.18356648130316774 0.5503194348622651
P 2.9755911319445474 4.954056660486622 6.385539216613786 -1.7565571109652327 2.4731528725916503 0.17727704875003017
P 0.13058222871423247 7.096436910102903 8.224474839930945 0.8218808934191781 -0.032487431104744044 -0.8021697881434959
P 5.305573840635802 6.99930704163265 12.547488869192229 -0.7672171833277108 0.9887876546784776 -0.7233014557813673
Ni 7.122835506403486 1.3159188512181677 0.24050384452915832 0.6446395830030898 -0.5837864562714591 -0.49253311998141636
Ni 9.223096025701548 4.699641686988309 3.314658649248793 -0.3681624323121143 0.8770907058221024 -0.5167315716044907
Ni 3.452849722415432 5.174668890695401 9.492033454377442 -0.3834664096590364 -1.7574690812565412 0.21041239785141827
Ni 1.4704008918817921 6.2168279360580705 1.2675438614761572 0.3522627303627224 -0.9565655614199784 -1.095515689565352
Ni 2.87208060380262 2.955185929844237 6.985458612787437 1.4082731627446003 -0.9868202465394617 0.6936679491856504
Ni 2.4170344542985887 4.404739030515545 3.3776953253259605 -0.9012086819162286 0.2280349960291879 -2.2287047253117613
Ni 4.805143866126019 5.307556271025122 2.9364671766658184 -0.3306703489039273 0.25708254821444754 -0.8132216750822833
Ni 3.822365526378352 7.529408927737009 6.778846029369847 -0.4846763429411588 -0.020928008401918795 -1.35289905684967
Ni 4.684842613616868 2.6560694562183573 10.709524175735513 0.4147369376375438 0.34449748459500673 0.808981925969323
Ni 3.0838502724143826 6.3784836085490975 4.676023103536006 1.0018858826233326 0.21817430118502423 -0.7460323217199797
Ni 1.8693673128842017 7.829456682615547 11.93832489297982 -0.5339222244511643 -0.601065812177197 1.8522252884935195
Ni 6.060824495328223 1.8165701202830369 8.401033778646433 1.1255253485535648 -2.1268054792720985 -1.095581252695965
Ni 8.589428287816489 5.3257485275745635 9.456176359968184 0.008659732557527023 0.3281241854433059 -0.9495557057610485
Ni -0.11039094468383943 0.4735565169764093 4.0003140104876564 -0.09429058045446988 0.2528713383465774 -0.767831162762626
Ni 3.574036153144931 2.5849785803966703 1.597653559602612 0.10814754094222019 0.2106700223881791 0.6861572426309022
Ni 0.9293264840877039 3.8974858072239136 5.891382020680074 1.0320037850546355 1.273852547038464 -1.8020792637667482
Ni 1.4017350355595994 8.133063591588398 2.5376003382131977 1.164546981232401 1.6325512628345176 -0.6665412681721875
Ni 5.9061303807159735 3.9055261760587405 1.1757269064492837 -0.3674036997692189 -0.3745187135474453 -0.9675783675907144
Ni 6.6659913386393725 1.1901682202900004 4.025807143233674 -0.1259362323842089 -2.3003639415199606 1.4495591659775808
Ni 7.700156118199526 5.696453789771075 11.869592648291102 1.2374943201244044 -0.33520088978442913 0.2181853569286178
Ni 8.258233324309462 3.137532643235895 5.037481019511823 -1.0114969233505355 -0.9798142475352737 -0.653053518098398
Ni 5.6017489408003165 1.410826553531089 1.6960337423091065 -1.6369465636887357 0.4043885045236842 2.491093259120155
Ni 8.762296217765256 8.529208507013449 6.00552575219393 1.036737185974563 -0.2523283213589138 -0.7290411864786218
Ni 7.289931336707067 6.684192815795275 7.67270637276228 -0.26841391406686677 -0.687102894373623 -0.07364745028282155
P 0.9679147221309932 6.656383466706013 4.0089786143799575 0.8103194138338238 -0.14947545315672967 -1.0635051980970265
P 2.6099387620891874 8.935606736824196 10.30359988509691 -0.3220170441043035 0.34066345556089717 -2.3116662539066573
P 7.350197220542417 3.9731132214248834 10.517688536233855 0.50779647389839 -0.7619003991004879 -0.2325141148464641
P 7.327440763794307 4.978749444591742 6.435538877214394 -0.6591945979991292 -1.9704872921619225 -0.17494660084464064
P 4.891116800777305 6.870559713604346 8.531937806526189 0.21267316886113696 0.3694143024413444 -0.1636399175825698
P 4.637937388544895 3.149030739493955 8.741317493943011 -1.3091399094858487 2.8226557808210484 -2.7173621643878554
P 9.222358377184591 6.879005789123499 13.182320247612786 0.46694550132029905 -0.4118652725167036 -0.6021220213558534
P 7.28113487814236 5.186379060902086 2.47596703843954 -1.8135245294892122 -0.0758313453080178 0.5344883813672795
