# total energy = -381168.39634752186 ev
CRYSTAL
PRIMVEC
9.25904388958361 0.00000000000000 0.00000000000000

0.00000000000000 9.25904388958361 0.00000000000000

0.00000000000000 0.00000000000000 13.55154665090120

PRIMCOORD
 96 1
Ni 7.011957184218029 6.966217507956375 1.4361925020583417 -0.05830773460195764 0.5320059812650579 0.7651885829334563
Ni 1.4385498546041346 8.33468566020738 10.54349629257966 -1.1879697310317154 -1.424018341393999 0.49993995396844865
Ni 7.784596610332656 5.565120485432886 3.3938497201527627 1.1758348954413942 0.398105756838766 0.6955551389060344
Ni 3.695645474372548 5.204888128219138 4.868244110933364 2.107227300029855 2.3064188894647892 -1.0107297061672076
Ni 1.4176521927979497 4.937977673240453 12.285127056679919 -0.5699413228582507 1.762415883738855 -0.06457736966075331
Ni 7.58190688299584 2.880470001143338 0.15128444218761006 -2.6050913453058815 0.047956987495252894 0.023131443811140805
Ni 2.912404443132498 9.209072718394744 6.671683621771411 1.8772634624090703 0.5684930204474984 1.7045105267816387
Ni 2.4366655147924057 3.679331039236306 5.51625217827876 -1.1762038487450388 -1.0383878342041084 -0.8187235787371191
Ni 8.369573737161614 4.63421622402667 1.291632903366448 0.9638456400211594 0.8506458813670125 0.5481586797655205
Ni 8.989281537200585 7.698024551011509 5.780547879294633 0.43302622286503484 0.33519343358526144 -0.6258322204885997
Ni 2.753954426965354 5.831345771172025 0.7977203238995598 -0.6202213020597255 -1.9658947876952337 -1.2283062258672328
Ni 3.3505886899103894 5.9794441763957416 7.0898164833443955 -0.6153122947938822 0.4818260179765573 0.5107421867902752
Ni 2.521774645196682 6.10637640754372 10.406490221801583 0.8130303850070836 0.43892844728208275 -0.22937531210716625
Ni 3.8385032608181073 6.335602554347318 12.405640918681222 -0.2176654798694058 -0.6047638298540746 -0.6846837434091693
Ni 0.6243613954416237 6.805869387814811 0.7167638746295651 1.3417934338548116 0.2301152755969843 1.8056780368616
Ni 8.896024448271964 6.04921107126043 10.878733861115608 0.06724103253584549 0.41155879701987835 -1.356938002805734
Ni 1.4643825867438136 3.5506858849894596 1.8340795385070892 -1.4307885702382972 0.3410018127369224 1.2435014455504325
Ni 2.6477439357917842 7.706996564432064 4.916311510800721 -0.7545809826209392 -1.9005815683097202 0.002343046310879836
Ni 3.603777242010578 4.39691619104895 8.893039332558045 0.020343082432726256 -0.3694376994801122 1.276261413590273
Ni 0.11320940236510517 0.802968349912739 9.83002123029992 0.45409718460272125 0.9440753993727676 0.11648614271490261
Ni 5.957944676744008 6.098756214514704 8.144506752822943 -0.16953802823455963 -2.167193139060526 -0.6950481173626287
Ni 7.005873992456105 3.9916941401195385 6.663146783408405 -0.19525394494342502 -0.1641183998808851 0.6256419588546644
Ni 7.159379679245976 0.2389777717102321 0.4132653822590676 1.038161320015599 -0.6000142309842311 0.06672269813853025
Ni 5.46709498895877 5.376578576988339 10.357040446698221 -0.4310942959496447 0.32508796972014337 0.5611859452631239
P 6.871108610272223 4.811054701136252 12.250273238187663 -0.3533976152981139 -0.05882504055800837 -0.5292117063493724
Ni 6.792610437125198 6.7177232910514615 5.419466467766473 -0.4515199107938482 -1.2915959870648144 1.0142420901958404
P 4.645280781340976 6.999346366592853 1.067923294845582 1.1762012776418775 0.2584755719072323 0.11099786590682173
Ni 2.4094994803487433 0.06260687631142248 2.4796487737214497 -0.9307560565560422 -1.1608476780039427 -0.9636744045506179
P 4.902904415410667 2.849618867276166 0.7357578770350626 -0.41329711986722373 -0.538410599239821 -1.0463700810786367
P 3.6303784747838033 2.2141706928151685 8.278721221902053 0.5400126536196184 -0.6037662418274957 0.04396226451356299
P 3.161130136131853 0.49842080788223236 4.401582749112892 2.2214621848167355 0.4235663630037157 0.25855887564965796
Ni 0.25542461117249454 2.821582482717403 5.634407761829893 0.12895650726777147 0.7261600082760848 -0.4166485528379598
Ni 4.618596217173753 3.890687231549015 6.901571790205111 -0.29420053611266755 0.1746969467276798 -1.446142169876232
Ni 0.7865409544424097 9.145370497204423 13.070032863991194 0.8013953718713166 -1.941751614790127 -0.5286316654761863
Ni 2.1650514655746678 3.5137978545792508 10.7316595061337 0.19453120784478756 0.30522054137225496 -0.9083681757791452
Ni 6.402471368509598 3.136473302551937 10.717958899055892 0.4245649794715591 0.2203674521816011 1.2011399498650863
Ni 4.055988940111629 4.022147135104271 2.680970014387927 -2.2964795188638902 0.20162899523183336 -0.6478704312355617
Ni 7.490084945852758 8.80706355565618 7.821288349014778 0.3572403860829718 -0.1673541332093634 0.41259880824861844
Ni 5.857409979406146 9.0335860616767 2.3620755840239323 -1.1862429781485957 -2.1743955703462357 -2.26764254002754
Ni 5.929954587404133 6.865330966954962 12.686944557212286 1.368708770188417 0.69319512331429 -0.4554182174069899
Ni 5.257479496876263 0.5013485175247293 8.694346734420046 0.6663656618262717 -0.45460909124213317 -0.9244280574554854
Ni 7.872881592752671 2.029712022676571 8.155822230223624 1.7839653277748568 -0.47763049183797096 -0.9782492170409991
Ni 6.706640215649599 7.301857844896651 9.888916155960878 2.5817393008435023 -0.06953651343824153 -0.17722099870111413
Ni 7.134695068534728 0.8534643969629786 10.113139641411404 -1.2322207304302908 -0.20228668342049033 0.8652633741698711
Ni 0.08632762056541678 1.4363647202726062 0.9908658289103611 0.20728362241444945 1.3866409291868054 0.9711863966569467
Ni 3.1338715112504136 0.18552346017302931 9.42122518847233 -2.1391925400825413 0.7277849454740175 -0.41799452534289305
Ni 8.668224194210126 5.118584581167543 5.615408203998128 1.5341592586171644 0.2301849524926552 -0.9747633153749279
Ni 1.0628271171503563 4.963634483548357 8.989649121238557 -0.7924386768986611 0.11377388599006212 -0.6285385636761692
Ni 7.897399540675922 8.318297152720916 11.903055392907797 -0.1251877842539586 1.118779545189299 -1.5388648916229497
Ni 8.427053880933345 0.9381355745965715 5.938233098445742 -2.6784719150805616 -1.3959920313844023 0.3628795866466202
Ni 3.1940645548489996 8.7563610319297 11.915278256598691 0.31947396596747557 -0.8585435389475343 -0.4258109360635183
Ni 1.0517625598360492 1.1212887195625192 7.643370267400721 -0.7061123455965903 -0.762618508213435 -0.1986521719916966
Ni 4.186254427019566 1.5635006503836941 2.2353822362054165 0.3091455874582741 0.0019843774198804536 0.5136781294901477
Ni 7.304404081935508 2.836322880411442 4.582455391596401 -0.6407340773010965 -0.3349478932333586 1.5003461667224613
Ni 0.989495490431267 7.999943450513537 7.935975494766798 0.8759519642319687 -0.5276099090798914 -0.5237254864238207
Ni 4.182347110545392 2.5458481590186053 4.7464293532812984 0.39570048983138306 -0.5037544426185324 -1.2341174332323714
P 9.644034817938008 2.8766367570193863 9.249011603729691 1.2227873529315327 0.039181298185151876 -2.3080284000437543
Ni 1.808939382841979 1.4238372340414285 11.475463492211553 -0.31380519771747245 -0.30315825952658754 -0.023984021619423212
P 1.3958934399204421 6.252169310866798 6.192121634255522 -1.0549251697374995 -0.2285214487473032 -0.3426907704035711
Ni 5.373310134534824 1.5592970445086352 6.4284466899234545 0.546364306869259 -0.4385947180917479 1.1108469206057836
P 0.2977208490532359 3.3782454536742677 13.084438084300482 0.8704652300857847 -1.2186296220094175 1.5189036180096747
P 8.734778200883968 3.067724902502791 3.104645339566221 1.9058335607372792 0.6656429247276343 -1.1419181880892915
P 4.342473013636293 7.703811453372548 9.330429153379814 -0.44221406001188995 -2.4533646342211295 -1.7475219973461582
Ni 8.76559229857603 3.3712178394470214 10.977498229283182 -0.3603591342176117 2.176945333351283 0.7764623560750628
Ni 8.446108993027774 6.213605393532833 7.597375967435181 -0.207814555217255 0.2668285718576179 1.4598404932989308
Ni 5.602295546200202 4.844442812998503 0.6403665785156918 0.21643829233052403 0.8841509551029935 -0.49317666710268615
Ni 5.289395420777867 8.631484308500362 10.840478269939439 -0.12018313195051558 1.8587332648153667 2.9930826394184646
Ni 4.918755898358024 7.944259561234674 4.396040285507583 -0.406175678331094 0.38432181568079615 0.2093063092714331
Ni 5.019577626052995 7.75463434466814 7.1074068147132 -1.7045046132443675 0.5899694451537194 0.13316514603248034
Ni 5.869891170418436 1.6046941361505156 12.518051265568317 -0.7953465945740754 0.06888679566938459 0.02261362363445783
Ni 6.2778076030871475 3.8931038419749844 2.757224721227624 0.7869077197781028 -1.1713341793575633 -0.731204769788844
Ni 3.183370359285799 1.0596420060908402 -0.1483817319633128 -1.1695194947463277 2.9828432210786437 1.4708550992418796
Ni 4.336612038925032 3.9164551503822502 11.805619697522319 -0.024105377688635903 0.5463761339438009 1.0680074568427542
Ni 1.427883436172267 5.174944380642177 4.0816040847225326 -0.4987114808779863 0.3581700969860928 -0.3960614727152276
Ni 7.566018363873371 8.13050522682236 3.7621263346005445 -0.10170101398592807 -0.3351173289316874 -0.5097217159455608
Ni 5.8618635794632015 2.721797767925531 8.54172991583283 -2.2538868810043438 0.7993775701103395 0.34905296517617307
Ni -0.24615908606418738 0.6355166913849519 3.4040133725075035 0.7723922997707472 0.10150329615282519 0.14324746996914683
Ni 5.448660232797444 5.9724443392998285 3.260528748798196 -0.31121661105468984 1.2215997603813349 -0.6785910002478701
Ni 8.459182762841834 1.4959188898505333 12.140681344226492 0.19319243442870598 -1.7082980188485288 -0.04105203284530349
Ni 1.7172378132680068 1.9844538166913548 3.7446850738365614 0.32426881625295767 2.336196377837538 -0.7872908141491344
Ni 2.7523155762167075 3.6342394960390885 0.06558736250345214 1.4212142962863008 -1.7136734242278293 -0.5733279799422965
Ni 4.143820229386538 1.994833204766115 10.650607688712798 0.02351942327817885 -0.8184117039236551 -0.8425633614691941
Ni 1.7685143977087034 3.194166404330554 7.427575289501002 0.5099479730237539 0.9745578842323409 2.380186667375559
Ni 4.823665518761428 8.98426313547309 0.11201035619589782 1.4171275278114368 -1.6032535423116647 0.5357135120236323
Ni 0.8605003443296245 7.352967766549351 3.264499952674436 -1.1613953229772964 0.8026796379003789 -0.2736635925015803
Ni 7.4388731747185055 4.31701064324772 8.940849331008385 1.4726044778328187 1.316278834523475 0.9260090287893602
Ni 8.215651393401746 6.453025747535637 13.02600425901965 -1.0690268992462042 -1.919887981947816 -0.5698870725815476
Ni 3.1044833063001116 6.792591919037642 2.601557973620047 0.7533728212454509 0.9928165733322128 3.115919149831427
P 8.998549840022024 8.579170711156566 1.6086366369910445 -0.5574156795874142 -0.1332420220170028 0.28946944918558537
Ni 1.2324898353322493 0.4010064082974421 5.289100983185737 -1.1581405634854247 -0.47595001881175447 0.34327672481402816
P 1.8356795012718692 7.0730298369754925 12.484131684593224 -0.6949594143035644 1.1684604573541941 -0.5685565266955821
Ni 5.9358803754218386 0.780799421395881 4.217620363720777 -0.05845685858531223 1.4566183868172076 1.6991824297005058
P 6.345352327445196 8.836766568094923 5.9956382439628735 1.429376520382119 1.0084784482391858 -1.3513180855157954
P 5.817688681599972 4.579911932270678 4.947927441683929 0.10782306772326591 -0.0663984820298921 -0.4059113689261138
P 8.801350725645362 8.01447089020069 9.480390478211596 -1.143684793071411 -1.6472669717781374 0.7886406433088096
Ni 7.1654165757890125 1.670961112467248 2.4635759996278046 -0.27258861426984665 0.437081366771015 -1.3006557832742374
