# total energy = -340875.2436061407 ev
CRYSTAL
PRIMVEC
9.16223635251002 0.00000000000000 0.00000000000000
0.00000000000000 9.16223635251002 0.00000000000000
0.00000000000000 0.00000000000000 13.40985903494172
PRIMCOORD
 96 1
Ni 0.9619523302875996 8.39972732428565 12.719666671626104 1.1929939237191842 -0.1357825290506694 -0.2734028826410259
Ni 3.2410310732469916 8.582147445020057 4.223850396250443 -1.0687199095287465 0.2187628266986426 -1.068294906176186
Ni 2.073377380297003 7.05091789918294 5.66417681662968 -1.670688178915555 1.1842550011842896 -1.9382099201854555
Ni 2.5982727241821575 1.964978965007763 10.344485234222553 -0.5683315551689695 -0.08956592128529092 0.3806255977761316
Ni 3.1024430900109983 5.817928300609794 7.042080006241684 2.245516911773094 -0.8705626748955975 1.8615866751037617
Ni 3.4850947184565912 2.718178908011951 6.709394632362895 -0.42904846916420947 -0.6102060839155684 -0.9604016473366169
Ni 1.295595157838751 8.64391007856454 10.03172772385945 0.3237401974429973 0.5933165072490815 0.3993859091027702
Ni 5.013383186505876 5.926454987204423 9.23326450207816 0.2753186116065 0.999579088867027 0.11706284115397902
Ni 0.11659128680911472 2.4806296126688587 2.863513961911371 -1.0581688734857777 -0.5579149878213359 1.5709000656816237
Ni 6.710055229585645 3.999096163619837 1.2160367131188579 -0.8359304295337089 -0.3425568159288681 0.3002716820074119
Ni 7.485189565811238 4.038283047415972 3.809995856545528 -0.09845473913448852 0.5616230328005424 -0.7587988773570287
Ni 2.937678598239685 6.6895959563762055 12.776282877153683 -0.6727278565988737 2.005090741168405 0.3712531554222961
Ni 3.7449357342289558 5.016773213862567 11.519658374339128 0.35278543563541176 -0.5706442624625463 -0.9876378573447506
Ni 7.4573180435975726 7.853603079358726 5.869038918465385 -0.5672010411089522 -0.516110393080724 -0.37651388960060317
Ni 6.181888967413088 2.310688457501517 4.884044480611991 -0.08346675036608851 0.7625316049265835 1.7621993968526748
Ni 7.408116835745048 5.708311307919365 7.848092910568688 -0.7520546166546596 0.757577860465734 0.3961784579090661
Ni 0.27752962878541554 3.361120501798768 5.064420506472674 0.40363568551805973 0.23421464247733856 0.15540313149507431
Ni -0.05595285963400046 1.9449319924227864 9.549857324472372 1.3848319010025247 -0.2556661274828952 0.1786659586777568
Ni 2.557143446332999 2.4148722441851405 4.034865533350984 0.25602402504294614 -0.7854504185062859 1.2473650422708968
Ni 2.03867082995336 5.052973208690375 9.600627107145076 0.5028494143057597 2.274977640236372 1.8224238888613709
Ni 8.606042556766683 3.511362849352902 7.350439643277184 -2.4974302570817764 -0.008136255953889214 0.6881308214175053
Ni 6.955639805987706 1.6178951370991341 2.617684753805462 -0.4806811057388367 0.8333490419597778 -0.3603262240971472
Ni 7.112048338436579 8.985670647299552 0.8925493080600226 -0.9171914304977301 0.282080612920682 -0.11198388396917489
Ni 3.1460736583152293 0.9126356782602255 0.6861131340624803 -1.0559788078129944 0.5832868909272213 -0.6313292390474289
P 7.575116913124558 1.9701831151120897 0.4200491275315618 -0.7395042907934747 0.6719264437435009 1.0626204814992282
P 2.0260177819004106 1.0199859337397208 8.324934158560934 0.7843674698547523 -0.716435067678837 1.3789828984209154
P 8.50625664341066 7.4899997397633005 0.10915155109659144 -0.658818445606633 -2.2882794995516007 1.5146872659354818
P 1.3885093941203994 1.2935703036608353 12.359638436556573 3.092768936967209 1.1617285379469993 -1.3625376083806986
P 1.9342121761867614 4.459672610088842 13.199605671643477 -0.447236710037462 1.1042705529398467 -0.3584737442694407
P 8.242540001768349 1.4467445667667023 4.7518911357884415 -0.40585583309783 0.2535213132257505 -1.7132324800356686
P 5.357361016376887 3.556138697169529 3.3449152548101724 -0.19494566967438684 -1.5561074807534814 -0.7623233455705194
P 5.276715014232023 6.865877378924171 7.11237451404171 0.29992484019095444 0.29071540577754446 0.15102865657646247
Ni 0.35687734207502797 6.967917202360589 3.8880681865701363 0.6056889127715052 0.4465229717998891 -1.1478103852040102
Ni 8.478458419085788 1.2972810092809977 12.018893959804956 -0.2334353411091528 -0.4376830049107559 -0.6838959574005512
Ni 4.418176842795717 0.9322575230902006 2.7575765232383675 -0.0933780959425295 -0.14814387882949967 0.7684834516346443
Ni 0.5783908917973588 3.414408066951521 11.443168362488846 1.478475591901615 -0.2440437127526184 0.3941891953931792
Ni 5.274433617443331 1.5652214417650256 12.652724626014763 1.0849402280423508 -2.377872417420085 3.008428782857232
Ni 8.964020283397222 3.9028743601063898 0.28231414847640035 0.6255103183728066 -0.4499564229614702 -0.46926026549640476
Ni 3.0373087535820225 7.899945669548311 1.5786486987683541 -0.707041285168763 -1.041510181883174 1.1425864178009095
Ni 0.5142946367184191 8.305457077061325 1.9983505775517576 1.1198105575569748 -0.047958787267465795 -1.4749372397310536
Ni 2.752546455619925 0.23742835382658323 6.4071498716999775 0.5842345995524713 0.029207989022523893 0.885651965128552
Ni 5.147371727220089 5.566855544784332 2.871828691171365 0.5294626460179139 -0.5014628183708784 -0.5618924844118452
Ni 2.042152479671043 3.0072657814128556 1.8377274164972681 1.2308068808018997 1.3078075638276703 -1.5991120093394653
Ni 8.087716536164631 8.594333219031949 8.188381107962565 1.5333717297188623 -1.8043798868754668 1.4223296408376667
Ni 7.820481595860239 8.620665485580954 3.1443703986243943 0.28153759593301836 -0.5328292484973017 0.875920339663085
Ni 4.008679862579566 8.50437838501033 9.218714871152685 -2.6560179569524194 0.8397680581122441 -0.4935134816168145
Ni 6.6995003335994046 3.8423761151435927 9.647682519303174 0.509826102733909 1.2921721712832583 -1.3098004258879832
Ni 4.4843190251956 1.798052185517047 8.743348743172405 0.2491447814246096 0.5718387969912796 -0.04597363851663695
Ni 0.6007568263390344 1.343825168664764 0.9459605634001143 -0.6784403336026187 -0.7907301788479866 -0.9415410629866882
Ni 1.5776545961515946 3.219490656177851 8.384862512438362 1.2429049496170141 -0.5288592081059601 -0.5963043862328118
Ni 0.7639206754638228 1.697634077870181 6.723529213993079 1.59641003702727 0.21565436297664795 0.2557633151823918
Ni 1.750481855690174 4.787286686286743 3.6537174278492635 -0.512335242309008 0.33439510605368217 0.035189146306623266
Ni 7.277674080401214 8.231600291865943 11.958804350572183 -0.2306338671046157 -0.29794149121233854 -0.6546236907989952
Ni 9.192471478293841 6.4969874290995255 9.803974691353588 -0.7853336904227636 1.092512126852338 -0.3854721272351555
Ni 4.979766942258035 7.6369528445578325 11.706471787283084 0.23444475621027364 -0.5636783726676744 0.14694317365317922
Ni 1.4317917974528624 5.980008257204052 1.2081278709180572 -1.0327758873339696 0.14373032314283635 1.1603103174432339
P 1.8303490677666092 4.257315463602649 6.349970188652298 0.4189193511500076 -1.6442340984890846 -1.868349704859208
P 3.0133678306549005 7.033958600163381 10.510808222354333 -0.41442891947882177 -0.6474847657613688 0.07950082373980501
P 3.8600317441066867 4.197724280013669 9.103027897046557 0.33852378351007506 -3.0145868320388276 0.8015614651355356
P 2.027355468370889 0.7136804700376527 2.7120502882852184 -0.15916439830971943 0.03973665646798962 -0.603654913060612
P 0.10865129300557695 7.322770606481312 6.756745068523388 0.8905239485088727 0.38977306860335453 0.14610807934639353
P 5.52246451088387 4.574676997605581 12.807447307021388 -0.2241613720063946 -0.16409577417306578 -0.35453275734382167
P 6.291936585200178 2.761891936441075 7.54189189635815 0.9747034086712698 -1.0292491051276338 0.44815587941762175
P 8.383464355209629 -0.1299773137499971 10.302405832489908 -0.2137563746229867 0.12022349827014778 -0.7675144028531555
Ni 7.780919060384038 1.0868977439719343 6.796491764945182 -1.3136820203305763 2.1577096250501224 -0.7887992803738609
Ni 8.6190529320275 5.651129792424467 5.342957065005388 -0.19959242441777883 -1.0733908326418546 1.81733541859487
Ni 6.238539073214234 5.304000153335342 5.55257986471822 1.6546884610531887 -0.08228969933885183 -0.48350186301708337
Ni 4.591022426806495 6.789849143773287 4.880236655289178 -0.02019138734621039 1.0195992407426955 1.1398067981732434
Ni 1.955037938840167 7.666198702186374 8.05189585791133 -0.8129545374638256 0.10109629052239363 -0.38471339469226007
Ni 6.978279691388747 1.5098448867816625 9.420023857829134 -2.101185464711149 -1.0612655101332302 -0.46918493217377905
Ni 0.7239687449534069 5.908570302338849 12.046048995155667 0.19343771767029266 0.06356281235330988 0.15640766150018867
Ni 4.872605428842181 2.9369914305322475 11.082993531641728 0.11767450659604894 1.8701983280321723 -2.2886515381790393
Ni 4.417517161796577 2.8075107099788257 1.528938070588716 1.1587959376812365 1.2777709082562638 -0.26902095152324634
Ni 4.085468563326681 4.366346073182732 4.950410221572694 -0.8434231383663281 -0.207946452809429 -0.3796418937066236
Ni 0.6939725001883453 5.456862900413836 7.648768464231318 -0.13599155973768193 0.8316030058029484 -0.09457802978790163
Ni 7.404525239194175 3.4375885242824125 11.84624261519948 -1.5204280250740008 -1.0105798108529047 0.4290824077259385
Ni 5.057068728226702 4.49113572885338 7.234444818038126 0.041270576614012795 -0.7623889087011321 1.1304037596917886
Ni 3.1602842865050365 2.9061879927668492 12.813374357553938 0.07115887953301293 -1.129236735966881 -0.6084893583347778
Ni 0.7104947605459725 0.13028149998848942 5.080297745408919 0.05285673878971542 -1.6526439198193343 -1.3867034069936246
Ni 3.106520285075127 8.966310842422013 11.582550711594637 -0.1977898239914013 1.6664121772480203 0.9938162182413208
Ni 5.362537679772917 7.856150180994295 2.560492243627244 0.1487617149191567 0.8214036966724434 -0.6416984980968948
Ni 7.4976960180866 5.64911410048265 12.395161342136651 0.27237084183208576 1.0939450026441224 -0.3650164304839649
Ni 5.917311075577454 9.164526658191384 7.501126359282128 -2.2314159535953375 -0.5964995329627534 -0.8891131842042752
Ni 7.4652342155872535 6.298560881899874 1.94621287302945 2.35527987683155 0.06992886378065376 0.5996825586764254
Ni 5.949552984410421 6.657152478349056 0.3777947270894253 -2.3660324873623635 0.6013771727700288 -0.4964617656118611
Ni 6.048358538503833 8.014281213829811 9.543742448099788 3.4476153688967077 0.9743246851756122 0.6047383759327778
Ni 6.105237700207461 -0.009764195010881835 4.421619094898174 -1.5238715035379111 0.1554069881498162 1.3717149040045924
Ni 3.8181420006612967 5.184323025408028 0.9324490138246733 0.32766215820522276 -0.6526611677559857 -0.13788826253976252
P 8.914754939892003 4.522452251840332 2.2519979217210855 0.7568492098298256 1.262099006046962 1.214084425840896
P 6.780155497980369 6.654715323546679 3.9387435982110173 0.8675845661038801 1.2156581980859191 0.9224045992675532
P 3.134877405802048 6.430753624338651 3.263155124755649 -0.7378297313045293 -0.003948443124786749 -0.1103743733902099
P 7.03332640587254 6.299962704023048 10.294935861398258 -0.03577381516549968 -1.2816067370625863 0.39740744522016075
P 5.2165466097687965 0.736236062866581 10.678095993947357 -0.7141226174955766 -0.6406304618436967 -0.7735207569482356
P 4.39549114621418 1.0346455114983872 5.225030840396625 -0.7898439195882914 0.44849860746902115 0.23788566357102256
P -0.034015717741765886 4.354691708864592 9.619642411945284 -1.2333044504127728 -0.7453337529910583 -0.87549430786926
P 4.685191889433729 8.650552699736435 0.4218879883166645 1.8107667642384169 -0.7562046342672912 -0.8801564892316197
