# total energy = -340898.2453713709 ev
CRYSTAL
PRIMVEC
8.99699632500976 0.00000000000000 0.00000000000000
0.00000000000000 8.99699632500976 0.00000000000000
0.00000000000000 0.00000000000000 13.16801355198241
PRIMCOORD
 96 1
Ni 6.53036178765407 1.8329850436104567 11.446229686717125 -1.425353515265655 0.2292459856181536 0.43447143995199367
Ni 4.760391706005827 0.6131228041576161 6.009710111287378 -0.24208633191593146 -0.901371689856654 -0.2172088519479614
Ni 2.5186551272915323 1.388056586454925 4.95414921854521 0.9168767274707886 0.2947967749357697 -0.32599608335670954
Ni 3.5202457384342236 4.271584897980833 4.9874902873686775 -0.2999055569172448 0.2497937278625182 -0.7594295689624921
Ni 5.099515486879858 4.415230940626278 2.604553949298133 0.07147255411868982 0.3078800904822891 0.0735957711092797
Ni 7.291120802308393 5.945566026291718 2.5695268433713356 -0.32707414691223674 0.23138488633802728 -0.923351793672171
Ni 4.995564191832539 4.712617655746068 11.458094025714777 0.33774551058315383 -0.7547463045542099 -0.6472286838865048
Ni 5.578713502875205 7.892552009796979 12.314094343315388 -0.3639275682951603 -0.3363913105481045 0.6498216414246615
Ni 1.7900873653357803 6.620466705422712 0.2255888853866574 0.10658842398521644 -0.2957557964149294 0.16076156759351024
Ni 2.8344856847903244 1.7013949759834814 0.48226509202803153 -0.42059699596274663 0.1939794491063756 -0.5948861657290465
Ni 0.5129835364351683 0.08861771428315449 4.678516340736733 -0.43320851407917005 -0.58909475585825 0.04276927264672634
Ni 8.62248731518766 2.3656432115160655 1.3134840830682883 0.2583840406346905 0.2866756884905321 0.15010125966618668
Ni 7.012339875500691 0.8132312963727737 4.936582583303744 -0.3374958564661929 -0.48041859610606935 -0.8699906044422113
Ni 0.6576831273452874 7.344994816047648 2.400344626177439 0.39381792809668953 0.31431350481245873 0.05335604702363714
Ni 7.650514815806764 3.7891479633238068 3.7547533462356646 0.08086839351129299 -0.3793192202598822 -0.2455750617954803
Ni 7.468262662113366 3.856409507531332 12.571818700023668 0.6498018439303196 -0.16470846805640021 -0.2355667856298588
Ni 7.757507095597546 8.832027358605702 7.0443997720535405 -0.48594595368220184 0.2547911810771096 0.2539514587846336
Ni 6.953544504794943 0.6432870335937544 0.5693524172435429 -0.45349477513203185 -0.4116336161218717 -1.2781995111532505
Ni 1.9226940935426713 6.391088285201891 9.072287645830134 -0.5271435109664341 0.1782862067408349 -0.24745865197143835
Ni 0.11622589707545151 4.959810128606121 1.1611316471203252 -0.29584424236367757 -0.5272417271071952 0.5333247000764815
Ni 6.38050781757374 2.0741225379724275 7.075094824270343 0.18234546441187308 0.2960815551854643 0.5731017228641032
Ni 3.4526153173791183 4.311171681623572 0.43398990907534035 0.045510325726973236 0.26483828090046646 -0.24951810560362833
Ni 6.018135798305883 5.64413066284483 4.603576759901773 -0.7086621086016377 -0.08834233329083495 0.6056973974119375
Ni 5.159822352961057 2.6566240652827577 9.408401031748062 0.2810657985029224 0.21939506096600278 -0.5210507678051348
P 0.17071260626153958 5.555753168362417 12.237561394438808 0.042078931447921075 0.017563462805060076 -0.3101215782182981
P 3.909995617389548 6.198120708936107 12.516868645529033 -0.5798146161079046 0.6198389790196422 -0.2804549043918008
P 2.3993549565863703 8.5290625057908 1.4076736371491585 -0.20804775427398361 -0.29816003498104776 0.03754453391267727
P 6.3915471320122945 7.751371144132921 5.671094660703305 -0.5246947923156254 0.016564589226900503 0.14160710615224645
P 4.673399748950909 1.0249468134919077 12.572832661504698 0.6138904747456911 -0.03963072701774465 -0.9753181594371332
P 4.054622332629779 6.065549968714344 8.078115058122314 -0.7051512672349017 0.3731776261385186 -0.9201445995887831
P 4.592750674275113 1.0902740034987084 3.800604738389866 0.26248623572852214 -0.7522988714549818 -0.2306099558452157
P 0.2821242106262572 5.451154089582764 3.4167442932010283 0.3367103844504201 0.25263788217953265 0.8569260579487692
Ni 1.4836856599409856 1.221405224315279 2.4292483764344075 -0.3814475794567947 -0.32494913014943394 1.0944314553622376
Ni 1.9286591020779293 6.4076337613652985 4.8497921589655535 -0.47028613565775784 -0.5760844596415111 -0.9193066770685199
Ni 5.843342154530628 5.37332107474337 9.0237371547912 0.8707639922731262 0.2968521148029017 0.8300053222985255
Ni 8.682182385521655 2.4382939564967727 10.388904483003968 -0.20357763431777198 0.5376156141423515 -1.1442681763787068
Ni 2.3071717326764847 5.240471427636853 6.977901173130766 -0.14107257380501512 -0.3837350899393907 -0.3858796470862193
Ni 0.3491653284248628 9.025876640507164 9.429219181446001 -0.6275533169447644 0.8705883859272103 -1.3237023806810557
Ni 1.4962634607438374 1.115384620123 11.389884198099082 0.2522342189832108 0.3321528469867247 0.0564781375923866
Ni 3.9910675508906195 6.861901100662004 1.4598850059754174 0.5989770479689684 0.43930768499837247 0.291772129176833
Ni 5.605587530770856 7.773611718943115 7.908722311215409 0.12790698295733455 0.10398132537967254 0.3878622247338868
Ni 5.480340345523 2.8216019861138695 4.837941315462324 -0.7781029770022794 0.1354595984936119 -0.3912684222019584
Ni 0.6407093941588353 7.6147787465729095 7.088907912662774 0.8228432573324473 -1.7075418574087948 -0.5497247387010598
Ni 5.0610443307761415 4.494890345711007 6.871767206785328 -0.48893383266593216 -0.27705899133637446 0.10966783424148854
Ni 8.012877838078339 7.008471167099242 8.9452158697362 -0.555025839198999 0.8606857821015178 0.6972713502661928
Ni 4.485605445547528 0.13398416833773263 10.423009396811816 0.25670048228468045 0.8644776450437822 -0.4355304773441273
Ni 8.167320276262712 7.038530131678876 4.595452472258729 0.4214560015289322 0.316959427075738 0.4538953530045603
Ni 7.143291156391614 6.005360063584818 6.85882322823378 0.6028175047609812 0.17396443943702944 -0.10295725499053236
Ni 2.3180311071893906 5.396236424274747 2.4654468912771788 -0.45670402609794897 -0.9470072283075819 0.3300756527427218
Ni 2.234467005718083 5.306230473465211 11.253331387322714 0.15907363836812602 -0.5339178535757901 0.755912299837853
Ni 1.2186341494602875 3.304353815640781 3.8052004040909373 -0.15932097849224175 0.27983449719898257 -0.4790579683131168
Ni 3.541091778820639 2.6974254434236253 2.8762101547497707 -0.4925148651489711 0.19191845281228884 -0.49632626847526146
Ni 1.1428884377584207 3.436771606925741 8.3514833919665 0.2590281019765926 -0.6569842206113718 -1.0873573221242756
Ni 3.576638911132561 2.531394874027468 7.279054030894385 -0.08670891145247002 1.0015832637812492 -1.3422035248090367
Ni 4.161623609416845 7.087896650280627 5.8261875817189 0.5123131308218208 -0.6474402856766784 -0.12715442106202618
Ni 0.7443044081533685 7.354603608077294 11.031042600172455 -0.3541141817491643 -0.6677741121380242 1.2948301777313957
P 0.22055776506551664 5.640261954443381 7.848504515397406 0.31184113201256614 -1.3019292506700224 -0.48332008602358056
P 8.482512047025452 1.6593070273742248 8.063788241242156 -0.3876935603665065 0.4180989121312412 0.8114972361920089
P 1.84494205166982 3.2045141478945385 10.407365419675909 0.06033633499621222 -0.09223832591113146 0.1163601586599996
P 4.005363777983417 6.1464509592860495 3.6660672547807636 0.25809556285999424 -0.6572899247772487 0.5952425206272007
P 6.77470221269259 3.842464163293549 10.35182336282589 0.682010053231748 0.1650781926909931 -0.09675575416551079
P 6.353255915834229 7.763634050065888 10.17928256691976 -1.1408324112242805 -0.9686726290961576 -0.22827385151287138
P 2.2860107974201846 8.283867366105447 5.76579884297153 0.12857906932369467 1.2660384503106843 0.3759153367846558
P 6.979248923173875 3.8526037781038593 1.575263386001063 -0.5096121869508901 0.751087881866016 -0.11182216158033
Ni 5.322272117836802 2.7856140009841073 0.5400204099635303 -0.3270697760368625 0.18685569357740078 -0.42978946109529204
Ni 1.3487757006857897 0.8341709055205256 7.180294002702035 0.23833586373456372 1.5447925699612943 -0.28397397328865287
Ni 6.795422295131051 0.7513337613488392 9.355373635358985 0.05050777894156463 -0.1889017774731521 -1.1982533723459106
Ni 2.714897610204125 1.4999432322233555 9.14830596651936 -0.3954798891801447 -0.6646574208859134 1.0899842182241615
Ni 6.384826375789312 1.842260946777653 2.525888712302614 -0.10739240794375053 0.49933934426997234 1.4313285019021673
Ni 4.002241820273411 6.7448231880386045 10.194609849786524 0.9509759831473428 0.6421831510427972 0.8022793171381667
Ni 8.01130336372891 7.140682027469706 0.23196145785351 0.12268764353992419 -0.2790827066346226 0.14584479838267783
Ni 7.726881320252118 3.9097616954862042 8.184328198035038 -0.3357045688937251 -0.5701765787975083 -0.3354004073897449
Ni 3.0066791966399538 8.440873948230317 12.327314529652808 0.5705568449550625 -0.4811991830258358 0.022669416573057734
Ni 0.0539189987206661 4.947727162598803 10.009771059661926 -0.007920283288341198 -0.314116301199988 0.5986662015967689
Ni 8.706816161342976 2.377258333716697 5.95352207010428 -0.03894372825304906 -0.03305487357243985 -0.20574224606925856
Ni 3.772800421078612 2.6739972651041497 11.388225151984601 -0.4930661096667508 -0.35627030886021865 0.3896208592962064
Ni 1.131624198412805 3.4128845817958613 12.548207882679657 -0.6424991396213192 -0.24152763119898402 -0.5988461788180589
Ni 3.134373564876632 8.19636258026243 7.8710878757659595 0.24581494572042828 0.07399609187149192 0.3338202073868186
Ni 5.600837116733727 7.910069161558891 3.512488528239504 -0.13598024688377228 0.3773081033671244 0.3142908791046394
Ni 3.1587644217983284 8.242436198224809 3.598211908818597 -0.5378233592777834 0.48957712267688586 -0.2962003401515157
Ni 3.4622061154162003 4.327663175809285 9.345787335820045 -0.05465599678198328 -0.2583004797819487 -0.5383414365647825
Ni 7.192999560852098 5.968796270692979 11.267816551337443 -0.3058908279664022 0.43485453432302523 -0.12967950147672505
Ni 0.587752174340762 8.900845383170088 0.24024229323186827 -0.08337727597607576 0.6439322725234201 0.09707508517814249
Ni 4.534495123346311 0.3196533812192014 1.4544994040007484 0.5416370765969187 -0.4298408831585178 1.0782108797383174
Ni 5.861147210173579 5.535689866652574 0.4257828490664981 0.27723151235849675 0.4046759538571159 0.15814855545069537
Ni 7.810805301574724 8.669460632778282 11.426201473292782 0.6647844333820809 0.22349365651540867 0.5566764874285445
Ni 0.09856029487487954 4.762074144310643 5.538980068193063 0.056436485721173775 0.7001725830733877 1.1820055430284804
Ni 7.760350146422797 8.764981742308954 2.6492069415475137 0.7229461293244775 0.05001052759017194 0.4358590643281397
P 8.534064835723836 1.720909460920095 3.597290616399275 -0.09720621143936807 -0.3716434488821793 -0.2751167800083391
P 1.7590567251576428 3.4030868528442832 1.470419588922527 0.48943416934111844 -0.715025074705188 0.9773416176250652
P 4.690476047894981 0.8501180814311516 8.248008937722151 0.5889716000168244 0.5948200883778014 -0.3238605250709455
P 8.495305775739082 1.587564979018044 12.37960507204635 0.38382584988098406 -0.13321091166875124 0.6202526695182932
P 6.268486216861073 7.601157294201295 1.4116107227223544 -0.3304793159390437 0.073778319433731 -0.19025289218440783
P 1.788737815893414 3.209138603983713 6.002862497416812 0.731572694651224 0.14809991296544173 0.5091987535625553
P 6.931079005077689 4.004742985239929 5.907789438301006 0.7753266998087228 -0.11960566218049079 0.40869895897358005
P 2.3040047899850657 8.411381794416476 10.02246492171682 1.1497721369160714 0.22353196595251182 0.4222581857152534
