# total energy = -340866.00891077163 ev
CRYSTAL
PRIMVEC
9.28672060138151 0.00000000000000 0.00000000000000
0.00000000000000 9.28672060138151 0.00000000000000
0.00000000000000 0.00000000000000 13.59205431622614
PRIMCOORD
 96 1
Ni 6.11217602453233 7.12499508213891 9.83420457026146 -0.13860688587334194 -0.5323435671101349 0.06287992735367234
Ni 0.3089552710683429 -0.0006658578816478106 10.284550165570918 -0.5880429175549678 -0.2438681064067026 -0.8497573081144719
Ni 4.761329616380439 2.293495003363341 12.356306136296814 -0.2695827375639874 -1.2063448911047934 -3.437863431716267
Ni 4.288876982197025 7.037997081646906 7.84006051131095 -0.18707552289769072 -1.644018897154485 0.10597315899872072
Ni 1.6650347463932953 5.0241995354588616 1.2961884841877849 0.6549353085021431 1.713638971445468 0.11339876203883052
Ni 2.6647595276662166 5.214280136875423 8.86851654940733 1.407202298277925 -1.6356702680794735 -0.4794297498302388
Ni 2.5988795302825407 1.364488601012987 0.2973533707678881 -0.1030313027615774 0.3891855715310007 -1.0513330815108668
Ni 0.5319684418000982 4.617589751775908 5.800055839013978 -0.9485162087529406 -0.7693306301262879 -2.2506385492703753
Ni 1.4948648743805408 2.6042658283488684 6.901528719431918 0.4310475018721093 0.027673554655868467 -0.09846759465029493
Ni 6.852624847677981 0.42857752174484853 0.8745212113932034 1.472691124009354 -0.33333452599965174 0.44351298132897166
Ni 7.058223559558049 2.44035520615802 5.4236241832557495 -0.2818181032879147 1.2862817739407526 0.461776812635166
Ni 0.5727343601134789 2.006442463311265 11.72982116484178 -1.0499146038967853 0.8470352811976185 0.14060900390503525
Ni 0.8169193969342256 9.015929312089847 0.8840438149056393 0.18629339331602757 0.48311799731510346 0.21805397355707606
Ni 7.313097612024216 8.384645891995381 5.929071607783744 1.5354710354500523 0.15065070441175346 0.7741311368387248
Ni 4.734351692444777 6.299517043311706 5.117598872601072 -0.06985764422308614 -0.6252334105623361 -0.07004430631259549
Ni 3.9650676012026618 3.279252556547025 9.790818868009266 0.21640743909258858 0.28153451060922485 0.0004185755946573436
Ni 1.054776462199117 5.685441916867077 3.4828685535354365 -0.6689804737412994 -1.1245922952163343 -0.24229613393389238
Ni 7.17769722270169 0.2545165137152123 9.733895912841062 0.11124083515556325 -0.21572635386516398 -0.4255137165380736
Ni 9.07508572361142 5.525626738550798 7.720558988004897 -0.19510842050449623 1.3774111830584213 -1.464430940883091
Ni 3.6820362112587244 3.7954177855549323 7.223864297834686 1.1507794951346633 -0.686483001401437 0.21297475926195578
Ni 7.683730639312419 4.558953396619363 9.65007304219195 -0.6605919925672881 -0.08319524187225671 0.24185004753540928
Ni 1.7199099796242145 2.13059663374013 9.567175128934919 0.740860547711053 -0.4762130426651541 -0.4317391286224952
Ni 1.3478653707738018 7.498924895312538 11.629905335711394 2.0217075237894795 -1.0483084357519301 1.3695132683675835
Ni 3.464494776424694 6.816443783425542 10.505938160161971 -0.12948615451899637 -0.9231576753834939 -0.41484003887431137
P 6.062640655763718 4.34172771029267 6.771561990451822 -0.2742986549824179 -1.4443333988022673 -0.6196733999760554
P 2.928353810967353 4.990507312381898 4.393441743761903 0.2576605322051046 -0.10818996414438142 -0.9145948734151474
P 1.806592231608882 2.470295594030161 1.9716358337378204 -0.6827276481240628 -0.4621449946078622 -0.4555151479961703
P 7.129257686987953 0.675820675726357 7.498070516998569 0.6915488459601187 0.4780452107778863 0.08457001073259629
P 5.020224818954744 5.209933951539143 9.25196246538883 -0.7298536550775881 1.1680670785705172 -0.6868974632310363
P 1.0096429990916085 8.477299505457031 3.1919991712329105 -2.1832262812639884 -0.6465226589584157 -1.5436666838869673
P 2.4606095442315743 9.16501832787749 9.113390660911735 -0.729651309258795 -0.5026013028506956 0.4869347999580324
P 5.241917417988168 5.322702602262287 1.5580712248447413 -0.2815237119759474 -2.8250901012941534 -1.7774833195949389
Ni 5.008402823371234 7.4682044228928595 1.2545208252843345 2.3751131095073936 2.4031427619511 2.9724158550977324
Ni 8.555865163458991 2.1177809590305903 9.570247176176887 -0.43070580226197436 0.8231034529723695 -0.20394401651825522
Ni 5.4876347637415765 4.83719283862843 11.29582669885195 -0.15647193907922083 -1.0103782363650597 -0.7909266111295088
Ni 8.478748233902456 8.15076911526709 12.877479693834326 0.4816786937654156 -0.016537078423074746 1.2239320080589373
Ni 4.6100953680870695 3.6689419349250643 4.957470731793698 0.12909457550753253 0.915491674197804 1.4532965215328262
Ni 5.673666354887588 2.2758502338357145 8.29985255902225 1.722040822355918 1.1021925873648954 -0.7615653843585722
Ni 8.820676007185451 3.675944122411291 3.5275321085702616 -0.2213634975462833 -0.5884182986165156 -0.3166706921907256
Ni 8.575766606141993 7.3390075630674145 4.117468261629016 -0.6051512951004804 -0.7845839567409326 -0.33108943871921687
Ni 4.882567756476842 6.166754082697519 13.064737132126465 -0.6382506487576104 -0.60729379536478 -0.8140349150121982
Ni 5.0165844243995705 8.716441852881198 3.7817718780055145 -0.5345634575795891 -0.9758076974790421 -0.06157149295489397
Ni 6.490628470737511 6.046388894356693 3.0086690871687884 0.44694591826992053 3.1160821577718525 0.620956380453537
Ni 1.7078465292998002 3.0178592260764403 4.024525831150362 1.0207048151020486 -0.11791284785910015 1.144044490403675
Ni 3.5044369626027585 6.2125654764237215 2.335509056952781 -2.1927002821926944 0.32365997902436516 1.9150278256420374
Ni 5.354741789036135 0.783536421660036 5.794197775530805 -0.5499430253594528 1.5351537613199495 0.43350547649429855
Ni 6.850776790237982 6.2704496071951406 7.4411336317491585 -1.2285954749728776 -0.2083981956348669 -0.14275973169945091
Ni 0.19882033436521818 0.11106825214392818 4.91858444577105 0.8167191467125805 -0.06451206364045664 1.264738757662654
Ni 2.8947730285400377 8.706161452951154 6.182821967032624 0.5186871526689648 0.22348337210276348 0.9149735969108049
Ni 9.01944897927457 1.673522809208164 2.364473410468421 1.202367137403968 -1.547336933649703 0.2704587124110374
Ni 0.966524754398571 3.3286486245035762 13.767120615368546 -1.5590030571337214 -1.6265384809815344 -1.6519936878298451
Ni 0.7338496793423195 0.39510353660677966 7.631068431649096 0.10392116156569844 -0.6869727965536622 0.32074743336326045
Ni 0.12050263180872609 5.273575849209052 12.059210936367277 -0.5778068416492566 0.1966613668139129 1.0140227750961828
Ni 4.243984973830421 1.877134162836173 3.6275565923340563 2.8747057074387525 1.011559658267671 0.14405505347210676
Ni 6.298588371231303 3.7236778673439237 3.2784446118370756 -0.20827632534502197 0.5462948870839044 0.018500115686716525
Ni 8.372675308879009 3.3060726062290176 7.283574197916175 -0.7457014207431222 -0.5293896266881335 0.35330865512873344
P 5.294220229556375 8.062480260583328 6.169868848855185 -1.5764191957276399 -1.8601604841801964 0.6442539175288969
P 2.930201868407351 8.560322789444916 2.2325490407428377 1.963388476333612 -1.3926202866986919 -1.5421623314272987
P 2.5461681029989567 5.7064856262089725 12.8252725354904 -0.2092235197496397 1.206156429243071 0.08463120298783489
P 3.248272055944834 1.690731102858002 5.63846039631957 0.38643629092063775 1.214911549727882 1.8922221406014315
P 0.5905202877973266 7.194691921773036 6.222129870179775 -0.42443411032064965 0.3938438962386185 -0.13663304997642275
P 7.79043506135054 5.222814633294311 4.4120894791363625 0.6507426105770342 0.08486620181677643 1.156953742266175
P 5.174709419529519 8.950847972695318 13.403927180116439 -1.0691855363112555 0.40820607849756146 -1.1676999250390858
P 6.882750969966202 8.26003667224712 2.7102830330474936 0.18664254912533015 -1.3302682068240315 -0.5378626971561511
Ni 9.23905206612709 6.8018079114384165 1.5429022950834645 0.812133584224427 1.1927568680077136 1.1172152860259725
Ni 4.788149666062432 1.04754210669279 10.161582838060806 -0.17511038011601454 0.5806921336168516 0.5990966042659682
Ni 4.407960603066899 0.8067049327218904 1.6148038022364635 0.2723415312560471 -0.7417843450769032 -0.8646445096389496
Ni 5.6803527938664775 2.742136485405262 0.5426778882312873 -1.9896019015041864 0.9536638143921511 2.203180355788412
Ni 7.1904478903656015 3.9199805716991736 12.66473670763973 0.5415085214388544 0.32090427065609894 -1.135273171968948
Ni 7.294960646293975 0.6249415184574049 4.005741580980083 0.26159072049744625 0.05242916433399357 -0.39486848084839093
Ni 6.694072663391048 0.25535231858757357 11.976638987010467 0.2201738481135563 0.8718747088388017 0.11958843578931017
Ni 2.365272068457566 7.238432376759942 4.463223092555345 0.4530234919225682 1.0422444889460372 -0.18590464251804112
Ni 7.259615386913898 6.375751734391857 0.5583780184225535 -2.4195628551803363 0.46354984537518873 1.6556215143904196
Ni 3.6497462830231675 1.162288828947188 7.816967222687609 -1.3805895807864028 1.1080840131486658 -0.14484361081167316
Ni 7.134077495085236 6.443758390839653 12.013541629469378 -0.678353173205451 -0.46485956532554784 -2.2858868309497082
Ni 3.013030131258353 7.8791789653537 0.0612106341634177 -0.5631309848046366 0.31815961803142623 -0.7381171806379611
Ni 3.622025421423185 3.9291837120159516 0.008408197015954362 -0.8266541464381054 0.4085264379514577 -0.7732443633583973
Ni 3.4976669431366325 3.7062931259988092 2.3387714819712313 1.038712821643695 0.7877548982697465 0.7404555989631506
Ni 2.6785410213393734 0.5225303474469787 4.005632926346676 -2.9535491001002168 -1.7519874893166794 -0.17555569518354924
Ni 5.3208824049847 8.993065405470364 8.415139768427442 0.5693792797071936 -0.6541179548071703 -1.2028502476879737
Ni 4.526960643449535 8.504927499848971 11.477171282008175 -0.08708737783781131 -0.125638498638132 0.3935554184639222
Ni 7.650725633574952 3.0611724919063623 1.180074756631036 3.129904922587558 0.5469818858486 0.5790003477367254
Ni 2.440503793690884 5.72493834044655 6.351770635259652 0.9650098355325898 -0.18380456545590282 0.07045182616365932
Ni 1.874450300523813 7.117231383546754 8.00712026052644 -1.2323354016312842 3.1714572921080477 1.2728870978014013
Ni 0.6473559477899733 5.742880285039904 9.742376546279289 -0.5221190611686491 2.3313909860290947 2.556104630994533
Ni 8.37571206658192 7.664172805299164 8.60086211177068 0.2029960507826891 0.5479409073277596 0.6942757579729786
Ni 2.2026801606208872 0.38017141822600536 11.535047054730873 2.0254842172230925 -0.8660475606340633 -0.3155442918957662
Ni 2.0801790264951374 4.362576398497681 11.162597544853405 0.35145694663197535 0.4707311936149764 -0.19201024119514673
P 9.268676705491895 2.198491849538277 5.240920024173817 -0.6461886726577646 1.11130740518197 0.6406523162205676
P 8.571931190449934 0.9825814946687113 13.081550740142134 0.5608303616959179 0.457183793947845 0.9049948884315381
P 8.734179489616864 7.331615333307419 10.968502294033268 -1.5927163902257666 -0.613196276892144 -2.971151129452696
P 6.5209496141626175 2.653476161889339 10.658332319883762 -0.11170569060712375 -0.2347823420553505 0.049446170446269685
P 2.7358772355833563 2.4445435172406302 11.60257173036894 1.0980279144642444 -0.44439049883791854 0.828908746800237
P 8.692036350608248 4.9214976900872704 0.6687330504087334 1.0992057368224295 -1.574563887686456 -0.6325939646924653
P 6.2697809632972525 1.8239862596748004 2.4503486464152195 -0.4479252514640544 -0.4262565082413691 1.190800772722607
P 0.6823483117794985 3.876880900447744 8.864167578054811 -0.6324926632279106 -1.479823364178761 -0.48929070178471856
