# total energy = -340860.15056363976 ev
CRYSTAL
PRIMVEC
9.30647164709446 0.00000000000000 0.00000000000000
0.00000000000000 9.30647164709446 0.00000000000000
0.00000000000000 0.00000000000000 13.62096196809148
PRIMCOORD
 96 1
Ni 6.987205973337182 6.894131948723982 13.48458906891671 0.8660460179721665 -2.2161140331309443 -0.05045301444422924
Ni 0.6616947992211675 2.075082633342131 3.314878710008328 -0.973296501021414 0.030861465465546845 -0.6977930270976176
Ni 5.58534420455803 2.462445909662025 10.797241100099846 1.8183178371127975 -0.8603633657650925 -0.6162669453976677
Ni 7.55869779449981 6.85536118714628 4.004658579870203 -2.516070755001099 -2.954299862223312 0.15661334975309157
Ni 1.6561424981568635 7.718992465026536 7.401209025225049 1.3053753002370938 0.9942311942915523 -0.6603695921438368
Ni 2.567990606506172 7.677308777771008 0.7946023844932449 1.130758571928046 -0.10440632873223309 0.7747538580243882
Ni 8.51115934584602 1.9977272396230097 10.93264747305402 -0.6136125384939561 1.6828518108612824 -0.8565540193213314
Ni 2.591796561406739 1.5619237775105237 12.836190425976403 -0.9936095015471534 1.5897655351275588 -0.7815994201913119
Ni 7.080754628012905 9.098807202077994 12.9017349763162 -0.02013430885602984 1.1555926002525905 -0.35812844511488
Ni 7.16405685722126 3.3258352192751133 7.177143617886301 -0.36091912048613967 1.026996047427399 -0.5782842955063072
Ni 6.661916864017592 2.207923212017146 13.212020191777036 -1.9527798475798308 -0.23948823217145207 -1.8677200416950095
Ni 6.365961753856168 3.979289137704861 4.935610082912394 -0.7208326825259005 -1.1080709005225433 -1.4634127840312217
Ni 3.690416252593996 1.907268333589582 9.48209703568484 -1.315295130453967 -0.7952964580624302 1.0295846340901817
Ni 8.002290773520732 1.8006254730713664 1.3920760136665855 3.8720502505483063 0.19016264646344666 -0.6297906909157154
Ni 4.525774469102899 5.56616356614909 1.8824582103802696 2.107748462640647 0.9574263667583769 0.454914538297694
Ni 5.259440868098708 1.0285326519549791 3.797551425471179 -1.3430615019339578 1.6469828648788152 -0.2842282553913041
Ni 4.135191153535311 5.6150876884760175 4.456765119306698 0.9212779418622778 -1.7085589858193995 -2.5793913694366157
Ni 3.7356363991388957 5.9429453840163085 8.121526221050658 0.09646419106702096 0.7876551394670888 0.38872585828576284
Ni 0.6047922386079793 5.612305053403589 13.148069840059 0.5961418925130184 0.4545281014925527 0.31440375053341985
Ni 5.051552900714477 3.671021565333331 8.569886905581962 0.47890010257901394 -2.033450780368337 -2.2519138164383734
Ni 7.907727713417268 6.187631140953643 8.016154624582253 -1.2819785185797083 -3.084288153189708 -1.4191784968031944
Ni 9.117122338608219 6.214154585623938 1.925786351205355 -0.08799060637837104 0.2527728650955001 -0.29300317337045667
Ni 8.569110745832662 4.094224064609474 8.957389778979067 -3.654982809274215 1.2547369092549359 1.6298901710625866
Ni 7.951123791486597 0.013408764589811014 9.441642733355959 -0.945731446918952 -1.8444183908545912 2.0125837071113404
P 9.242089642128473 7.509559623321159 8.441155134212888 1.0559327850664073 2.743241860368095 2.1163554875833683
P 5.445626143212366 7.517451511419548 2.9926207185586033 0.8072340900402808 -0.29918847624556216 0.0309725371221144
P 4.037845458359421 8.12515481441099 7.459710437695906 0.3659101459428279 1.2470660229732393 1.2710485019307658
P 1.8138499695192576 0.2913847018535008 3.7079933859093597 -0.6447550255350314 1.034670019032889 -0.03571390846184171
P 3.0185820523313245 6.586943927082892 10.650243516501163 -0.41769344916270645 0.6103377243974263 -0.1294288189184997
P 5.657599651723003 0.21957968792433233 10.74619044896339 0.2371045624306239 0.08989245138677422 -0.33629797950334983
P 4.289659972706386 3.661622028801051 11.871336376762486 -1.6192049234345987 -0.35838426987942795 1.2404125222124638
P 7.277679571600078 1.7742881578373542 3.303750961660162 -0.09906769012813905 1.032207159314693 0.727164281170883
Ni 7.449048943585629 7.965055579792362 1.9755434027596475 -0.4158178294065484 1.0891059293842662 -0.5686285175840982
Ni 3.4373918969111936 8.65860177879742 9.7759823865148 1.266848090696173 -1.253955036783589 -1.195588681029554
Ni 1.107516678241574 3.050940654829085 0.3337952245577122 -1.0519064375158336 -0.11305500554616658 2.881129094466593
Ni 5.709176118516959 5.402016016291312 6.655066370115206 -0.3584207795443182 0.592835710957921 0.9449156358858757
Ni 0.032671299950715264 9.271479480117522 11.599434773651884 0.7399244090500289 -0.5902867192838221 0.5586942891895217
Ni 7.053133019668541 9.102790372014445 4.304387464352261 0.19100185453529042 -1.0527281620861804 0.3628916708314782
Ni 8.729126222204963 7.314216779942387 6.026567755855071 1.0051131313113786 -1.0292827865790466 0.7031676611459696
Ni 8.452444815170619 3.8619159151849436 2.473185578135541 -1.2258361670601858 0.09768495084799951 -0.9837076690524091
Ni 2.5948676971054043 1.148911864870863 7.401113168565363 0.32246158784088985 0.03188553585468702 -0.1194717077057878
Ni 0.6875007149145927 6.237430071631099 10.437443593293432 -0.16903357779431533 0.03533287097333915 0.15867871692255253
Ni 7.779568290064764 7.31667368850132 11.410538523298769 2.081182025006029 1.1953806787838057 -0.43408500314685244
Ni 7.880143330960161 4.065895164407236 13.363131235917567 1.313041815643416 0.6055356750230926 -0.15017402188565104
Ni 2.147133338127192 2.6416047985560085 5.040478199255653 -0.16007199772565336 -1.153337999890459 -0.3098945498091566
Ni 8.86795086225647 3.8094553335686436 4.775890552343783 0.02938668069223326 0.7690449805650691 1.46526115009387
Ni 3.264021633485604 6.827423158760235 6.025001476648751 -4.571108003290959 -1.9547133171571176 1.2065577784465478
Ni 5.180819794212864 7.918644204855253 0.6041547452887108 -1.1131637416644184 0.7857214127794855 1.1945707812880006
Ni 1.3671951612714859 5.473480413352084 8.296337126313077 1.366353382582363 1.500037634343107 1.5545596766503873
Ni 1.8122492563672257 7.6352156057556595 12.243542202438693 -1.224469368619646 0.15422916579163115 -1.531847322654536
Ni 3.7004579356814515 0.3358026305280219 5.380048089574038 -0.8169685437192252 -0.44721896942564915 0.38506537871504004
Ni 1.2948559558601858 0.4455222106279913 1.214480612037377 0.10799121787001402 0.6682639072902491 0.438359205042174
Ni 2.1691524504394444 6.504488586809623 2.744937347049935 -0.7825545850157297 -1.8267399997382217 1.1930088361175197
Ni 8.09727262485583 1.705755299398037 5.273368933815747 -0.7140385424222025 0.8095601670702961 -0.20305981414108898
Ni 3.1550707679574828 4.276993864567343 6.234886612884296 2.1416178616945825 -0.1172297057491465 2.2491953890659455
Ni 6.404108981822324 7.252710307722745 9.5835050058076 -0.6919123999471245 0.4292700982567123 -1.003178119072195
P 0.7789749570229432 2.156988891778365 6.719452264714143 -0.8443981006850877 -2.3289792912638085 -0.2845609561403744
P 2.7424218077185736 5.05855136751871 1.0427129230581822 -1.990722902482507 0.23607457850421276 -2.443984221447494
P 2.0347483844996535 0.5784949412027677 10.633816663102026 -0.7346827010351153 1.3679585222859538 2.0779928286447698
P 0.8294123116668491 4.730758817281116 3.351437323235809 0.3513792993165045 0.26992083762969643 -0.9684348020537384
P 2.831931453626959 3.4428175699788364 8.293136630656193 -0.5504837283542713 0.9320521496596464 -0.41030101335337726
P 6.459166069074767 5.049626461048951 9.04408700910522 -0.04859822062367759 1.1045960546000655 1.1192279455806273
P 7.117477965791496 5.290263902747135 1.3542358992702976 -0.5639185137029386 0.136885532306861 0.44921748791291666
P 8.77436498169349 1.6548768179901407 13.003864198004559 1.0271107186283923 -0.23319648562546935 0.4696904110552879
Ni 1.5394765674948212 5.369489897300897 5.251207432484739 -1.387299902927043 1.3991876555035645 -0.6906913830558299
Ni 0.9262731396612232 0.28925445045524445 8.819817790033744 -0.3620637756135442 0.28001653130280163 0.18333173958454232
Ni 5.619526875531361 0.8098054368488219 8.441060208200383 -0.3282367997617702 -0.6838057116795901 0.7578205726041594
Ni 3.0141614782196084 1.8059766943644964 2.5795790252091373 1.4175152501681585 -3.0712369764327043 -0.6204588719918283
Ni 3.626387726512722 6.177198586049994 12.80115714347926 -0.3409763588156257 -0.6981694366004298 0.03399075512314791
Ni 2.783668090798836 3.8841956087079916 2.8172374652796153 -1.2403104494169608 2.6354668722739447 -0.6124174897445904
Ni 4.1974142240846435 4.874720629774028 10.11172545562321 -0.5781709098568946 0.8172889031731215 2.7185001346470408
Ni 3.6516641039599222 8.98220641671865 12.629982276754625 0.6049636045697065 -0.6930789094513999 -0.05020078922410709
Ni 5.524182071795511 4.831976004731689 13.141518083901847 0.9762890079908347 0.259432793614179 1.616814311715235
Ni 4.813558497011509 2.3049245677359136 6.671710994954792 -0.30604457993544715 0.029903472427651727 -1.530329857568745
Ni 0.4238465071256809 4.107783594042673 7.049883199711044 -1.2909246720294025 -0.28929975637694044 -2.279593541741829
Ni 1.4633589345269806 3.506753031341969 11.892611901976789 0.6743463660389031 0.6452301653992372 -1.4660059986796947
Ni 3.4362658138216826 8.370333814354474 3.110292678823754 1.4145718512691188 0.7623102329443968 -0.10065766032307827
Ni 5.986285623254753 3.3638707695794983 1.848228076400686 0.815216594025125 0.7352869102780175 0.9366971046308256
Ni 5.061231631401181 7.666047946875901 11.526112804817013 1.0779938786315049 -1.1523100728465767 0.023631523376010915
Ni 4.194445459575933 3.1799562735884894 0.4414487679149428 -1.935441870522015 -1.0233237407821343 0.06124444863277839
Ni 7.908220956423418 1.096041798494741 7.505476874136296 1.4065063006521648 -1.2108746606543468 -2.9665830504660393
Ni 6.927542182536739 8.122549002303032 7.323024424867288 -1.333426292837039 1.4547232266770238 -0.5956605820012257
Ni 9.197558174497818 8.213892023158802 3.9367306420988046 2.1287050102876566 1.5501546056041562 -2.1950602977844387
Ni 5.0080172255679365 7.46339952312303 5.3931106534123625 6.230839940305327 3.45621828007437 -1.7139197359106806
Ni 0.9751693425727078 3.2968827854613276 9.656335592930686 4.134222040360203 -1.9017611904401186 0.01882150358187726
Ni 0.2224553877149012 0.09668958891299385 5.966948636119335 2.2188008359344886 0.8740951135288882 0.403432311258002
Ni 6.047950305495236 0.9801110791060156 1.4861700275906162 -2.4314122983197546 -2.1693870613880506 0.17808026137761587
Ni 6.425448721692144 5.598605926893177 11.264630727549521 0.18878710627215872 -1.69929838645308 -0.941241015247766
P 4.13170122660501 3.401803948693927 4.273263830664236 2.161653183078903 -0.9370963969517732 2.056532344778148
P 7.769917478793502 5.478189488090037 5.8358744257946435 -0.37268808809660975 -1.262411395081058 -0.5131219998763614
P 4.021661503874634 0.8813154356214821 0.787757474473946 -0.6132968070257502 -0.009703857551325223 0.0626302732367115
P 5.999519426174459 0.5632509403712085 6.085232962229857 0.28870608865699954 -0.09796982907826998 0.25596257567739145
P 1.6011970885661888 7.669677470883415 5.040246468107481 -0.3464592363070678 -0.6779610799733551 0.46164337238109526
P 8.886535886469304 4.605009770128475 11.461236459153469 -0.40355006778278885 0.023443575734920917 -0.696176060319485
P 7.310112625872352 2.174978301795095 9.053185946597905 -0.8032370530657457 1.6800737338955132 2.275432211275288
P 0.4994346018472967 7.917657718842954 0.4268469136385592 -1.6791291105940565 -0.9114460433735205 -0.1356100080285471
