# total energy = -340859.98859985033 ev
CRYSTAL
PRIMVEC
9.37199782863974 0.00000000000000 0.00000000000000
0.00000000000000 9.37199782863974 0.00000000000000
0.00000000000000 0.00000000000000 13.71686615827439
PRIMCOORD
 96 1
Ni 7.4451993297092285 0.415838350042607 1.5920343719881929 -0.4609221779443545 1.601568441299758 0.6887298884540849
Ni 7.99951550633233 8.4574781744872 13.260739465419121 0.1953133374264507 1.6359186366448535 -0.6712895814904503
Ni 5.418411104698034 -0.07415312029008402 3.095430264023963 0.28013145961411107 0.4619616749524625 0.3532505481972884
Ni 8.487402963178871 6.392527174796243 12.543786326515745 1.991502975181641 -0.8142421459269977 -0.4369026751013056
Ni 3.8891072621895875 6.134319265856617 10.342805466046443 0.6882274948963696 0.43065772263285834 0.40117591112365747
Ni 3.369776753022172 2.4325769819081455 1.7221251978169887 -0.15058128462639875 1.4343027540391429 0.5093903007480711
Ni 7.329961245853047 3.045365052251052 3.8002307334953023 0.6929662951329356 -0.9520501900481281 -0.727713983026766
Ni 2.755882786949351 4.360518747059943 6.203301855009465 2.5589739821225286 -0.02772214850561677 -0.5744304689778559
Ni 2.8110651094725454 0.17053661915099277 10.435146822294536 -0.5132127598179549 -0.9219343444993542 -0.3226631623287346
Ni 3.0434437927202684 6.411496098163591 4.659522962036162 0.46460734010542565 0.8392913755861415 0.7260533074948915
Ni 0.2802780263495897 0.7985035769868619 5.295491731517803 -0.12545209365893878 0.30620424544176295 0.775183232252323
Ni 4.4542106081782125 8.85199241813765 8.267415935304818 -0.5926513628612567 -1.3574907899854107 -0.7709216287624916
Ni 7.446586385370477 4.168833277873992 13.540398939919776 -1.1465240622924189 -0.4333368121269182 -1.4051659845741866
Ni 3.246891119033701 1.4204574610912635 8.260489091796513 0.1112907145568922 1.431510021785354 -0.4874626474370443
Ni 5.719036675278281 6.853676322172899 3.4702436312858245 0.12261359576887916 0.6827906401515145 0.7339409377730843
Ni 3.8347590474626854 7.672685830151736 2.025158434609227 0.4960732719241908 -0.4133688536454236 0.03611474344468619
Ni 3.2658694143987597 6.6373706149997815 7.165252134878841 3.166280633003115 2.5833022744552476 -3.176360900057252
Ni 6.387541272013916 2.8734451262378946 7.44189382611651 0.8507299564403865 -2.035739062181881 1.2962777088111999
Ni 7.631777060142609 1.5172139654610757 13.33446709701312 -0.4225574621232271 1.4454166045641172 -0.5371461307051006
Ni 0.262757076628613 4.117362266444409 9.802936223895061 1.4415761477721045 -1.4883877088090043 -0.6192566241536108
Ni -0.028832013758551916 4.206508708672775 0.9728705316023977 1.2698781357717486 -0.038441848915966054 -1.2091090841134917
Ni 0.8701356298926491 0.3649830788626466 8.11234686117629 0.37319356697811856 -2.9223593047609735 -0.5440413151630372
Ni 6.159558055692718 8.07125814881111 6.030551569999101 0.35332948106433987 -0.018190554866097705 -0.6360374431563756
Ni 7.714916051838134 5.659636953785073 4.844207548931893 0.4949378727681669 -0.8041803908156215 -1.9377957154661727
P 0.5268177981388455 4.567996032389166 11.950791915338767 0.32324834540824327 0.3111266224440448 0.34238918000275226
P 7.467232896328119 2.987071226487759 11.503059719885378 -0.2069923164262758 -0.5088565397317881 0.37929479477985
P 8.890005240854034 2.270984997372665 2.0333879857993793 -2.6315911913686225 1.7354457829079144 0.8467177499572
P 2.246392875378633 8.13397555749406 8.63268204849834 0.7107421310591179 -0.25704449588766054 0.6907723728054104
P 2.129214787996246 3.500806653021624 8.039126254658465 2.332676280499421 0.16667561908510006 1.6001754176069731
P 8.100255109729376 2.9421606134559752 5.85682753442655 0.5346470184323309 -0.23730613691846875 0.5019487568683614
P 4.74177161394913 3.0007918311368686 6.063650654315535 -0.9324182747498135 1.0248399203163447 -0.4597389562695308
P 1.7353003521993096 2.3730554244446935 3.9530495909733845 -1.2274135388496348 0.21993936350524698 -1.7978839947384777
Ni 5.43498079665133 2.7352456479894203 10.596375173318824 0.2559003549808883 -1.5459179418149893 -0.9303847892595527
Ni 4.907103025571354 0.8865366258871447 6.3576989569021025 -0.03228020018994441 0.2192287105914676 -0.7901856191984262
Ni 1.5730148398332047 8.340309459102524 4.092371834547653 -0.26625547296296725 -0.44150392131874283 0.8968576040363844
Ni 9.109038199361093 6.2166147777581395 8.871314665818709 -0.6447308571653154 1.6893129931055937 1.0545662437361838
Ni 5.724331853985075 4.85774071362678 11.479535068430646 0.025385272842324023 -0.6444315807573417 0.4114215001110656
Ni 6.646011596889453 7.647128392393457 1.3079100777779509 -0.9728856387362406 1.1346715338292073 2.0400705996776995
Ni 1.0037784428539671 7.430485293302738 6.902107057544988 0.5485278901794811 1.9320230746484532 0.3845460158764603
Ni 3.3586896797298933 5.669327599418392 13.273235149967384 0.716070999471199 0.9065928290462774 0.3005089948291986
Ni 6.536199899708023 5.018311150411745 6.670580288889208 -1.0735857222614802 0.18500681329412008 0.32678026982090175
Ni 0.763023068052027 3.786540119238869 5.2345484420015715 -2.0689911393667915 -0.4257119485918087 -0.20413427815219037
Ni 5.812953464341617 2.706820378931532 1.4639604000668345 1.562253188639903 1.5757676781865702 3.063868451882775
Ni 2.7197537357729056 9.050425725675622 6.298990888839978 0.3522830420776965 -1.2394727840070137 0.08075372231029963
Ni 8.32498624284481 8.068971381369591 4.966355606700496 2.0012014334163277 0.6140617102162328 1.7129879681250306
Ni 3.116395422903784 0.9054699356631902 3.649482150311611 0.9495495351134615 -2.215722711229797 -0.4211585248931714
Ni 5.901387634743937 5.946363851759699 0.19278105571838416 -0.32612103897034805 -1.9124194414849127 0.47637527927463125
Ni 1.1173201951244316 7.568900327498569 13.645743942992077 -0.4578512523285147 -0.7573089230750635 1.7405471086902218
Ni 9.358314594482001 0.35844798485866847 2.87512365102796 1.401579809884825 -0.5250665738327474 0.9289418861654387
Ni 9.392616106104775 1.62475763919641 11.756849669103971 0.5583595315579222 -0.20110937528293749 -0.14810556939239652
Ni 6.328760102369644 6.095669147295875 9.216416925936713 0.36397950457901834 -1.4780883837655254 1.593639159150352
Ni 4.581932192985632 4.200426282158245 8.457325410924508 -0.7054423161127593 0.38096241229026 -0.5145049962668172
Ni 5.101347050132447 8.43405755220706 10.430099064327315 0.9819292369957475 -1.270694975246089 1.4194824011968585
Ni 8.507712082218912 1.3279933316731534 9.351830109265665 -0.19057813673431048 0.3589170024544464 -0.5151392874167064
Ni 4.722165394737424 8.410655673922342 13.640202280745479 1.3161556786820496 -0.18623708615679538 0.8307267738455822
Ni 2.4164758898404064 4.376020031274169 3.545795990834182 1.2255255777983023 -0.7704076652405506 0.004934461187139888
P 7.868860486241324 4.452158140679472 8.313175651329232 0.41147446483618816 0.3574712711468553 0.6981761214686492
P 2.841983329921597 2.1334603029593926 11.625812271506353 0.044328132493413976 -0.4328876404046416 0.6295106977814513
P 5.849672951373864 0.9921196777013086 9.010787798556127 0.29163791759181384 0.3201020864697777 0.30861902553084264
P 1.2276942121685304 9.020566540967929 12.171386248664502 -1.1540568803343545 1.185869911079893 -1.1515839933138297
P 8.300759628761512 6.55319133155832 0.7981568130715497 1.2503354377531306 -1.3485919448338837 1.5680438271797512
P 8.295033338160005 9.07474605973603 7.0247911935826695 0.8910559097529429 0.19871207869535454 -0.4846997399799265
P 7.489022791006521 7.32997998984847 10.810152315509477 -0.17748247989261692 2.1428609900730646 -1.0040093567242387
P 5.55917851031936 0.94108915016415 0.5376499530933815 -0.4775698138033646 -1.6284634659183888 -0.8497130851400979
Ni 4.577667934027064 0.831404912151591 12.018718280349571 0.26583561181672927 -0.7156377685885222 -0.4800211035573347
Ni 0.7612536348841639 5.0561833931624625 7.18783021456475 -2.2775610846928322 -1.4062155088846233 -1.6251459715093821
Ni 1.5757327191694355 2.1234322654084727 9.71385913444976 -0.11292079396114744 0.05575154383900721 1.5804054340688976
Ni 2.308135596299625 1.8151122847073802 5.79913445371654 1.5396475354252452 1.327139945607695 2.6350081874699716
Ni 7.220074572689928 0.9922415136715534 5.4051450419379155 -0.25676655963592554 -0.29587252449845175 -0.15831721981807573
Ni 2.249879258527177 5.675531861903168 8.566950605351487 -0.29582110243522597 -2.361065630275392 4.996342498025718
Ni 0.4766982287792097 2.3926054116701323 7.707493429650911 -2.5150806231736875 2.3697611011668607 -2.8580624424551164
Ni 8.362108725778636 6.523707026759072 6.656795017455891 -2.2220630516255278 1.2367271029410765 4.107872346722081
Ni 3.027961252501464 7.903321321825187 12.300434908347821 0.4746557254803631 -0.5012082791579111 -1.2683344454337122
Ni 1.5848235569492415 6.775944973156702 10.494650572962337 0.42355607859107053 -0.34176208794171464 0.8904046493221891
Ni 8.015194858503069 5.250015049824266 10.807038937869835 -1.4724008464624447 -2.1791068597789764 -1.1699771511090367
Ni 2.210844888060278 3.721095459221976 13.257240898673551 -0.8222573029219903 -2.0066819969149248 -0.9407933861873862
Ni 3.32233570060838 3.8288453169069556 10.490659039137164 -0.41063577098497667 0.6906283910283783 -0.2441272736053602
Ni 2.907559197906445 0.8297413825578636 0.17943064497886488 0.9224665628537403 -1.4562144665105694 -0.956966910623455
Ni 1.845918041183898 6.423792159160607 2.6094687527070626 -0.8641138339464602 1.7132268236087138 -0.6567098839040626
Ni 7.102493489405963 0.5479104161875379 10.91813178713838 -0.8706830025235457 -0.1839513754464122 0.8551568818634886
Ni 0.8450074296295398 1.518779089078836 0.7592311577780997 -0.010201366013034044 -0.6758062384138813 -1.5788751134673003
Ni 0.02433345485720459 4.761115417224922 3.0828933426857708 -0.6968396620454127 0.39985950630507905 1.4568955517379942
Ni 4.582691324800234 5.055368029361594 2.2349712217680664 -0.29528836986020757 -0.32255569021659286 -0.23185565532685873
Ni 4.998517491245817 2.7580102304297798 13.145654145125631 -0.7689390511148242 1.8238385098207104 -1.3703288222903431
Ni 4.911648444461258 4.800862059517869 4.7454866738418255 -0.09302945435385913 -0.3560718196961674 0.02430129574952589
Ni 0.06178583211046332 8.373954930885517 10.067329651324043 -1.2127500233001887 1.5594956804994238 0.5332766204473656
Ni 6.809843488877896 8.19857673771695 8.323010625727301 1.2559759238683597 1.3310469939715852 1.479081343806414
Ni 4.911967092383437 2.423055032233627 3.861132786221605 0.2559276086743979 0.22627970390097804 0.22430098290805242
P 2.0459820763236096 8.818037670430188 2.0318931521644523 -0.8069445838243199 0.707425407981059 -0.8429973636828191
P 0.44223551879580464 6.336688812433269 5.153975503279356 1.9170178594888725 -1.1646552246754909 -2.48107726964505
P 7.589481234472233 8.346091981690297 3.2168248131765917 -2.3448656234767618 0.8804046006866838 -2.9674811368002767
P 4.345860942639719 8.384704612260196 4.920047628809982 -1.1040090717483437 0.22409452332420116 -1.0036591724736714
P 6.697248308376257 4.935087810736819 3.2975898778518853 -2.332451051862493 -0.46575970854231397 -2.5250158800095286
P 2.240582236797726 4.817272427510075 1.3834830557212727 0.7350313426237858 -0.9725164283222799 -0.3118251911729662
P 5.437108240131759 6.694839704964494 7.482015348317901 -1.7713602374163364 -0.053223378100514786 -0.4663063250744033
P 5.121656169172489 6.715692399871782 12.208600577175899 -1.8754582908795314 1.654800561151021 -1.6704009866924392
