# total energy = -340874.48839268566 ev
CRYSTAL
PRIMVEC
9.18145513990352 0.00000000000000 0.00000000000000

0.00000000000000 9.18145513990352 0.00000000000000

0.00000000000000 0.00000000000000 13.43798767295444

PRIMCOORD
 96 1
Ni 3.013932056612815 7.736441127433989 1.092695093211094 0.42651464699876224 -0.8854275078225718 0.27284675302723976
Ni 1.1083669192391032 8.67686086657798 13.159928601281486 0.5256023917315593 1.6248253549451697 -1.2366751666572184
Ni 3.071343696517403 5.745653722093799 3.139960384453266 0.5338720879395192 -0.19001043715629856 0.8077459966796927
Ni 4.148870107450172 5.510681918409451 12.211381437918154 -0.7648509970883796 -0.15535479475564212 0.35548946483013616
Ni 7.6959876354430055 7.693536186881591 10.17191212035949 -0.26776779584243565 -1.823945210601904 0.16414282536091732
Ni 3.394806366250116 2.781760596790757 12.70810367777457 -0.11708469553084996 -0.7818755566708341 0.5486032235021068
Ni 8.577765419674058 1.0757176642413875 2.4875996234584123 0.04482332696227764 0.93069974939681 -0.385611223916181
Ni 0.35525162237011176 0.5121195403713696 7.3098486793446 1.2923953430376582 -0.1922974334182624 -0.2900050099740812
Ni 9.348006885088394 4.053180980457428 4.397944626454118 -1.5847608828241158 -0.021588267693737014 -0.8279085876704969
Ni 4.1407445195218875 7.4613922714253915 4.639317740764002 -1.4235277749108257 0.8573050385547429 -0.07928536529488925
Ni 4.123492565039124 5.24887272092355 6.103910434779083 0.3193050444897791 0.04767956546415014 1.51510378464761
Ni 7.564747913582109 5.161052101111077 9.711042545250143 -0.7629357823435376 -1.4669452226645125 0.9617383638701695
Ni 3.0955735570176763 2.548817894724658 6.0440436737309655 1.435448694718128 -0.8333305300170164 0.6842880506326473
Ni 6.25314948158304 4.56113581271098 7.45050398360149 1.0460114121876374 0.7356255245643589 -1.8242540000915743
Ni 3.058912006059893 5.292227552784971 10.190107010300146 0.7088870801282501 -0.9074214955951597 -0.7843070489304622
Ni 6.648668212401825 2.5125419648888947 8.46444055336759 0.1459918654835034 1.1100920447176301 1.3286245005730217
Ni 7.305380983202336 0.3701944408483971 8.758034112763246 1.3505966339687385 -0.813006987968316 1.0659184355242095
Ni 4.386192363687786 2.820460430822076 4.088669141429636 0.00794882253343147 0.8072716281464356 -0.1286369191448236
Ni 0.5307689123486926 8.903725445244618 3.8881874745278866 0.429695358719589 -1.1255862836984871 -0.037042911685910396
Ni 6.194360623385522 8.8721412390601 4.222296041664944 0.6854116227141293 0.6263667528358309 -0.16156375177983143
Ni 0.8317461980855093 3.778462656839135 9.984532390151143 -0.868092358978234 -1.1907735190290976 -1.6773455363310723
Ni 1.8783145780842794 7.963103714084329 5.58496172796584 0.07753958624837613 0.6594691918167545 0.5812243519712377
Ni 5.136234627472487 8.655321172476564 9.45812650535445 -0.4407086791109572 -0.5597276155500426 1.6866495873408176
Ni 1.4232265653686498 2.806073090388606 1.049844323244885 -0.6223044098409992 0.11226259155185828 -0.3894599082383099
P 8.049556297059159 3.7085550562900322 2.209259215729714 -0.23689604596424363 -1.8454038946963123 0.05307862499253439
P 4.936032994956967 5.008474677165059 4.177184797407274 -0.6344934957080234 -0.5590964097239468 -2.059243058841092
P 8.640373763270635 1.2511936376711805 4.824009140864551 -0.7346330787441026 1.6106009838156712 0.2595574921175014
P 6.624713795560137 7.50139587210735 12.490112975642043 0.6176404287064267 -0.3737324702007241 -0.42832161830051396
P 2.3302533516367436 3.6545405548413368 2.9090284210948445 -0.49020267207602675 0.3887425704563111 0.15374168463225135
P 8.765673083561362 4.733352369514173 11.50376392457438 -0.6216621482713099 -0.08049995442828072 0.8473265871857923
P 8.841438452583057 2.614318396736386 8.486049108383654 -0.4747243739347695 0.6648474254095325 -0.9878710564014794
P 6.1826175420744764 1.1737664252426832 10.685189442242448 0.42064558981249495 0.06771848639289628 -0.7042279840896839
Ni 5.223697170528798 6.628854631894213 0.5150631149361244 -0.2700805031360123 -1.0531109993468961 0.641686671022353
Ni 5.319551563716693 0.7876761308572935 7.710583394911473 -1.827576122486272 0.521596870116592 -2.41036781894463
Ni 3.425242890523858 0.5608317513922867 3.4784365698699675 0.3156772179292047 0.2731845959826327 1.362594429760563
Ni 7.688578201027045 8.487456625479027 0.929746297373788 -0.4942138501179489 1.6249150864454984 -1.1324290176519336
Ni 3.6926527757343393 7.802804686242619 7.29121032511362 1.2359511440070003 0.34364670655893714 -1.3907302687648309
Ni 0.42632067701291804 1.0331616189898654 9.653756691282974 0.6351990064154802 0.7297937483739303 0.4144880548515313
Ni 1.3770254823685073 2.0895890456749537 4.0654749490856465 1.1216895197472423 -0.7846636609389326 -0.08338884594030155
Ni 6.859373429764755 1.9040593787067752 1.1845059734909473 0.0026906594582856887 0.7482918071781177 0.05181749889192367
Ni 0.9218640180105879 2.0950887373913853 11.94856136220524 -1.6210563748210405 -1.8400382595090246 1.125766003809461
Ni 4.512419010962419 8.27848670316519 12.464916307900134 0.5630983317944882 -0.6986774865851 -1.784202383486327
Ni 8.162111757412644 7.27637676595324 6.012276756586253 1.433621668811718 -0.8723747884036718 0.5274805825908786
Ni 8.266174371626398 0.2238218443847907 11.459432185870508 -0.5362362172963216 1.2906832454425579 1.5138642558135542
Ni 5.3981540024218235 4.0087610997828085 10.74289213427961 -0.6511953818437366 -1.393373619924949 -1.0568015608246057
Ni 1.0218684289878432 8.221350506919185 10.646003909226492 0.8193339586276084 0.1516017554711131 1.0150643289868198
Ni 5.620593119640513 6.517924289126383 10.387497281207034 -1.061150581821921 -0.5995162083018901 0.18732312013212254
Ni 7.748018942549883 2.862603310585719 6.118907423843557 -1.3245762986455767 0.49856852754221875 0.42995709702140783
Ni 0.5186347010424549 4.987045160527076 1.8418109481574183 1.1042368714884336 0.009560389994925471 0.36544040539526096
Ni 2.164482176444461 6.969835518312989 8.868319917369986 0.019050845983863963 0.2810040920270515 -1.3216167017966207
Ni 6.829956047027781 2.38320280427224 3.842350895302606 0.8995670325477475 0.21721759369870977 -0.2756250871033253
Ni 5.571867136436666 2.1315850221540176 12.6271259965869 1.1945016186129622 -0.3594836735911938 -0.6689575909231641
Ni 0.49800580730542804 7.320539565879846 1.472050790144058 0.5450257905634935 1.1587162334832366 2.077219697924171
Ni 6.68959914006769 5.117688087794369 12.219055298246357 0.3640093293756892 0.7593046133488536 0.9214149816607744
Ni 2.1311075864791356 4.437222892168468 5.384991468123531 -0.3420299968911206 0.7859777517646657 -1.360507208214231
Ni 8.883902683281718 6.858648094797145 12.540034384324153 -0.20724145632260438 -0.4164125255677538 -1.1996512811347015
P 8.061446281654781 7.703066537468663 2.925813039503541 -0.6698633905668852 -0.49592080550672657 0.8129748491787998
P 2.6354632882604974 0.5896624391364732 6.645380333263838 -0.4565268770901363 -0.5490349117228867 0.5580697682316453
P 8.704561317176436 1.0854683697553285 0.0008869285806466093 0.22067444189905863 1.0168193640047134 1.0532259276582057
P 3.3728626881161055 0.539463750504721 0.12052496354190517 -0.722365317120343 1.3370587473833038 -0.003158600233639722
P 9.194217509044597 8.032855229893565 8.640196561183611 0.009295052148680765 -0.34123192646985745 0.14104891965593128
P 1.612529810459455 6.275882764871663 0.09365635279237891 1.1006738367275237 -1.4471891230835077 -0.9524867633649143
P 1.4161660262535642 6.096486310034664 6.521670322883151 -0.277499935528535 -0.0970948826724844 0.3406457149490843
P 4.495616947788679 6.053590550937553 8.282678955648866 0.601395427602474 -0.933084961799535 1.0753068187176449
Ni 6.068749133615063 6.488084559446244 5.017610225174825 2.4855761859566674 -0.45962351373758914 1.7837239011880122
Ni 3.0921488741959253 4.787210786223002 1.0506100566157537 -0.0969493582335556 0.20660150874576036 -1.5273512345563955
Ni 7.529316677632676 5.380791870475624 3.431792940725031 0.931399346566996 1.40282139560141 -0.033270074907039475
Ni 4.387404315785564 3.740111718108691 8.445332108625957 -1.4576118610787283 0.23100282040826026 0.19507011106739308
Ni 0.5552301455221781 6.1002874325231495 10.176480812509903 -0.5864742875162674 -0.8246954800498377 -0.0025579905351633364
Ni 6.784948553214844 6.619939438811315 8.141485618112203 -0.5522549613220812 2.5649314852575436 -0.6299135896468248
Ni 0.8186644605937361 2.7336405896357996 6.554405883560557 -0.36633592062633685 0.3133354571699055 -0.4174628212091391
Ni 2.287164781978622 2.289579504718892 8.360658891685592 0.06807072752599244 0.3742513188186716 0.8166173310273936
Ni 1.7428972940681629 4.261471475080089 12.054560345338855 -0.3012289037143586 3.175644847826834 2.038945742044637
Ni 7.506620120165197 6.2244757967242474 0.9056330413556493 0.3308112453571657 -2.080998448240313 1.1395247481564503
Ni 7.507620898791393 0.25469816036674187 6.363800708110169 -1.5632980849646496 1.2038591485684622 -0.43287298511662226
Ni 5.340779088338379 -0.08979830528111901 1.0550446995189868 -0.44008235838086784 0.48758631749910214 0.8395348590555154
Ni 5.918806787336184 7.058234569808491 2.67428064491948 -0.055781111525362 0.20275976640216692 -0.03217992716665426
Ni 1.9094029856833417 0.6860089583277078 1.8081085802383756 -0.8967097656046105 -0.817921651661114 -0.5534916619426596
Ni 8.43489279396555 3.7588051610713875 0.001047604048155053 0.06988078415153771 -0.9645058993129776 -0.16370856603697612
Ni 8.938523160779303 5.113556432915582 7.787851768163518 -0.7213314765391899 -0.057489352465720345 -1.2875858374641567
Ni 5.938308198364066 4.386155637866641 2.099953990547541 -1.2679531508348938 -0.17435396156596422 0.5000001177824227
Ni 2.629908507812348 9.328542199881655 8.81217531829489 -0.22980160101130748 -1.186365619769389 0.39572928618678943
Ni 2.933612685769165 0.4158327006394954 11.266274565850557 -1.1626788176754104 0.0995780541056543 1.2664588256775544
Ni 7.866698433579263 2.715011416860106 10.8916638450095 -0.6158283151983523 -0.02526340255247907 -0.30471943336612034
Ni 0.8758190197503112 6.538793736991908 3.8742252354741673 -1.4089524481998121 -1.023406530303928 0.5721429584952599
Ni 3.8049878811609568 2.4538632841548105 1.6413696796589274 0.9092647194514856 -0.5750634745761645 0.2626081060183671
Ni 2.0005197479435584 4.502705031269623 8.052190456580767 1.2826169234946554 1.6292679640975551 -0.9586183301839492
Ni 4.182951669472534 1.7331098627330774 9.90905164624332 1.695111344954926 0.9904226191787395 -0.9518761263641091
P 2.521016448118054 2.7038192228662323 10.758977125795498 1.0523406968397748 -0.08503923705953097 -1.788800544379971
P 5.72288371298403 8.211260087559655 6.30725396129354 -0.4040756012689557 0.10704839434077049 0.3396141883607764
P 2.4223984368890146 7.8798830033702405 3.233489115017167 0.34460675647936134 -0.39879301271377765 0.01035331820986604
P 5.098434576059216 4.056587300368608 13.665224484084154 -0.3703234445191751 0.18073389695037906 -1.7567594567840263
P 7.794109848086591 5.157526422281178 5.542699489283476 0.19660480254436463 -0.8308818113662076 1.7468460543250561
P 5.335003952963361 1.1994010484017443 2.843464567041642 0.848807542606693 0.10333546426555752 -0.33328798903243245
P 3.0956286457493936 7.344998962762275 11.038325657314621 -0.08071669842477712 0.04412707222620142 -0.7323134294719904
P 5.234118122278631 2.794899259305304 6.554069842297082 0.6155326383348043 -0.117122747857637 -0.26018638395075183
