# total energy = -381165.5265861349 ev
CRYSTAL
PRIMVEC
9.24945588236559 0.00000000000000 0.00000000000000

0.00000000000000 9.24945588236559 0.00000000000000

0.00000000000000 0.00000000000000 13.53751363316683

PRIMCOORD
 96 1
Ni 7.360374549215455 3.1909234456252595 6.787018369556156 -1.021503913964576 -0.0064776373045436824 -1.506280787039341
Ni 5.0514606922039995 5.609443351684236 4.157505431662358 -3.6937637866971547 1.238703252830841 -0.9819840014930831
Ni 2.7011185234892667 4.818420657963299 0.9159005189357481 -0.16194736037149526 0.8329147826358365 -0.31616289931637165
Ni 8.643431283875799 0.05442287189795054 6.734316821348311 -1.3102976772393757 -1.3753776975681604 -1.3671578807615294
Ni 2.7729497958017606 4.961602230896264 5.084582067818706 3.5105490323064505 -0.33759073017284436 0.26236976475531587
Ni 0.6943418339509696 0.2517794313183622 4.651543829633714 1.2002588328117134 0.12022889758678648 1.1010651586286715
Ni 6.587508536868381 0.9055947754885963 11.611342030093473 -0.20029793512523567 -0.25754328990095005 -0.05981260128225828
Ni 5.701956406753714 1.4116611655427709 7.064659278776364 2.5932673560877593 0.3693927051747896 -0.7288887200611577
Ni 9.084935548785957 4.116849449503 7.993833691466382 0.36774539937935374 0.2940832938085129 1.706031077191223
Ni 7.076471758543334 5.485657887177656 0.010573052714449135 2.7915544314305536 -0.19733448162153758 -0.19620679577499758
Ni 2.6635564842334025 1.9143043320735287 5.237285030362601 2.658269729101073 -3.5683847123679966 0.21153288460910666
Ni -0.12037334032990332 1.0000603906385748 2.6150551138207034 0.3963995727809367 -0.5469656878986838 -0.7998581092911837
Ni 5.563048082315261 0.9767887603091601 4.784103327737466 -0.02704363438135342 0.30917309826209977 -0.03803484328553449
Ni 1.53385572368343 4.714595518675666 10.067456196740244 0.9829491936198298 2.9555884991277486 -0.4405101899469059
Ni 5.527391430916256 5.57213104773 1.6302008282145442 -2.189961285994977 -1.6215063178742652 1.1803060438388704
Ni 5.66264622038646 4.773570047682165 6.745648329423258 0.46723140799183405 0.34002273665310473 -0.9352894256500215
Ni 7.998207759027105 6.802197651167286 3.2316756221230216 -0.016176609759862463 0.3274276735969135 -0.22922875922697294
Ni 1.307318056740653 8.022524577841109 7.0353912263712095 0.9956956946522206 -2.289655296853205 0.6759479061980681
Ni 1.1308846908687984 3.8388108136913117 12.455324331833939 0.9791858699226557 0.7193951787484256 0.4937610788512464
Ni 1.2582589441543193 3.290059110915668 4.749284677017256 -3.535964129945446 1.3327495784849888 -0.6627424632513876
Ni 6.707649715862327 4.479770339501111 4.458539139080547 2.542911786453343 -1.5276361127866658 2.2719308829902487
Ni 4.668542479164476 3.1984340035853096 5.173902210809602 0.42286136651689105 0.5096422688578771 -0.0491450942660831
Ni 2.0936420270087526 8.143155977982692 12.555380317958122 0.6550823756029686 -0.35028760891422256 -0.7351475564866758
Ni 7.825871901993061 2.0099437031411553 4.672405051829645 -0.5153976832844156 -0.15464902693786917 -0.74941203682549
P 3.42815348325993 3.691651974843542 12.291358307186654 0.6552142731951426 0.3598112321339416 -0.32438837254995745
Ni 6.754581453657021 0.8585548190631969 2.54407756626155 0.08054906249866128 -0.4532389503674839 -0.0673482475376711
P 9.207611078618639 2.1041216602214816 6.25777006889204 1.8661665811649604 0.8351994649049551 -0.5011388593725563
Ni 1.0678311519357218 5.385356790479653 6.331373536900526 -0.7645609766517865 0.12561895825410624 2.060182025715594
P 3.1344000223569557 8.905708847318124 4.679959082231089 0.5101233222593538 -0.32799383051302866 0.6484980375172316
P 1.3895364677097184 1.1549425249255583 9.445664317803116 -0.8089248474791423 -1.096583211597918 -0.571709470502267
P 0.3429587148880383 2.432162853092318 0.549366791574096 0.37251762395701654 -0.04371749549260858 1.3897303667454066
Ni 7.311879653421686 7.896491495619881 10.557013233465733 -0.12110975752984304 1.907088773300619 0.9091189379022406
Ni 1.6447104492390883 5.208414704548928 3.262554004750891 -0.8869686270574466 0.3808256296020796 -2.1289695768029526
Ni 6.186618631567309 3.2982726275025205 11.567114833120847 -0.5301684138356869 0.34090951013343224 -0.35768081605450014
Ni 0.9277296477228262 8.0793902309672 2.675621474138685 0.44828443457568606 -0.7188945849629231 -0.31385893377354335
Ni 4.129807936820771 0.5811950932937101 12.261182883185588 0.35784356688460955 -0.45512408320533876 0.293455687526843
Ni 6.34186149462331 6.991866988025386 5.310374228638848 0.748768232593904 0.397006096016684 0.6577228985496092
Ni 3.750053037601859 3.8958522064741024 2.8752460000760967 -1.186373590189189 0.14068253745544804 0.4412488678851433
Ni 3.4394008212887726 7.231131905895537 8.252765726812461 -1.3493956716821018 -2.303940603127626 1.8838927948001298
Ni 5.105496011911647 5.215444290816954 12.723218164726191 -2.2626018922798385 -0.7567677058596128 -1.0830656367274571
Ni 4.443706712055011 1.5428091967195483 2.178293969750341 -0.14106511760584736 0.25910112130637314 1.0171788042266612
Ni 9.068739752002648 0.7656024148519673 11.173646691005914 -1.6636883505589541 -1.0708711515437945 -0.5507069001086708
Ni 0.05138350078259057 4.899270149501222 1.0742123513650792 -0.1684273116688841 -0.7370792262917499 0.9919655381858272
Ni 0.3813356311836562 6.221146849381182 12.810805884680242 -0.36189742523900903 1.0999842668596669 -1.1321204852725792
Ni 8.940126071664606 3.232508998074007 2.826551316041026 -0.3137128951139823 0.935920117255485 -0.5317743248702261
Ni 8.2637411308462 2.9315779596131533 12.54222204239905 -1.1843894698796247 -0.36654572264429774 -1.1334404896355834
Ni 8.966320529968621 7.079413085429167 5.615698758517219 -1.8583439997967477 1.518426935483572 -0.6178890543821229
Ni 4.787989948987235 3.3413565917610315 0.74732086582729 -0.9811483929656651 1.1529055403387307 -1.1911674120334066
Ni -0.07006000156206366 8.608107612878966 8.933878989341679 0.10139453848910279 0.8844183498317671 0.14631890980561896
Ni 1.8516207713650852 7.144899231189204 4.900918402491961 0.36693627321449707 0.704592052297322 -0.47719906072750723
Ni 2.6544457704518156 5.767988270395087 12.006691511480666 -0.6547141936302724 -0.5461848438686012 0.25553911498672766
Ni 1.902372534329115 0.8547088954181371 7.232443478701861 -0.47409985297689317 1.409221899811115 0.8948601139903815
Ni 8.039848808209548 0.6541501744635269 0.3766433823497484 -1.7912739456211277 1.2319625916728978 -1.0175698690174928
Ni 1.151954950761647 7.402598314101694 10.451853397732737 -0.4871942242670061 -1.6672855809919092 0.5156002862135249
Ni 7.764991985129703 5.563103579048955 6.957171355064866 0.17062843308526096 0.028175691103267602 -1.7428027374936177
Ni 5.840272766032756 3.0371049987340966 3.016712723937888 1.243487818703678 0.23877115149976944 0.7707974444798016
P 7.373860255503327 4.91429126542132 2.458074278054489 0.8381318080604017 -1.0324776393672603 -1.1850121910652882
Ni 3.091972769447168 9.307634691648166 1.1934831565855764 0.6456654531644428 -1.8628516578591143 0.27198954723326707
P 8.497086397122223 8.314465145443382 12.340824395820086 0.37099013156889654 -0.8420689383312787 0.9061462284271621
Ni 6.32728435257277 7.594598513774982 1.5501810128453604 -1.4778040197558873 1.3221214093471811 0.9245183031764463
P 5.165173499544948 8.868452040097582 10.184203750468743 0.18789981857119897 0.32097831842714397 0.8829240246744279
P 7.178613496908885 7.594875997443456 7.2400650301293 0.06217133132242196 0.2742739723920696 0.3109556440838193
P 2.5365799575393626 2.039366221455093 3.0632957572558652 -1.0147624814756846 0.37487429711465114 -0.16475011992761304
Ni 1.0416736914541698 0.2871077270430044 0.37399156342469153 -0.9494695738051454 1.3174530573372343 0.15305262898502675
Ni 1.8944087530438898 3.4435815752271255 7.448745698060166 -1.670522085651336 -0.5752290536197513 -0.7564967115864133
Ni 6.598450642861901 5.824372951829154 11.042630927044442 0.27358980184085135 -1.5425667659545692 -0.022089632810187766
Ni 3.9790233113715976 6.9648863259940255 0.1105901911250456 1.4787800105159112 0.8789627260338346 1.3995972322371573
Ni 4.212664560227328 -0.2380042170697146 7.422469844546732 0.025992053188387494 1.7620284184924493 -0.7090434032004562
Ni 8.41129769628545 7.735134742401821 1.0832786677597106 2.0834440815673276 -0.6809610431419433 -1.0678197663119802
Ni 8.396702055323678 1.7420517201400267 8.171067135249006 1.1071877265866414 -0.15335524782711007 2.5636333352714105
Ni 3.761318874541933 2.37509371194268 7.260695940880398 1.1177405624018233 -0.32099811592148586 0.7000849084555879
Ni 4.05453586701919 6.954166206935285 6.140209488014909 0.1994453573169533 0.23224080658041937 -1.9562009574462371
Ni 3.6169718702013736 4.969140537223161 7.396031200614459 -1.9544112125356663 0.6489942604273597 1.280964475492897
Ni 4.271426351754662 7.298717678080369 11.413449927192907 0.7106799103626148 0.9603232286901978 -1.3283630193815188
Ni -0.41549202088177345 5.07075505661861 4.464861141993963 0.870983821593416 -0.7332894202320146 0.4430712658058628
Ni 2.8909451010928358 8.740254585262253 9.870485339619012 0.6021217642455373 1.8019463377333098 0.3416453598581923
Ni 1.785394669155781 1.5992586243429259 11.56827933958288 2.4725512344519096 -0.11490954225640211 1.0392175291942554
Ni 5.184356870492168 1.671136143933499 9.380711865632112 -0.23095345522756353 -0.4368360835294283 0.8261903194278093
Ni 0.3539396685951453 2.9820892367311713 10.23331743484321 -1.9939707199958434 -2.169190886216845 -0.5740440321727146
Ni 4.9681138476498035 8.468616572736714 3.3939360471547486 0.8078074460452476 0.5466710394764004 0.25756874382224676
Ni 6.313770897918051 7.696462768472059 12.71746500333315 -0.07909870320537991 0.5814950891341212 0.1696611840759852
Ni 2.9093145199458634 2.6988524068633897 9.585196055550078 0.36559235759209296 0.5510254597903542 0.4179153353655254
Ni 6.992976922699285 3.2849719103269646 9.172870123325602 0.09706865742023929 1.0469097556321907 0.9835850274316157
Ni 5.64497051070462 6.360156917831412 8.743568665209402 0.5765094629940716 0.6404126894059358 -0.585615539060398
Ni 6.809245736346544 9.186069096489383 8.693222028401346 -0.679188781732869 -0.08166337860876259 -0.7964025466424155
Ni 8.003128469414724 6.417984514341546 9.096180111978116 1.543008481477678 -1.2379247227936034 -0.30967009250317634
Ni 4.015632656699031 5.375746606094812 10.134452778602345 0.22201887174209503 -1.5970152747114368 -0.778866080420549
Ni 7.665578836170821 8.734603167880984 4.423707539122475 -0.45773092470056653 1.400987941937097 -0.397209984497374
P 2.2211087748504315 7.156340807785979 1.097690244554727 -2.103712859118693 -0.25810301905916194 0.8333122751845713
Ni 3.277313361077062 7.088884527979769 3.108781805137806 -0.48167920798604785 -1.2535539446904282 -1.2699385566960386
P 1.5183813844381553 6.159499227701712 8.439569582320779 -0.2781954189336628 0.31576489254700457 -0.2534027853700152
Ni 6.9117852013035765 2.9799433630283 1.0026881609790306 2.283432455871945 0.006847361939136595 -0.21161927367532588
P 8.60949503122134 4.709878296311597 11.096550628556892 -0.6189007834760889 0.5192396827383251 0.6840340256403122
P 5.4427126647533814 0.23286244469287773 0.8537201286128054 0.08049069845690009 -1.0456365453467218 -1.6656714424272538
P 4.97603138165695 3.7088837106558232 8.568934318454826 -0.46412448693173614 0.6234711764555908 0.6765428594695897
Ni 2.80210407990284 2.2756528146169495 0.20117380975306254 -1.392242848754615 -0.7106986794156922 0.7252428957784542
