# total energy = -381170.19318785286 ev
CRYSTAL
PRIMVEC
9.24720618351292 0.00000000000000 0.00000000000000
0.00000000000000 9.24720618351292 0.00000000000000
0.00000000000000 0.00000000000000 13.53422097149285
PRIMCOORD
 96 1
Ni 7.767745582210848 3.729999281875785 10.43966197431964 -1.0032400826583818 0.18287254055993668 1.2640041934894748
Ni 5.957752946660725 2.625938358740963 6.9458030458748485 -1.0085519817895985 -0.811073518391029 -0.4547245337740749
Ni 7.700111516916041 0.007846254361859864 8.021056147897706 0.09954951486056404 0.0866520900726056 -0.21735643326941922
Ni 9.314895632043227 3.9903358747448965 4.4328091375172916 0.14646083470012194 0.5663602903752117 1.462587974137081
Ni 1.3837334239245564 7.299966415270314 10.815372258610298 0.6728163025476219 -1.433159641573635 1.3442825188252527
Ni 1.810843378509805 6.487349686269537 6.259360745001159 -3.166647272313914 2.0833718335684956 1.0051568400651205
Ni 9.004244990873728 9.056389985978651 2.2059293337072434 0.11435444108388047 -0.11113027771962797 -1.1076099017257246
Ni 3.811661358799279 4.441664262062862 1.3475389345930826 -0.5241283782891941 -0.311414843108425 -0.5628142248951663
Ni 9.127186595754019 8.88518721254851 10.10619200269786 -0.8094953752706318 1.216875358322472 -0.04000585096897626
Ni 7.05586791628385 0.7268211509579534 5.696364021739311 -0.9153150394106236 -1.5220313650053787 0.5469764865319612
Ni 5.701253944316272 9.209671674018944 3.3436426892211824 0.7276970137459016 -1.0261115879399167 -1.313209708679848
Ni 7.968178774070968 4.897070667263657 6.283031743133733 2.333453524985078 0.09674444131160113 -0.5197767861887178
Ni 6.802457480771289 5.326187265569028 4.109598941045166 0.69621822641133 -0.9039880444335787 0.5523976575475326
Ni 7.245038011134253 2.5217038517676174 8.694248127174331 -0.0072890774622455115 -0.7499105737284633 -0.2874161662009824
Ni 6.3921496996397815 5.6949658441794835 1.792079872645751 -0.06997462941692464 2.06530931963983 -0.9786145708002177
Ni 5.709557935379265 3.812502854552879 2.437432213287356 -0.5012093075991756 -2.5199706042761374 1.9618753821231956
Ni 4.811515516579005 3.7511568893948604 4.781085735519993 -0.9437416701824327 -1.0114105342843163 -1.3876076639754489
Ni 6.119458839443098 2.98305621048011 12.283590931475644 0.49249943853000344 -0.43326199302492474 0.3438536803634207
Ni 0.18462786722218227 1.6938847159655464 8.487932787524489 1.2706715782073215 -0.7477906991719832 1.249292598310913
Ni 4.344429890094735 6.473460382732102 6.850616930054219 -0.5606375289588216 1.4909762954717871 -0.8563622150254994
Ni 8.865546146827132 5.783082470949269 2.2537725285421173 -0.1051357506990899 -0.4791109330382394 0.9100252517665939
Ni 3.09920111888902 8.555145180221887 2.2619202418223 0.3063754809123046 -0.7044971785906706 -0.8158544847194401
Ni 0.8474981150683922 7.215363726812264 0.6805435081130179 1.3230274661012182 1.4398265120708496 0.750435850104314
Ni 7.705086513788971 0.40151461286669593 12.95729798013112 -1.103713394884796 0.12447687422986305 -0.12379450345085777
P 5.316560924036093 1.7062112416748678 4.340127165104077 0.4385152710040641 -0.22143343155227024 1.9057939657485952
Ni 3.9392912971639107 2.640946574214503 11.04722653202158 -1.5563507071125389 2.3690285938762106 -0.8588135047794694
P 4.270442994220557 2.638070693122531 13.546807367955005 -0.5699678052208119 0.2709492788942108 0.11738885703483008
Ni 2.2618573608209323 1.4092557127150496 12.525935235468065 0.7053073331967917 3.171424896208215 -1.3862480646237612
P 0.4187514050063621 9.087969194753844 6.999682816841039 -1.0548128125293512 -0.6965905221490841 0.36782844601146325
P 3.5929556877181383 3.849269745940922 6.907175616622802 0.9316361451681503 -0.0008137541505469856 -0.42597548666584056
P 1.8311225014509467 1.7113156994329664 10.028857618221448 -0.16008896700651784 -0.5453101545731318 1.5117268977555771
Ni 2.667393583613347 0.6560467344771865 8.346607736950176 0.3941089769745471 0.9345548614768422 0.27908090686240966
Ni 3.7551516824229374 6.660457384152879 0.3457095735939182 -0.2371333587860303 -0.36935079619326067 1.42082451704705
Ni 8.858416550936745 6.678045570123719 8.00074096085284 0.020339997108932712 0.34057912337720697 -0.809479948651664
Ni 2.174896634811586 2.5958941861756335 0.9722817634005188 1.1528127235146082 0.08669091373034102 1.072676065963017
Ni 8.947975741855556 5.377287326386515 13.420681950020162 1.9384379770358615 0.9837241241126413 -0.054469077582157806
Ni 1.92294725786022 6.1627172695017665 2.7939369752631658 0.36777059619033436 0.684595297460421 0.18150677056066158
Ni 4.85781627743915 1.5650248991918079 9.069552459117922 0.3228043158922892 -0.27071453717558536 -0.23647721325927018
Ni 2.527760771752317 4.021018104529989 3.441860963916596 -0.05359618805890125 -1.9725138356736478 -0.8706351800047458
Ni 5.313361390731197 8.944933411054082 7.379330561482054 -0.4126602576141732 0.19272809319777776 0.24238175166916323
Ni 9.195384740619918 1.8217365872761824 0.5941709044105832 0.18542076090308712 0.10955650547460487 -0.7380140794011935
Ni 4.949530067375421 0.6315814013420391 0.9760056132903491 0.12277763215056918 -0.2790012026644098 -0.20004545279479743
Ni 4.591866630477347 4.911218892571431 12.496592925844473 -0.6858757068347413 -0.6391065690000025 0.2883417633390453
Ni 4.511573140054213 5.863505422257572 3.2276142956089244 -0.5856772455362688 0.08802685893294518 0.1480294647388225
Ni 0.42824273733047874 3.26334827407744 2.4323832387657585 -0.05272201298406404 -0.6991824512459764 -0.8936259844729642
Ni 2.8435528595042494 3.274102774752564 8.879098852063127 0.7528688850258388 -0.5501718535408073 -0.9467238927392082
Ni 4.256304016118866 5.185934890900403 8.744540906900728 2.2433237607765175 -3.42060387330487 -0.11707929621421127
Ni 0.8082548218911845 9.079794664576019 12.459414533785713 -1.5306561305599122 -1.3439580456062985 0.24594555776102156
Ni 1.1739513067140053 3.6672384941869898 12.59680027456845 0.16587343489877884 0.353443638044701 -0.5032471639648107
Ni 0.9743226217831499 3.6973751388131553 10.113283685043303 -1.1799836275024453 0.39738173418854783 0.3786095957873673
Ni 6.812342744074563 5.696787543777936 13.147845908687966 -1.934748443999416 -0.6535209446531197 -2.211861428502178
Ni 2.9943747907263285 8.518553985749431 6.603508465487572 0.17606348805790323 -1.193083398109197 -0.6299974076098828
Ni 5.775388795487786 6.201398332549098 10.809024051633966 0.04221699968768213 -0.6807715528389565 -0.5375832182425193
Ni 4.781989187554352 0.9617464215095737 12.100784763851912 1.5011784328157696 -2.0973038702685556 0.5392063556682392
Ni 3.8311267276050716 1.6067482930406134 6.150017156666672 2.5615008623094404 1.4419260749123552 1.1025859661485722
Ni 6.965337768726268 5.232133932493628 8.333439715487255 -0.6172069407134338 -0.9737595567007616 2.6639850343182956
P 1.9960279275382147 1.8559604969912598 3.965783617872564 -0.7668698272906213 0.35013231428328084 0.13960344545865633
Ni 7.067833800955914 2.7581086752925987 4.8435589350995905 1.0189286970382325 2.4674339678300026 -1.417819411672139
P 1.665643748586501 0.337159606849103 1.022142698602815 -0.8720526291775628 -0.029855907019167936 -0.3233635308298689
Ni 2.8438210284806713 5.12952693379098 10.66020229108775 -0.08233392231322595 0.2411126551487525 1.1100123405196303
P 8.146464907361079 3.624830807088004 12.690173013276103 0.8228350298023313 -1.6249063446947498 -1.2528301791505263
P 1.7969170861480361 6.016426469260608 12.692406213545272 0.8094357256772899 -0.813535092557644 -0.9685702991903384
P 5.405324855231723 7.675449218291315 1.5185123773123512 0.34289568732552556 0.47169021509413606 0.0739680668470339
Ni 3.826937743249241 7.212238171156036 11.638509533972284 -0.3178343734815236 -1.2211318196059808 -1.3305212033751022
Ni 8.839885149945387 1.758911069144802 11.377028136990035 1.2238538465228341 0.7160874545314313 0.1935595879601376
Ni 6.88653307848258 0.8426396329921151 10.41961773041302 -0.0887987041019632 -0.4299804940601756 0.143571686077785
Ni 3.530259630471928 0.1379960563842484 4.400719482966289 -0.33673815236456206 1.0317649295709521 0.09007499971122551
Ni 8.729473509308253 2.5454506769900753 6.542266069037689 -1.7018108684622886 -0.7842319727181526 -1.1221718587002996
Ni 9.050000166574945 1.0010193057462489 4.193713377022007 0.1878036593129669 1.6311302141172745 0.4448815795417242
Ni 1.8785236798350289 5.611814967076545 8.493291543449883 -0.41045476532242214 -0.1579750059873086 0.3338078660916444
Ni 1.195802454689344 8.369276337943298 4.059034293459915 1.1697213263444888 -0.946623362605602 0.03847861569117244
Ni 3.7998896654549683 7.191626148795887 8.991148172897649 -0.7900035850946072 4.00927028337645 1.3385440736795786
Ni 1.3515161579296011 3.708961888035796 6.773254803959558 0.9799790552479122 1.2086383151246605 0.19607515529313974
Ni 7.313615291449578 7.401029130557015 3.0412886413498095 0.5209155277788512 1.456413469895253 0.2844915363550197
Ni 8.36530928653347 7.523341925423627 11.880285134790572 -0.21799509529468264 -0.4072028340440278 -0.361685566338519
Ni 5.974175984665043 7.953642166107688 12.318955946421426 -0.007400149118813062 0.9632401452266766 0.5092224077116391
Ni 8.557124082323758 5.828245825461141 10.277859910594 1.3375079191055805 0.0020771942440028744 0.2641330273033257
Ni 7.15237175897138 7.46684149625337 9.64972309351807 -0.7028131060200283 2.1878588949399935 -1.0026389587392732
Ni 5.7861155545446605 4.83022261448595 6.382684259492698 -0.7694643274906748 0.7795926741739284 0.3720697377863205
Ni 1.322378211560455 7.9777218907491525 8.624154305061312 1.8410224777991648 0.3504555019506545 -0.989663886635844
Ni 3.2154015105344307 8.76401182403017 13.113103230711605 -0.13531741648879275 -0.5860405424129584 1.7220392796940216
Ni 5.744364419077604 7.326912773797667 4.917388628470349 -0.9457227051682034 0.45341507093403205 0.2639139693139842
Ni 7.724875534807686 7.558361094861887 0.4940329097322327 -0.3716676172518954 0.49278457387058994 2.136989876004268
Ni 8.470376042054333 8.124974400422996 5.343147566246798 -0.2512983374325027 -0.5224193660178874 0.6256085345135678
Ni 6.772200622466038 7.0567371536557 6.968418013072686 -0.38099043731471804 0.9155510666808296 -0.13262032927260387
Ni 3.0320294138983894 5.213658014738772 5.2332361994587835 1.4537325806289803 -1.3777348849464273 -0.6842872793016989
Ni 3.002512332079819 9.17924836600419 10.723826767824745 -0.35007626423436483 0.5247184464647093 -0.9005319675641782
Ni 1.6950406167259853 1.2389406710689268 6.1778170323155335 -1.9967703942281676 1.1539890032108964 -1.3673257737979612
P 5.4451710662455755 4.178738451490369 10.506696820660236 -0.12423467631206991 -0.9836881286683834 -0.7336668581760912
Ni 7.5618010555249535 3.776595953330602 1.1833899299634458 1.1340482984229114 -0.7859214446054337 -0.06759430211020616
P 5.165193407655085 8.802859336787005 10.089192863754539 -0.10727670830149266 -0.7099474030719645 -0.12035642430358627
Ni 4.085646827847654 2.109796303983662 2.7467568051044795 -1.6985931328559392 -0.26912353853938165 -1.0117005547209093
P 9.115479632852292 4.573492431989409 8.391772016182658 -0.20029716379428728 -1.0647344425184373 -0.5141432420520242
P 3.400752509272343 7.288934498412684 4.472424168379057 -0.4447869629453888 -0.47663624624550177 0.27660442029745913
P 8.946977043598539 6.136187035248172 4.552614090094056 0.04204936376156629 0.10550778932652796 -0.6328947837623358
Ni 7.077820783526106 1.3395225316392863 1.6189767983654497 0.33135066280040354 0.27280150161160116 0.6053598115668606
