# total energy = -340862.8887066922 ev
CRYSTAL
PRIMVEC
9.38819997804131 0.00000000000000 0.00000000000000

0.00000000000000 9.38819997804131 0.00000000000000

0.00000000000000 0.00000000000000 13.74057964166312

PRIMCOORD
 96 1
Ni 5.015195247867509 7.688719919642361 8.302209690071663 -1.671239937653967 -0.12869939695164287 0.28182298838392106
Ni 3.2563535196317734 4.5919470246118665 6.844704774406645 -0.4735005288299974 -0.9396657003408462 0.45544264288702213
Ni 7.994878511763334 0.1659401913211807 4.3285573166792455 -0.6137909730533493 0.075873768510179 0.10233221981202377
Ni 5.729580943149874 1.5251975933697508 10.107598114199453 0.46902783777062446 -0.4636087236375822 1.2166922957773885
Ni 8.631501745957783 2.110035516039278 12.351297189757393 1.1269656805445172 -0.7208067143839716 -1.830671216471828
Ni 4.914403532035098 5.8861291791321255 0.30294125596078475 -0.13876449449712877 -0.519231455208209 -0.6158195734476039
Ni 2.4116314429316215 7.633601797096527 0.8943574904115866 0.4211191870148038 1.805194155246646 1.074476866617182
Ni 2.7717534089911826 5.263034341222559 0.9423452750126828 -0.8133972814281991 -0.8740210657578431 0.12654738360564657
Ni 9.147749478996946 9.041343619529309 12.74378309788002 0.009125102229719769 0.2965240420395216 1.1030425940700166
Ni 4.244104824229354 9.128597550876778 13.359004052400183 -0.5051096710948462 -0.04497450782816125 1.4726296746437995
Ni 0.7859481890513796 5.641913930999814 4.827161805347706 1.019310248747367 1.3072357504846002 0.13898355248647032
Ni 0.899217761582082 6.241444386761528 2.4726040470341895 0.5517656803904885 -0.755480611617073 -0.32962828079265816
Ni 1.9592985758934887 2.5149579727799365 4.565266698864463 -1.3718606855538373 -0.646063717044126 1.5581977876236068
Ni 4.894951181513046 8.20002945945054 4.089814450361269 0.4506547345800755 0.054839573547699104 1.416735691689657
Ni 0.8554199306672755 6.698762388030939 13.295384914701009 -2.0176235835280933 -1.0391954177070681 -0.09993440900380852
Ni 4.329978690168163 0.7855388635288113 5.396475400399826 0.1528968201334528 2.193119114897668 -1.2709040059331016
Ni 2.876460004248157 0.19498634348342886 3.232031509739167 0.44474094019880184 1.7876762009675404 -0.58286060202308
Ni 2.4574364710190215 0.21328112893821824 6.559093196934595 -1.725783320117486 -0.014559128761097506 0.8825944092491509
Ni 4.039845755547744 1.696513468044661 12.142714854948657 0.2717023550101514 -2.409839200134669 -1.6605644602179919
Ni 9.185931288636516 1.678103207729147 2.867150665069746 0.5878328584266909 -0.9447855380659147 -0.8297708376902162
Ni 7.1053277797819065 -0.04505209444267637 1.7825375451844134 0.25617134925408785 -1.694016312118534 -0.4576725606588054
Ni 3.3799210088070897 1.9298853451089373 9.26323936084158 -0.5742155247535724 -1.0446458992986782 -0.32075231845926694
Ni 5.2678880406530135 3.4032976269537647 8.70035668282981 0.2795789295447508 0.7091277353841464 -0.5426716885090203
Ni 6.496972415964821 3.963716841270078 13.81271792366698 0.6845824419446146 0.28795815474738146 -0.7681558930918964
P 2.7441708772181177 7.142833639017235 12.568590835400787 1.4154439694614267 1.2181642523372245 -0.6450877262841019
P 7.195585935148225 7.454596986573374 10.450604452731621 -0.68399365932068 -0.3353227600742741 1.1784124263605835
P 0.9876292579968141 0.4892144109695433 4.50527516166805 -0.17022965498494555 0.516164386247111 -1.1306629268904462
P 2.543094408356477 4.468942827440085 3.9828856681503515 -0.04850951756461323 -0.03367373810336136 -1.0600084977976776
P 0.8462833343699485 5.239113207472467 10.262248056129792 -3.6128948789652298 -0.5967702701256367 -1.9011253566283326
P 5.891095536963287 2.908070073846492 12.010255801497552 -0.06608763565769264 0.4793410467711745 -0.27981752791811804
P 6.027346484418184 7.6496086781969606 0.07789765116876363 1.2420906812458352 0.4665428665652417 0.8366675648100493
P 4.233467993562614 1.215274333025158 1.5728295651886146 0.9271562550199258 1.1242613942394768 0.9863880440980496
Ni 2.2921853735821647 6.958749812262213 6.652171567598608 0.23861302865535036 0.30323153596668423 -0.08184052761657518
Ni 4.014563332789111 3.663538532586629 10.974189064116821 0.5133459429617095 1.3699454708089955 -1.7646905387056446
Ni 5.350635635972208 0.9391673692927432 7.822265187840283 -1.0413731420846775 -0.11208544254404568 0.05556873840423977
Ni 0.21124107306541806 5.00334733939317 8.043872711410744 -0.6437168140785042 -0.008922499300610441 -0.2905729666624093
Ni 7.832274886743088 4.610648319129207 4.869689412794543 -2.569180490341885 0.2582094627300392 4.476999971160941
Ni 0.6518790592901718 7.793285691898453 10.900072041111779 -0.10458322062972955 -0.8594220848977457 1.0237595427679722
Ni 8.223481183197686 7.34670779149643 0.8569295532367476 -0.24111805446539117 -0.3731894532130605 0.6860644258067798
Ni 5.940515022073367 5.870901518636582 11.74995481138431 0.5303717880957446 -1.2492056950240615 -0.08811787598485468
Ni 7.9876402095179175 6.817044320573092 12.41185201895734 0.05041187679364867 -0.04917209084927661 -1.1018305760397862
Ni 2.1864272999185927 5.207878665876489 11.658991602193568 2.4089449704551735 -0.16000334927124704 2.5614476404740016
Ni 4.232482232556428 7.047102163016574 10.840438194337608 -1.9087317082206805 0.26579755948994227 -0.9634401770526247
Ni 5.331962506055044 5.99916310784135 6.624292368703682 1.034875707285792 0.9242946172014147 0.3962568765554853
Ni 5.768297880192801 8.575059887203643 11.883238148800588 1.2520022839325922 0.2854230470303536 -1.470747884240054
Ni 1.9601247374986723 8.893761114603313 9.297219950954789 2.7454766632358845 0.6908060542568232 -0.30373727195850914
Ni 7.655908160436487 5.415048076576359 2.7519358574868384 -1.5158224079811893 2.2338950112634497 -0.9674773232364758
Ni 1.681191925548527 3.131640670049271 2.089873417592772 0.7646566216893863 0.9764335039884989 -0.024590030634538296
Ni 7.254093197915325 3.7609974373981285 10.59160958469635 0.11430301902065475 -0.31118627203738664 0.2472632481311806
Ni 7.739021895557979 0.23383283768716862 10.994580234644761 0.19179324008833418 0.047603717920892206 -0.7293959987148793
Ni 1.7782095849572577 8.006895407838732 4.4011900652549745 0.06813551932565685 -3.0990573410790825 0.7732541335504102
Ni 5.58799749806152 3.771671820865104 6.237879687199162 -1.9663683848975426 1.748173514887228 -0.13367088202430524
Ni 8.697003217768769 7.080664978227162 8.999104229824281 0.7294098826719502 -1.492179828861585 -1.0031817186166205
Ni 2.074106874413846 6.429349210940525 9.012144439706102 0.9104296862938642 0.7748926975950977 0.1299882909663955
Ni 9.176580641377845 8.243590707723861 2.86768673129311 0.34793453530101365 0.3983093882091398 0.17184276510833632
Ni 7.56185717224637 3.627196810158605 7.474916806780868 0.7545642704503908 -0.9726249288756862 0.7773614708505644
P 7.566945576678297 1.2703173499705218 7.868089931147807 0.41173800291021995 1.3221244946709747 -0.6858620799879865
P 3.679348261485826 2.329071611613605 6.919550321736259 0.29033051163429996 0.19275020468496482 0.6631235007398902
P 0.8017860825507535 0.9719791284986184 10.563771693881684 -0.307264054164845 -0.8348839905470653 1.8016318918166843
P 7.492309386209997 2.565719970498439 3.9446597339705054 -0.2602072098863583 -0.5691167700744264 -0.10354269518035716
P 7.039751202370451 7.566288402674173 3.9597465714651667 0.5782866094991524 0.664412651864959 -0.7685395016835602
P 4.274147064417852 8.298220643866633 6.213105166063715 -0.725098656891106 -2.242408962271732 1.2204828731680724
P 4.332541668784245 5.262884130021616 9.378578092665265 -1.017082902078745 0.4014307074469409 -0.2122095989611571
P 3.2585597466456164 7.152034075074963 2.8979843305232103 -0.6061360276112528 -0.2827053909888744 0.10366636524241502
Ni 3.7394045772626456 6.049587130357732 4.953630248341224 -0.44911567222772975 0.506868819877798 -1.6253231205171943
Ni 6.49415595594715 5.58215803762488 9.18229336111369 0.31502595749845097 1.0066629922970018 -0.7707514217332145
Ni 2.1193392222976533 3.9658291862833317 8.959531088935982 1.1779144036782423 -0.03627080940657624 0.4408457189094536
Ni 8.903675053865516 3.0062518700625276 0.6544608143063708 0.8134157933709604 0.050318031528261725 0.9625593171095682
Ni 9.017553920580044 7.542592585725496 5.718993869943446 -0.5368301421265786 0.3310999802421781 -0.2294236488465984
Ni -0.18776493999811864 4.039244910743974 3.4454365629181627 3.950185818509468 -2.627138812024224 -2.6079049034952764
Ni 0.5895273285989501 2.4231319880037807 7.82277308946347 -0.15911297624649373 0.5360346428084769 0.09952483227021569
Ni 7.018862457239386 8.684282206688952 8.604214003666568 -0.49797897358733595 0.04718565654686712 0.18708632153096813
Ni 3.8545790155853 3.466395719549669 13.29424424839385 0.4043458242112068 2.1150190281601318 2.143201661241935
Ni 2.186417911718534 0.19189668684404299 12.50405165409584 -1.5717634421231832 -1.1057826187089987 -2.187657063341832
Ni 6.4954984685555734 8.701321789795864 6.117388711183148 -0.030216632792696346 -0.957338435030261 0.008435018141230636
Ni 4.558609526202693 8.516909376038782 1.8173292757827118 1.364257676395599 -0.09183337716322894 -0.8936069583095707
Ni 5.9564280211732115 0.9452227583307373 3.614253298737392 -1.1383548962180654 1.0529863008435736 -0.6758026388694555
Ni 6.687825134962314 1.2741571237946143 13.103827141879092 -0.7421162744950252 -0.8732502490300896 0.47379671991417766
Ni 9.158236098462742 1.0579468764380173 6.069516401442777 -0.39548117473172534 0.42576234221377 1.9185291539270763
Ni 5.459782849857045 6.430917040350362 2.5548681500503503 0.04972359247737243 0.3732915260085636 0.9564580893078365
Ni 6.980352060597754 2.185216222110994 1.629413185763645 -0.8769531518029735 1.1131205471313088 1.2552079353540835
Ni 6.372728976385265 1.8986414153128994 5.90061704946303 2.8771068606810775 -2.3716122954429864 -1.0978998735268124
Ni 2.2335278996141223 1.1121637317781974 0.8205681155886001 -0.1355992093952697 0.5761384528078981 0.01859241829020669
Ni 5.453258050816105 4.19060147209365 2.236704866514056 -0.09493978400269457 -1.0553679137018728 0.039971398186615034
Ni 1.655712350588657 2.744931321422889 11.091574423553347 0.37461358725409677 0.8382958444420917 1.1499006920741357
Ni 3.9746259297385262 2.5805345501913926 3.437096085985831 0.6173102990605175 -0.024430622238538573 -0.7803686331080044
Ni 9.167830838922946 9.422748635122408 9.047649673508877 -0.9951351941630603 1.2044188777266742 -1.6409947656161803
Ni 9.158048334461565 4.3986345971989405 12.511856064804808 0.4503356606777599 1.3643363521523342 -0.5520101923011267
P 8.968434857871848 5.099717212997837 1.13418844911639 0.3136894980752146 0.5875628925947559 -1.080177516546385
P 4.239091525397898 9.236862273956078 9.908387080689517 -0.006192244853640949 0.0027119996145243616 -0.45927872880366066
P 7.398108186818938 6.714525175929841 6.999973398720868 0.11933723901045253 -0.18511608517847472 1.1333512723558867
P 1.7450880151494386 3.2664176700949206 13.45535327196472 -0.7603245699729357 0.11951721623174255 0.37439247238222617
P 0.5251064386147455 4.017961861210435 6.073432219687347 -0.5804213964539681 -1.8144061607632171 1.0878404324082813
P 0.3382540316623524 9.427348853151274 1.0564982771689282 -0.911532946660372 -0.5272460979825695 0.3946782192144557
P 0.7480442701335541 8.154524853765023 7.545570522784181 0.7622636959771776 0.12260639668002755 -0.27663218821160096
P 5.670238130577532 4.922646371686818 4.385979303519536 -0.5595617793961396 -0.06237599113406031 -0.6666615958001357
