# total energy = -340860.1722595483 ev
CRYSTAL
PRIMVEC
9.35364909931208 0.00000000000000 0.00000000000000

0.00000000000000 9.35364909931208 0.00000000000000

0.00000000000000 0.00000000000000 13.69001093818654

PRIMCOORD
 96 1
Ni 2.6204996023182465 4.550821504352166 10.874016387281392 -0.2946815895141441 -0.6404042047655036 -0.16986635810825582
Ni 6.6624358317037 3.024998154214864 2.6302620058010655 -1.1423606749433488 0.7463534525048243 0.8459410196921754
Ni 1.6722734328531152 6.5387244697570095 12.154292420153947 -1.2252419851196126 -0.6338324650852567 1.2653805050117108
Ni 4.711844572242102 8.493094603422938 12.617042692056266 -0.8172876176215409 0.8515295695235463 1.496922742863209
Ni 3.212566878025313 1.8553149905375854 12.614332004570091 1.0763661132200948 0.6932568297901608 0.56621296616407
Ni 5.987476518375918 5.401563943724419 10.798488477534612 0.4265784103571621 0.1869647083514393 -0.29054597007921573
Ni 0.11751644020033608 3.7239682845785715 7.059035227002407 1.3288566711884857 -0.7015494088162563 1.4260052899170408
Ni 0.3235810695841549 1.291869880833609 7.466339873605209 0.5479990142592046 -1.7676133687793945 -0.33470518109493325
Ni 7.985135339709266 1.7026073166269788 5.851438917749857 1.008308755430541 1.101708191529309 0.5508130866692321
Ni 3.4661443029742625 6.379132510167228 -0.0548395088429802 1.6149975702214703 1.4766207980810635 1.537645674503868
Ni 2.2296667316407515 -0.2109266561447359 8.368471260696737 -1.613553638686092 1.883531811916285 -0.3166879185819062
Ni 6.2602850457112575 7.635290159040118 8.800774469672042 -2.3295071387428203 -1.3773654174221504 -1.2218422154094442
Ni 3.969090010812882 0.45229943985158283 5.977907735427826 -0.9872596480697255 1.6705053734807875 0.8157377566359179
Ni 3.9348930699935036 7.145364730638199 2.655917194334816 -1.792141692938062 0.6466417010347831 -0.2799885062783436
Ni 3.5138572666284333 1.3966681644606114 9.892538930912869 -2.2150326271413077 0.9402035751221872 1.4947614735458323
Ni 6.866279904810025 0.23836371481691415 12.984222055090422 0.9684216894276161 0.28227344565777834 0.2182720031051531
Ni 5.482108215440959 8.706947080981323 3.656848369936422 -0.5709527948419005 0.37080835457539363 0.9100597045489554
Ni 4.901527220731211 7.692674795781608 5.876875230896525 -1.4953520559419795 -1.1329301256580682 0.1329885112453
Ni 2.7746570918270486 8.582253585887466 4.355148779030254 -0.752717189939323 0.5961650324414701 0.30383265988579283
Ni 0.49479774417675987 6.326883026738057 7.3277833352978945 0.5077859323754287 -0.20509072852818871 -0.15432146839512131
Ni 0.17180034229149158 3.372729410205352 4.474538755129419 -1.9138687723369294 1.4007537144391038 1.5430966703161102
Ni 2.7055897474588066 3.4034280862910196 4.629291136715933 -0.38828388565233773 1.0125284499388434 0.5086020005188208
Ni 1.6058999394028113 7.194097242035617 10.123680693320962 0.1676168999524468 1.7638361611251494 -2.6448174602509096
Ni 6.744392504422354 0.3906336379533557 9.387062125649269 1.2164022753407955 0.2609209481239313 -0.10078313015734901
P 0.34318912402607593 9.044772822658976 9.372208531004528 -0.5829539330678347 0.30846578778243006 0.6841139869486283
P 8.161189721575335 4.605353278142368 5.838598228374353 -0.7099255486950935 0.698595725504571 -2.3882064523562416
P 9.160879667951905 6.180404883075182 11.007398486950501 -1.1749974871417634 0.22797251822236866 1.427756725390509
P 4.1903879929916785 2.996637890384351 6.1726750275245434 2.65546337000053 -0.024776949834363782 -0.880053130884536
P 2.425560203079551 4.970080114403319 8.056886245981524 -1.2083462378055383 1.0992023943883198 0.3766869248433577
P 5.526341621659459 1.577296480697762 0.5822927124805211 -0.8655798769690255 0.959589950068599 -1.534724129981699
P 5.074897105328362 5.162540796651551 1.967254785191829 1.4869023825127297 0.6926690756074909 -0.7868082180857611
P 7.577718449318216 1.9314443399163939 7.851412767215807 -0.6905093489520108 0.016347331009771846 2.371270081612219
Ni 7.638863252965994 8.067176195269104 3.064180589962232 -1.0687335363755013 -0.5020955668588707 0.32208157879365173
Ni 1.343586206268605 3.7802585443846497 13.23109384905649 1.5163703100648596 -0.9952439518267828 -1.4266038427329881
Ni 7.684003963139496 5.555581128497912 2.899010114096554 -0.10760966616087919 -0.6703457295199423 0.10701291311714474
Ni 5.490853877275236 1.7231759908233175 4.586783478741736 -0.5774471443169926 0.000574898666863526 0.1316361109824636
Ni 5.599964193100743 2.1715244493285915 11.74201817982649 -0.8528310619437893 0.5973413121377583 0.37900837388768277
Ni 1.4796537385715325 5.716304879619187 0.6756103272996168 -1.6935846238977543 0.016141899867185103 1.416144080852245
Ni 8.424130149193923 2.283646640138737 1.5285714522195597 1.9406311280324384 1.9919452049253823 -1.2431456048729106
Ni 8.143922885483274 5.533833894524975 0.3399602443841587 0.2955925313641877 0.07659804827071325 0.25593223666008824
Ni 9.024007721833204 3.348110605983086 11.192295808600662 -0.7142524582052215 1.0928563975656338 0.9031483221411026
Ni 0.7338816899682615 5.133245167918975 9.395385937912717 -1.1155337845584918 -1.5492434066437963 -0.46906280477361795
Ni 6.340511293361097 9.303906315126172 6.651264768678376 -0.3354014358310095 1.5550294171979542 0.8853722291046042
Ni 7.178158624104484 3.7432555088590855 9.414483283118111 0.8904879530646148 -1.6396667908333762 0.41983106433099954
Ni 4.445695843009442 9.298920820198182 1.5501606095240477 -0.8176360020998951 -0.377707138577756 -0.05539493183053686
Ni 4.319374812985999 3.6366613246201247 3.2560183191856913 3.314222423124137 -2.5597638250136754 -0.06723151945414874
Ni 2.1774078945625597 9.269597130518545 12.187436140093604 -0.4544460833017076 -1.194041391147092 -0.5195322742780795
Ni 1.7705428694637262 8.49934284096871 2.154136951164165 2.9517467567841553 1.7699217051975968 -0.4586385241165004
Ni 6.8335327795888405 0.686317449333518 1.957411004962531 -0.6814066153197942 -1.172591191693116 0.6950679148569706
Ni 3.563487728331832 4.103286813311686 0.12929174895239184 0.1568339504043299 -0.6815868496514004 0.8471435246407087
Ni 3.379847537110042 1.9909148403894819 1.4043353505628118 -0.840673857755965 0.4802129078531665 0.42109167621097804
Ni 9.438112471273998 1.4650994606954513 12.719238790525731 0.7702312875636864 0.08858041744357002 0.6917244523060344
Ni 6.230839758594352 4.031263715852929 4.864348336604059 0.5764097041914138 -0.05524400807496938 -0.7117823993981741
Ni 5.328137798912569 6.036826370608699 4.194523241223694 0.5646469072285308 -0.24660478861157528 -0.4931242165981959
Ni 0.4162383167823949 2.527337258072893 9.356424248282234 1.0148082471119555 -0.5441642138941466 -1.3071879279658003
Ni 8.34659775246202 8.183713308416982 6.93036268961518 0.962709212423871 1.4076118750115179 1.1789163625801955
P 1.3895406839069004 8.943622462150016 6.334984222154814 -0.650994321576524 -0.27997050855621464 -1.1679045848507241
P 1.8224930361242373 2.330396177943785 11.099490773747897 -0.7332711653995694 0.42007891867574754 -0.44281415548973413
P 8.726365256348124 3.504915178164723 13.263224568807216 -2.162632773383353 0.24426148519037932 1.438810154991193
P 1.9620027112667522 7.851789719271338 0.15440442584294656 0.15187583506810617 0.6090951102395769 -0.2869880775246283
P 6.873379324416673 7.666437810278776 5.222835353603355 0.7388982817783598 0.0322622024678154 -0.8992057925535868
P 1.2474400479856746 1.1942926142505241 1.1049484295353869 3.025796584711718 2.8423409179548016 -1.44319954230814
P 3.1138765272087747 6.543794147526184 4.5715463844871485 1.3369247929086008 -0.14642843880028977 -0.41698922400683025
P 6.0346843849829765 5.330569747657929 8.601036648485769 -0.12328902456934895 1.0778871778503112 -0.16425801078254293
Ni 8.930256097699552 6.932335374193628 5.139695444283594 -0.15043884551126352 -1.5433704928027872 -1.1268648933005947
Ni 7.087895911055522 7.091029383477429 12.185944233074816 0.4952214654468567 -0.06005479920005142 -0.7576763337168113
Ni 3.1994530620984074 7.334233611662514 7.52453640708169 -0.9034236872896765 -0.3787903443396057 -2.6690444511190745
Ni 6.71693019089782 3.49593567510493 0.19488234197967017 -0.6677607424015854 -1.0569123753708571 0.32128865057871114
Ni 5.509308626792915 5.387159324232667 13.370554885224099 1.790312353038807 1.3870769882829594 0.2909316355534086
Ni 5.272539709134016 2.046709356797467 8.89631638222824 1.3889898890349563 0.43313858007318307 -1.5183716567656045
Ni 1.3692432655321598 2.925971072033583 2.7500223864014477 1.1629845218412873 -0.19433708955611048 -2.557027657029435
Ni 5.722300568641403 7.416414771957661 1.385853475462973 1.479365450705736 -1.1189461526741504 -0.7269791617432706
Ni 9.610032540272952 7.10329201734346 2.57083359674857 -0.9643984272008359 -0.6500162739339709 -0.01856902125143899
Ni 7.073416462371606 6.125985353073228 6.861324341558901 -0.2597233282714043 0.16008896700651784 -0.05296729622565072
Ni 1.5993804460354406 1.6615073828303843 5.256731106924271 -0.7830466941607999 -2.644556493280039 0.4233560467651225
Ni 8.386874565144801 7.331081431942565 9.284675212739781 1.3614898838424745 -0.11044842116125494 0.2537465418626791
Ni 2.4858631783154737 2.8646953172995158 7.278704738886713 -1.0238978681180495 -0.33696775187686484 1.1828318955845178
Ni 9.106132760234228 0.1830752308209443 1.725379710532575 -2.870567259790347 -3.440399824984875 0.4832123568011226
Ni 3.9238089959040714 6.424488354268203 9.29395683866294 0.8845391916803476 -1.9560603181033152 -0.7918113277273073
Ni 4.22477200679147 4.185935656057865 8.745055717821122 0.2855881118533082 -1.9745918012485995 1.324352869780861
Ni 4.454759528910421 5.276196985901078 6.672894146673653 1.9838171765016093 0.44354306323595866 -0.24070539240800481
Ni 9.176098054908449 8.803972482272192 11.609417109850604 -0.5830351799277314 -0.880996725744728 -1.1418734508942852
Ni 6.359424371680786 3.6491765070097113 7.089961196759275 -0.09078668106626946 -0.48347692331641895 0.7947480417581281
Ni 2.9801286998629606 5.061044351128827 2.479315624001041 -3.3070788701008205 0.914770222650747 -0.4025799905600357
Ni 0.18468499381739262 9.026467731525628 4.156642833419996 0.3158661940115592 0.992023388006956 0.768289076235651
Ni 3.6887705033139873 8.524709937112625 10.108909410787604 -0.2504956390255493 0.6923618287797172 0.75320287132649
Ni 2.3847502324025953 5.223507880967937 5.905515168832754 -2.8391658626609297 -0.7513748169788156 0.5336766840992616
Ni 3.9577159736038108 6.563511639661646 11.433527352207298 0.2489151819123068 -0.5675558533452095 1.5185372358091913
P 5.6060066503680615 8.101260892300235 10.810220759501172 1.8550756134581212 -0.6706568330024579 0.01519419124193512
P 7.53736680744327 1.1626679269118152 4.037731764150686 -0.3925100079185434 -0.8872853869669171 -3.996686790284484
P 4.337923098993884 9.3222020526105 8.09543731042 1.984018493879138 0.2936238376735911 -0.1401804010080489
P 7.6452705025451175 7.649872497863262 0.5123826043355213 0.7149404854111816 1.4454955374311687 0.6117834557050174
P 3.2533020195101034 1.2265439960736144 3.6136429297452866 0.6394780934068084 1.1080706434122272 -0.2638134391803779
P 4.51061016721253 4.236136690351521 11.859833936795486 -0.027945834480648645 -0.9187258648643855 -0.14823798120520276
P 0.5547471514797037 5.090536406490835 2.5343356582701198 -0.48561093894028623 -2.334935508847243 0.5162906274123301
P 7.4918145367128615 1.585808301306524 11.034641925087952 1.495697097986224 -0.0016573330977648877 0.8693401153424061
