# total energy = -381175.5475439644 ev
CRYSTAL
PRIMVEC
9.12712622557449 0.00000000000000 0.00000000000000

0.00000000000000 9.12712622557449 0.00000000000000

0.00000000000000 0.00000000000000 13.35847181518587

PRIMCOORD
 96 1
Ni 1.9958195699058725 7.227771277174453 11.215920203908293 0.3087360107246812 0.02644199624161253 0.32126782464310477
Ni 7.422306846061555 1.774331597203268 13.052188479842345 1.051819277118666 1.8842843738115937 0.28290979369019664
Ni 5.949188669352429 7.836797030441304 8.23823633699654 -2.4712672255331634 1.1471033318346566 0.4492493695921166
Ni 7.36482420494065 6.414389167175772 13.005968712513626 -0.42643314302854946 -0.6422484570630939 -3.524790886937446
Ni 3.946332085108002 3.6334815786454326 3.8359248897153155 -1.117324300800011 0.35551543297206517 -0.15934720374448685
Ni 0.7439721402946072 0.6633148129129702 2.850203469156291 -1.9793496276485585 -1.0243668373346682 1.664095870410018
Ni 7.815229631113153 9.076561970323155 7.518441954137512 0.40116871203480586 0.24754889769239946 -0.8154099409828537
Ni 1.22753459070719 3.1405346170228605 3.8483624246558454 1.5889623224999732 0.11608967860743231 0.2936950572311587
Ni 5.392525239380375 0.4674539852944047 9.773993068445053 -0.2681161803207898 -0.7862065799460202 -0.9848343264576844
Ni 3.0066122935603263 1.3630724155159293 3.903011093076204 -0.4135087216573975 0.03576764451791259 0.14808011547109978
Ni 7.268067539567085 8.653702211172389 0.8327562608890188 2.189901893511951 0.33644196128038184 0.5690316665597878
Ni 3.9939209213741815 6.309408961051185 1.9000687138450294 -0.4402559078442547 0.47668175477145647 -2.5098787672577743
Ni 0.2557384266674041 5.782472581274555 5.072545534604129 0.7832179296313415 -0.47061395131082173 0.08805077019234513
Ni 5.90988726372102 7.385141187972587 3.2969781245066447 -0.16856486568801293 1.2515227731930123 -0.2687874953562016
Ni 5.554121009632141 3.1405346170228605 7.9303500745012085 1.1196303232253686 -0.42347765994465136 0.14313614120226317
Ni 1.30501476544129 0.41593409575245915 10.447500143241115 0.7854067097525441 -0.0699157511545312 0.8524345978363189
Ni 2.303942224971073 1.278454828054527 1.5492621401602629 3.1535775836141493 1.295680441546833 -0.8213725863241919
Ni 2.782869920674034 1.5712986737776515 6.538665030904948 0.3387970917761198 0.8570726108289627 1.1029991424265908
Ni 1.8229700529881685 2.6266317735308697 12.253472749014382 1.4134793895358881 -1.4259602956117183 0.16458634065623912
Ni 7.5517203691567145 3.9094128594277766 0.8190482299745241 -0.6297151004827736 1.0057044850384744 -0.09237716548184091
Ni 4.0259297531320435 1.531422259192508 11.269193414402816 -0.6652881124913769 -0.2818854661907404 -0.5542300827705811
Ni 2.1820129454007064 5.187502602432313 2.81149076316799 -1.2922539323637874 -0.14571264368018774 -0.1490936443372787
Ni 1.6963311762729323 8.9632030623013 5.669909558661678 -1.5219496039248497 0.26356224240152026 -1.0654445812115845
Ni 5.62155221836527 5.351809129180254 8.062865907808657 0.8597321599389968 1.006721613449079 1.6227746430637278
P 3.7449876800385886 1.9488239968459262 -0.04667794906645484 -1.1004550358484984 0.2586838312632964 1.4631345906691704
Ni 8.8172329321891 8.05387660116528 11.824305232912414 0.07782086493422082 1.316540572825294 0.40155489172963105
P 8.048245164269186 4.749482686580717 7.708306259809995 -0.0676863476033802 0.1939254559399886 0.6526228583188826
Ni 3.53409630091194 8.529856235089573 7.343806258612734 -0.6586294695242787 0.4400851865943453 -0.28698756330399605
P 5.467440691638297 4.879589871270857 0.5764492142562554 1.1366371421960102 1.4566744368661235 -0.10453436966966513
P 5.592692245163572 3.8165078413316045 10.249447892609986 -1.4741371124272613 0.04434870131870426 -1.5394459609374003
P 2.090130165444506 8.00092101466425 3.733091383684669 0.2819962807369918 0.19419902131634942 0.3248344589484406
Ni 0.5939267483118954 7.430630785201324 9.361576567149246 0.2555290876843986 1.3166457309445905 0.7233482498589026
Ni 2.5253389264111803 6.732378245716949 5.863514160671306 0.04578491954459857 -0.956362958490869 -0.5828179217106026
Ni 0.6146535393124454 2.7390414604227504 1.3063199444950038 -0.6143725565884322 1.3205838896567321 0.47671337934034036
Ni 5.452335297694966 7.372710042020431 0.5525407070450438 -0.9642667867189779 -1.4841091360383085 -0.2889156335646444
Ni 9.235739052118738 4.0097838667962415 12.382916391626164 -1.9427008660772735 -1.005381297371101 0.7102543927894219
Ni 8.015122823108856 -0.08591455210149115 9.72798687587058 -0.4818095629163251 1.1375969350061181 1.3180793780673234
Ni 0.2257056177426124 6.955545609649507 2.853329509896829 0.8473960069711471 -0.08289236591985724 1.067879158795006
Ni 3.3332630149125126 8.066289492864936 9.59465599018903 0.4940888945043104 0.4839934579415213 -0.01676410683221629
Ni 8.113330701556132 2.55669060507906 8.083037769533222 -0.39248532532819497 -0.3087192985541328 0.28396548864822063
Ni 4.266575563832866 7.947107478295743 11.861374143463134 1.9898723815567538 0.7604441262699355 -1.3391963625515968
Ni 2.048355308599415 8.064098982564998 1.5800935726319076 0.568990271798891 -0.5611478929363367 -0.2762226114780082
Ni 4.041820079932853 5.443089518803972 12.256784983130414 1.2012186256218214 -0.20968657542898725 -0.4475735245515905
Ni 0.915204330440856 3.2002442769487036 6.631719733871616 1.099778064386132 1.6366316035514783 -1.057517613055024
Ni 6.26773450259484 3.2681866047518184 4.257933087986981 0.7161118800114634 -0.8147309126379582 -0.47491540689965306
Ni 5.208686662457976 0.4615961956673172 0.5799202603690341 -0.10764257628134366 2.0199987686284886 -0.9795671645214742
Ni 6.882838921944024 2.166086110094898 10.497153535464987 1.4292813895651513 0.5835321741688079 -0.8573921989519105
Ni 4.804208935574199 6.879863478786605 6.44810750968021 -0.5832179853624988 0.5405921802721722 -0.17271488330064447
Ni 7.386053900597561 6.343261472311495 1.7633580533131976 0.3618717142073961 -0.7639104875519812 2.1689522878434775
Ni 7.445124661685923 1.866305648421966 2.066688967097281 -0.05868465832540216 -0.750135802365392 0.7202230739663597
Ni 1.9850860694361703 5.034650619127805 13.171733754036277 -0.16630820844335228 0.36484159546899747 0.5663338080126504
Ni 7.353022830699727 6.861189378479624 6.710547985152804 0.5197055666311502 -2.3346161778346115 -0.62839638167135
Ni 5.639514402824772 5.9721068833655435 10.468340110607162 -0.650884278361221 0.5455994036787765 0.09310710166932996
Ni 5.494548256600044 4.9764743164119185 5.950958419132255 0.5491544680198865 -3.3928516428922664 -2.4368761496478033
Ni 3.6572121068947743 3.111948457608653 9.38596972476432 0.9739331061641484 0.7235685933998247 0.6343358870842366
Ni 3.497487397524206 3.9185308585512733 6.9229343875591605 -0.606516293768807 0.5673527361954681 -0.12131390312084912
P 7.922108279497687 8.629734377640553 3.0130697353820217 -1.4503734343487602 0.7677404028210327 -0.7454908473942129
Ni 7.002751106613196 5.759043248191455 4.389967921741068 1.3637244295999482 0.2523617457000106 0.7719577833364899
P 9.154051272183505 1.3433030600589777 6.433092474286752 -0.27908579195841615 -0.9825331891283337 -0.9390051839387118
Ni 6.3209639028833635 9.593066044796323 11.826081371680614 -0.8760977457812137 -3.019228701686213 0.21854968224657198
P 2.4160415895704626 6.637383115709584 8.060648928842593 0.5646541063173823 2.2227418228601072 -1.0781355464156916
P 6.834246101790372 7.6216159019772745 11.054883926495636 -0.06487098964177214 0.20207893828505843 0.1814239810388682
P 2.8167041776818453 7.13779606660445 13.0798810935967 -0.12819957449708888 -0.5646548776483308 2.6905992944717148
Ni 7.008820645569278 4.327782072463668 11.678176290803467 1.1360596724259855 1.180348724151348 0.5492028047593187
Ni 0.5829769349500743 7.382156617688919 7.109952855266972 -0.6781623973508837 -0.5005148526353121 -1.0532174430177734
Ni 3.6406189913727345 5.5123735341658 9.247910074972774 -0.5113970467654547 -0.6830611202040816 1.4458071551343163
Ni 4.220447067766647 8.858168093419215 2.4391770291883206 -0.7705493330247375 -0.6785920286891346 0.41285643278537926
Ni 1.089532441811019 0.4353374534467958 8.123874357799838 -0.45195442722810547 -0.06845099368354664 -0.6749251213605085
Ni 0.24955114778270077 0.7725582997088141 0.1705093217472689 0.4619056249035464 -1.0716106008129802 -0.20721060308466896
Ni 5.292838766480641 0.9437813627288131 7.564073934535747 -0.26874224394056295 -0.27544999497804173 -0.5332429389959527
Ni 1.0081002214107784 5.290264916878212 8.68913827883703 -0.41190923838076154 -1.3798365046704624 -0.3297918029537159
Ni 7.463625346594159 6.5947868175020155 9.08484301196955 2.7210460409973463 -1.3547967880930152 1.0106880542959948
Ni 5.736599644743328 4.839905126336959 2.741078635001694 -0.35857221752051793 -0.11892277718085326 -1.3643638629561599
Ni 8.773413599064067 4.019111789823483 9.963670268029416 -1.4668398074348996 -1.2677572327740037 0.11029929717790037
Ni 4.683511818047547 2.1639777439312065 5.435254793631189 -0.02444116376149984 -0.5718966468124086 0.762070606129765
Ni 2.4655014867178404 9.342982785553263 12.838172885400407 0.07616378894677206 -0.7752207703584778 -0.8511120223701535
Ni 0.20398123184296518 5.911566654950974 11.167668738276383 -0.77948365939989 -0.6362765557503752 -0.22502063468289632
Ni 0.3764328060561802 6.830796048067968 0.4506336043287464 0.29490604682012433 0.155898325963938 -0.7369457860376792
Ni 4.868847243674906 2.066253603175168 2.3324690580646563 0.17654222746653467 0.005734845601248187 -0.28726087157004077
Ni 6.107498674154286 8.573137067765874 5.811857364235615 0.4263737505455237 0.4208075693116559 -0.058897288556840496
Ni 6.089764667851029 0.6946810949828499 3.8399864608964527 0.5246032610430836 0.11347460958208844 -0.3699580907599564
Ni 8.510570617323859 8.030912751520917 4.99589501564613 -0.14328783628877903 0.8874640786366265 -0.005395717094274578
Ni 3.6934559252325188 3.8726487948937964 1.212681105448352 -0.50422546871768 -0.5835905382105692 -0.017707958802724345
Ni 4.014119251764871 8.525895062297185 4.796345916310043 -0.3349404370341909 -0.18050095500396654 0.05523449499327261
Ni 8.003923839200416 3.925768669667322 5.664552848265703 -0.6055367034643572 0.5613106437664461 1.184200236686954
Ni 8.350836780827041 4.050974587561348 3.2165863964988755 -0.5030229637691466 1.2458416636478349 -0.9541667221704987
Ni 4.045735617093994 6.041299627464873 4.017894231181766 0.2131935601409812 0.37440147124329065 3.0544566716505717
Ni 6.927580094820282 1.6272114491836 6.05458050887088 -0.14583219997718755 0.6203933088612154 0.1825544950988856
P 0.4224846342619024 4.893234925014229 1.4597870961087458 -0.7038487463733943 0.41359382517203613 0.19269775418047458
Ni 5.4501904230262745 3.0873234709868367 12.754054551744865 -0.5149230576408422 -0.5805077855201873 -0.07963477821450801
P 2.890113654108559 1.1892462960895023 9.021710679700051 1.1112721810686603 -1.186061201155093 -0.38798460924436406
Ni 8.427504641324914 2.0009125063532314 4.337295276153779 0.1869415684229877 -1.6059208047311828 0.035757617215583584
P 2.1167905012200157 4.297260962284515 10.893580224283864 -0.49471984322008994 0.8192938494182922 -0.5923842252427992
P 9.00032308475902 1.6441696497556295 11.350533450827935 -1.106651137356881 0.542825183367749 0.882240882564474
P 2.425013554673964 4.621438232423021 5.060563443263461 -0.714805245384898 -0.09051234435896026 0.6060648080536852
Ni 1.4256297388316934 2.9350647508885612 8.871227185657352 -0.24468983097704958 -0.8874584222096716 0.39425732962695326
