# total energy = -340860.0319784697 ev
CRYSTAL
PRIMVEC
9.37669590651626 0.00000000000000 0.00000000000000

0.00000000000000 9.37669590651626 0.00000000000000

0.00000000000000 0.00000000000000 13.72374227013710

PRIMCOORD
 96 1
Ni 7.223412581802155 0.15377312189302175 4.360705495088297 1.4973683150410602 -0.4292857819859961 0.07885701950821904
Ni 5.753962461297194 1.4566228007238917 5.4817569837793165 0.20580343832449718 -0.4815521954898804 -0.30913016083930633
Ni 9.286623207056152 7.343612444575206 6.855901431048334 0.5483435420828169 0.38204818915527106 -2.5949992511772018
Ni 9.221239507616533 6.730067111801275 2.6094050278207157 -0.669277436156428 -0.3825446691757154 -0.496633515303035
Ni 4.606498696027725 9.131438892453298 11.274726499381519 0.11246390892938697 -1.0840372566121073 -2.331141846132766
Ni 8.2079375050865 7.468997620096013 13.136077493946251 -0.9390499211337181 -0.08950807146416198 -0.003502613836619774
Ni 1.8548416923775848 4.75379720950786 12.522447770910603 1.8927124499742884 -0.1219528222564287 0.7970746330087757
Ni 7.73555832677456 6.056201495290776 10.225422673533197 -0.7366840477358603 -0.6214335772002717 0.6187282624539667
Ni 1.378618068809623 6.613767954458724 4.636854810837108 -0.07595630092165628 0.6169439168600342 -0.5736815066269733
Ni 1.437194287137359 5.4878330826229815 7.8326474475414685 -0.808156344744234 -0.17723436843755283 0.5790952214433768
Ni 0.7187396693440248 6.6756166396019525 11.961791690494216 -0.7738251755625318 1.2571290636361963 -0.18962348613052504
Ni 4.264211794501285 3.6826972543970418 4.856434521147912 0.5663111823048311 -0.5097697955746769 0.2886086438471868
Ni 8.994914202385772 4.33101137499861 11.994673887137678 0.014956878420148435 0.18006592434907698 -2.0982693195056186
Ni 8.526595133332021 0.3408025705897863 0.05309366432481826 -0.869369940139077 -0.38914443388042014 -0.547232054186193
Ni 6.3486512589251225 1.0396786476646458 8.719695054855004 -0.2569370237755188 0.3318764533968865 0.5088498548635688
Ni 6.772787337621855 7.388826871464327 3.1614148570893486 0.4955431104523336 1.448731270759647 0.0897636391183938
Ni 5.567825674035486 0.13311251048541273 2.1502769959375834 0.2043584783478545 -0.7824985349668135 0.6866359820395336
Ni 6.848766703254902 3.5855453097686323 1.6394111699345613 -0.5172532484359156 0.6335990089182121 -2.6891378794348397
Ni 4.0437938075907525 7.076592279805086 6.10839687216309 -0.7535427711644119 -0.055979857799729395 -0.5719164443067506
Ni 8.364190763004443 -0.16507672861530215 8.867074207918558 0.29942141819197465 2.1811328890700694 1.5494380391531055
Ni 3.601804500192883 4.5112502206358345 7.8294631216659925 0.543432992155077 -0.23924552003302665 0.21746879047756743
Ni 6.083618953653239 7.042039155979617 11.805848801205478 1.1588399035452945 0.38121515173101445 0.8756915114817306
Ni 8.328887503519262 3.2844877394390948 5.221842479045816 0.059719784458135854 -0.12538730185927438 -0.21800820792080516
Ni 2.535074085299885 5.082769203074419 5.864855015872371 0.25840435234966463 -1.1462170725749614 -1.002306257990203
P 4.044422046205762 5.256491245167898 12.961978508683766 0.5356500057755484 -1.0873372675196178 -0.16042218197622046
P 5.036814017221332 2.231634834250763 1.953437648150939 -0.01480646888521321 -0.08256660714932232 -0.5802784431182006
P 1.8758923743282439 3.9554278268767167 10.574911815062444 -0.36696609801116803 -1.3000243203378254 -1.616200589390636
P 8.903894616775506 4.61244352113094 9.167103154724716 0.46972640649954583 -0.8733109270646959 -0.8639713948313248
P 5.203887982030616 8.642772393629869 9.20926265413966 -0.6139195282114137 -0.9864402374922235 -0.5315776354783878
P 3.1064899240852593 0.5488170643669852 12.681424021273298 0.6060426965664982 0.5392688334750583 1.5373214583952297
P 1.7791248742254369 0.9577919637113692 2.7595559321469043 2.5151143046251008 2.760012652068531 1.9354938068058734
P 6.663070620693274 8.042063757332754 0.8643213098329949 -0.2359377958160324 0.5852293593655727 0.20246048999419325
Ni 4.142961741804638 4.074099288243105 1.340648077054167 0.22490133549621266 1.392878425456085 0.5130906324177938
Ni 2.2485410166815147 6.095292939857503 10.408086332690438 -0.7072888824031949 -1.72101263820172 -1.172397330514755
Ni 2.35681372246515 8.273283697743134 9.903010616310818 0.07908893301336703 1.565042321349266 0.6610074828381519
Ni 3.256976514119169 0.37030446841667214 8.311070843931535 2.769271451662637 0.23594859444930977 -0.6291162905565101
Ni 0.9453865952388871 1.578613612384504 0.8624984801798956 0.22189931544509525 -0.7710455559348656 -0.41864835687680807
Ni 6.453520224152816 6.796651028296432 5.515201782167562 0.4169581136585787 2.4941305032845817 -1.284209464792756
Ni 5.497369182197066 5.411581792813288 6.954753370615565 -1.1203826280103608 -1.139490295374089 1.2248216097527422
Ni 3.101539028731162 1.3408956218218717 10.651806346200338 -1.5557184728451787 -0.5903275998240866 0.5013154941597365
Ni 1.0571661852316743 0.21509389906572787 8.016737302121737 -0.5642064772570026 0.1461579587477225 0.0798594926308044
Ni 7.270042889748982 3.128365755261601 7.679284087252563 0.41660304431200507 -0.1250674566260104 0.23396344569848093
Ni 1.3808309690057725 8.981017939289613 5.468486146289442 -0.6531581619970622 -0.9313548664823058 -0.7508184302547134
Ni 7.407477119303909 7.498206027346037 8.173339373121447 -2.4553842357543196 -2.2084151218247903 0.17555723784544602
Ni 3.989671519742555 3.4727061531565027 11.139232308176519 2.200078319824321 1.8943250458770473 -2.3400841429277186
Ni 2.912232918307173 2.712621819257894 8.938794678343593 -1.248488614352379 0.3950111770738423 -0.9810545477002781
Ni 7.683583302252287 5.632037286506806 6.830594666898386 2.8049761041530985 -2.498367167073749 0.8804436814547353
Ni 3.366402553479611 2.7871009135715172 13.044484992225879 -1.8916955786740002 -1.6442598095206975 2.5992996783247686
Ni 0.39769754737019347 1.5774227720247116 6.1388355018950405 -0.5121766052439566 0.5242800733757099 0.06217955885253807
Ni 5.872080697614544 8.728372249098719 6.9515559173660435 -0.5201156575853753 0.86441336746475 -0.22853507559405803
Ni 6.913681567907202 0.01912002029647615 11.599910307866534 1.0701119047802667 0.2572283297636925 0.38872045896912405
Ni 7.829503441457701 5.377731921168799 3.9862255840557546 -0.010324264744143509 -0.5922451285617736 0.4808600545188622
Ni 3.059934629704403 8.389039006732393 3.5388174841860427 1.2765228947817757 -0.2829542737748869 0.6546635428979951
Ni 5.249093032223992 5.6354035202797625 3.931371913939338 -0.9490360858121526 -0.37698183037595717 -0.757346204070902
Ni 0.9721101781161159 8.615983173882416 2.4626841187985584 -1.480400833948786 -1.6055837331067382 -1.2623226920219939
Ni 3.8618484033276843 6.729551393535223 8.553926326093617 -0.19033053949987866 1.3349327021792365 -0.7653690743753787
P 2.043453927316341 7.813928749822939 7.328780387243557 1.507000438814185 -1.1128618941532835 0.11192834814089112
P 5.343994569873265 8.433268880568143 4.449484050415174 -1.7637490007279815 0.62516939009362 0.5925073810842246
P 3.2085646339805267 5.702156217298356 2.876715870158974 -0.12677286935289134 -0.6990420690133703 1.3386605446527848
P 0.6034222520461225 0.6035113306557133 10.216447300364747 0.4614381983488246 1.0051313861438236 -0.11731583770504958
P 7.274815627883898 5.291016238906129 12.61340922100724 -1.0731087826250616 0.5129188827266199 1.231293590630331
P 1.0270388617985038 7.626685512463156 0.28474118206123367 0.07748919262641495 0.009156212577971327 0.7433491184608617
P 0.6415478969509688 3.4727342832437422 -0.0016559244688135394 -0.24198631600295742 0.8039397355597251 1.7856362877193765
P 7.819779807968689 0.8134789901568863 6.916038869217846 -0.5408783440540234 0.66473866774581 -0.2513564443639478
Ni 3.5825728972170254 9.367712871870985 5.786835281244909 1.1032045735691776 1.3080158231837342 0.3471038118696022
Ni 3.208977208593368 8.599695853370926 1.0874088420225254 -2.91817689124851 0.886933402944137 0.15908340856013894
Ni 2.666779153753764 6.017363221509204 0.8170646386103082 -1.1564040404102924 0.01870014751266457 0.3369469259412584
Ni 0.7710803850004075 2.1055651599404683 12.128260858427858 0.6462439513757321 0.4555287748429252 -1.695591112804822
Ni 0.3054149208428877 7.153265520923367 9.06373539848602 0.06333758371638123 -0.3549181657076984 1.976186913649861
Ni 7.965484283171937 2.1652947118450108 10.417363635461923 0.358746281204537 -0.29188191528181995 -1.9184962438066122
Ni 7.7681048377103 2.397030370521443 12.615384890801005 0.022688699846767375 0.341718893408605 1.4853278389367581
Ni 8.092744797842023 1.4000813253731237 2.054115230379993 -0.3277781149577968 0.49982271166429404 0.6325397144157622
Ni 2.0743220097134767 2.8535160495432406 4.64750392419629 -0.8282831974010961 -0.8073832140236353 0.44798078729233815
Ni 9.239336530407076 5.6079860619173 0.512502059410768 0.8618697751072899 -1.3064081123769824 -0.45631424685869804
Ni 4.705291562411754 7.029155576024069 1.869145841738712 0.45309831102456166 -0.3098575259236341 0.005998383675279992
Ni 0.30173269242327794 2.544310130610085 8.405298197156643 -0.17831474598592517 0.7300462307043686 0.763988391977768
Ni 5.645671002122065 3.4591568278029605 13.379399935556505 0.04766799549992436 2.5251709175301547 -2.593116175221876
Ni 4.431454539834005 6.184540329971699 10.700044757467674 0.322776033757515 -0.5104562801187402 0.47193498411509044
Ni 3.944663380159854 1.3522226702835183 3.6786624622173676 -0.3573103200889588 0.43680343051927994 -0.1804546751470634
Ni 1.033199350903886 4.725104520523889 3.1444383494404984 -0.08376808365659122 -0.23558786867578135 0.05473055877366058
Ni 3.175521158170227 7.1958263429162574 12.534936591975226 -0.5225013842087324 0.7388725707467468 -0.7575485498896953
Ni 2.330840275247633 2.955618889525747 2.2450941433251397 0.5446432104130944 0.13256865009906202 -0.20655420044759265
Ni 4.862491866600084 2.217757324546097 7.301332923454706 -1.7846687815997846 1.1451994299437245 0.9041813913913074
Ni 6.148515064914045 1.3861100487109936 0.11929501163352352 -0.1244863873115598 -2.0196185024709346 0.9434583346140591
Ni 1.1451946048988404 9.254311113514072 12.335036690696958 -0.5885082872271606 -2.0772415523010417 -0.04160584846624447
Ni 6.39702563228078 2.6795127065773694 3.598228228435208 -0.06492781102163656 -0.2825151293549393 1.8821891818454617
Ni 4.850658476568132 8.637577704186365 13.380662038803969 2.705450243441618 -0.07457818962720704 1.3289659430728402
Ni 7.060333089380835 5.924571440402869 1.5073469740335956 -0.10614619424147526 -0.6501841669704028 -1.2919806240977425
P 0.18626899867173183 4.992312219208936 5.81551765586356 1.3196199830815658 0.3798570950412232 -0.09780939224100575
P 2.516133159892165 2.1070185477811596 6.708563535446064 0.5112607782979066 -0.2601796990825326 0.6522335933002638
P 8.64576355957297 8.018978332405126 10.914176607549821 -0.632133223005963 0.19603967406951398 0.11539188120945933
P 8.767266783054769 7.611485888658248 4.548707307133962 -0.8098890111646245 0.9633090507913991 0.19201898294589512
P 8.447446444536693 3.4926691384005797 2.8842641102348225 1.7145607119287893 -0.32297015204619217 1.251701979083354
P 5.843594295936993 2.0235096954637566 11.25341326994996 0.40230231141861683 0.02852201869909281 0.4810549441384876
P 6.242994651254732 3.682509720482114 5.8133769562246576 -0.616203439149584 -0.041967345570721265 -0.0374350049180065
P 5.568106974907878 4.777642146790945 9.588971010720394 -0.25163823727042467 0.00046228434839920384 -1.0441507048298146
