# total energy = -340863.95239125204 ev
CRYSTAL
PRIMVEC
9.28661044098287 0.00000000000000 0.00000000000000
0.00000000000000 9.28661044098287 0.00000000000000
0.00000000000000 0.00000000000000 13.59189308534806
PRIMCOORD
 96 1
Ni 3.853033147680497 1.4030953628007359 6.873406536428552 0.12633192516073083 0.04003104777995686 -1.553605540267234
Ni 2.93351943813563 4.760836441755626 9.629557291596136 -0.5105668375546756 1.513352092063826 2.3507452221859904
Ni 3.544847701384926 2.2378130345548217 9.314211868831757 4.367261945803149 0.545518413929196 1.455108120820268
Ni 3.8748845414951623 2.112081618976092 1.6311085745270821 0.5435216952141414 -0.6015574071016349 0.430057370044698
Ni 6.301373635604831 2.5593990593776184 1.579839985562942 1.5969389129475464 -0.5229657254396607 -0.06625450025286009
Ni 0.16612166934758818 0.9925343255944685 11.832747985981031 0.8440317184846045 0.3695405436065636 1.207651782841675
Ni 0.7412581553021487 3.520516782645265 4.275370535288965 -2.2411768896368436 1.8526461780810222 -0.07326255613957705
Ni 0.9490915630509055 6.831379053280381 9.963060823296264 0.10706433518037045 -0.31714171828987314 0.19723909369425385
Ni 4.039879745024765 6.429566002888144 8.047079908734696 0.679828729309713 1.1925015574637978 2.615169812587806
Ni 2.4076837084425633 2.466672256470933 5.141894846998524 1.8608405409663564 -1.2581773023950524 0.5445637633254105
Ni 1.4930454692558346 7.837601842318461 2.8386938613223935 1.4145116874551447 1.2610183713882734 0.3731094919047445
Ni 7.933142488117557 8.62403842761167 5.99269228432426 -0.8011022661109299 1.2846031006867489 2.086161737608807
Ni 0.9299239995857679 3.1451148516788283 12.597605275138612 -2.749696100633871 1.978118583454935 -3.4775095853529785
Ni 7.587336983877572 3.6828745888763708 4.722109419874659 -0.8939777113854281 1.4552364188680165 0.5823281265583776
Ni 4.7708938406087 -0.1932664309796606 11.111317672129665 -0.21312079792151684 1.8505617847481677 -1.8277100769609747
Ni 8.081068902088573 5.779280409824772 10.996806339001798 -0.9267559342577136 0.756030570583272 -0.06007382536344493
Ni 1.6295864991143223 1.23674431418106 2.3362427447889984 0.09842182901402403 1.3954053056429967 2.0206184044903583
Ni 5.187834779026474 4.4655222372055405 2.2183464422410517 -0.4507647777953785 1.2673407140618755 -1.1388120383601419
Ni 2.799495079642962 8.320849177606915 6.518807540984527 1.0297306727497426 0.4041100540513169 0.5026632664368827
Ni 4.433947762505217 6.823420428333859 3.4838606748402303 -1.4818563354483898 -1.6540261448788416 -1.0587378586153702
Ni 3.620877179141264 2.298176000893676 11.819210894283778 -0.7253665658405121 0.14391595679108118 0.33170341815413196
Ni 3.449669233383862 9.180492111153844 12.864373368576542 -1.2360509028096585 -0.7475513294676674 0.2921786205866323
Ni 5.448602793610324 3.6352249919095 12.707454729943079 0.6203434294598865 1.639598399489286 0.35875810827907895
Ni 0.4975682168870917 5.747538776140741 3.282401596336856 0.08787362118453253 0.09592708761662834 0.28736243014491153
P 2.2434035738988207 -0.16773475354036652 4.5725569204565755 -0.6055454452151054 1.2013525800965246 -0.8740992272939462
P 2.007727980091522 2.487167805195525 0.3738408517908116 1.9532161637863008 -2.745769511885955 4.105136950068789
P 7.510350985270017 3.9216426238822595 13.58720317458595 0.46229951790785545 -0.27403203158459255 0.5749197499094485
P 6.734566141883065 5.694846549832024 3.8125398125383527 -1.0360926104120285 -0.7694198474059847 -1.1130922649965347
P 1.6225472485781915 7.7879927705981284 8.178309926216386 0.3478705148322977 0.6424690577143323 0.31671388672383516
P 8.989782283963889 7.450145891304665 13.077643157939878 0.3165043418161904 0.142176091281839 -0.7180571766632925
P 4.245893905834172 4.911455972686376 11.241976563083687 0.878237674942352 -1.4163672526066446 2.3061648644724544
P 4.1123431644620085 5.1394701130737435 6.339028054007008 -0.5501674826654331 -0.7674910058143879 -0.7996012560853712
Ni 6.653373308852203 7.3508348817619416 7.506014138303827 0.1388017754929674 2.735219761394567 2.1923801798491147
Ni 9.065876767991668 8.964234819287244 8.447184222849033 -0.18632553210554362 -2.3135858395268736 -0.3949384148543779
Ni 4.324978678348277 8.94199338784393 4.7015442215735215 0.014333900124168865 2.107739720889899 0.3452988974503795
Ni 5.322537060064179 1.2851089801337912 13.316140023927751 0.5423438728559563 -0.8565987565163377 0.29592574633389035
Ni 4.885806355297467 4.241399186494478 4.40305306767197 -0.46988658622649393 0.29199941469629065 1.210673086166502
Ni 4.112463890394686 6.620507995333249 13.150482685090463 -0.30367376571042537 -1.2916836616826142 0.4763356842859474
Ni 1.591678556253522 2.902047116147572 10.181564546171689 -1.4262359178706083 -0.7181276248899116 0.6782158762966384
Ni 3.3598027064206177 4.035069280938069 13.965262004732317 0.5822070275994813 1.6379495510319533 -0.8053718400205614
Ni 0.877562376600384 0.6838344010934864 6.357417399536884 1.9991936589576793 -0.8289712246070563 2.3930223856876465
Ni 2.8766110907934 3.7395879174042754 7.86140156695434 -0.6654878872070088 -0.8876042037589165 -4.8444553501037015
Ni 7.737715062942965 3.7740598144888637 7.533904614735438 1.1896211505922092 -0.8071862675214808 0.3538131055689777
Ni 6.63244128944793 0.7989725804102579 4.405621744054944 0.2657443376545036 2.3980792313852635 0.2074224619851589
Ni 9.201182678692762 1.8202591798634533 8.601180365250675 -0.06578013171960284 2.930130721176276 0.1851212273847973
Ni 4.9994651776084265 0.5220718665765841 8.623091193370659 0.13838834210463263 -1.1606214209257495 1.113844826891843
Ni 8.050655253663997 4.630350281751436 2.243654312374382 -1.9087836445045387 -0.09576382256588668 0.2387626668593372
Ni 7.103801763672733 1.334903784058243 7.902245007301249 0.13020014986688547 -0.4118796706944068 2.1934633856109644
Ni 1.4475596524669563 8.183314480456387 11.903358726682184 0.07601183674994007 -0.06947789228616422 -0.24440109609203714
Ni 0.47839043815072746 4.716251426156727 8.772411527533594 1.832343461967928 -1.8933174305481393 -0.5878308015441619
Ni 0.7248589303394128 7.811877932047903 5.3359051354556835 -0.14116847595293108 -1.2082223106331644 -1.185379858817352
Ni 5.989482831837074 4.690490369445347 9.908748083506604 0.15217613991734436 -0.7007017161039804 -0.23855672149611817
Ni 6.1548680729953285 2.2131013647967155 11.032063883309814 -0.1268227487542203 -0.9321701632947494 -1.5391567118317557
Ni 6.26988274039636 7.842523745727628 4.167110948151761 2.2452248344539716 -0.8472561389591732 1.5757355393970538
Ni 7.213875954444185 7.915535075167024 9.760202252634848 2.4032916288241384 0.44150623531158806 1.0903382591294706
Ni 7.2400920550556584 6.011891422264098 -0.1063929784858024 0.29395216754728726 0.7348937886046568 0.19120111503029008
P 5.265312967974945 7.745868706703814 9.361674804933486 -2.558452305291104 -0.5421811220258469 0.3505442050097189
P 8.351318545692727 8.584468181523999 3.9982998764885216 1.0326077371872215 -0.4184457539476987 -1.4784797056666732
P 0.631224825615603 4.748596689504148 10.975398845154977 0.5476485728983214 -0.8021307073754443 -0.10266029257540384
P 5.396384184422112 8.148944736084063 0.2523636323474399 0.8768868173414124 0.8267071111632278 -0.284939936746348
P 8.203624296976859 2.504561626111321 3.1295198471599304 -0.3058095811065056 -0.7255249457952472 0.8077904767643831
P 7.938361563053316 5.587326176867217 8.759974899145748 -3.247727010505065 0.8628246828213914 1.198338218750233
P 2.494949984548134 0.7524745231089283 10.61703505793345 -0.41165007118210395 -0.5813845316981857 1.2208292007638977
P 0.5328889101445068 5.6538925988236635 5.595238368762709 -1.2868209342736743 -1.3973439174266062 -1.3687339669993976
Ni 9.159912982937398 2.623244504543714 1.2821326215627755 -0.10382937318284054 -0.268898309902453 -1.4999903260449392
Ni 5.858476621661349 2.7901063167247186 6.286155667460295 -0.3140630793645494 0.20854423429442795 0.1854377301839516
Ni 2.1104007425288103 5.961205103759872 7.008088386923804 -0.5769892308439676 -0.636322321386646 0.10629660377641047
Ni 0.484878992701644 5.027798625346863 0.6886235059767091 0.47389210784146124 0.1510487111811205 -0.4584310360913847
Ni 6.075188957428041 5.283988341099166 7.414649681114357 -1.295686355084104 -2.1430458523903613 -0.2678757821752096
Ni 7.111128899125248 -0.11665654008544878 12.19841104882446 0.8062542426255147 0.27497356956225544 -0.44029807393609977
Ni 5.865822330334277 7.281213165047727 11.773814228952878 0.8720680557965302 -2.278938938876965 -0.6243170693956538
Ni 2.114858315427679 5.4920919892049165 12.28336031568364 -0.048404873665948894 -0.2437902019809156 -0.0031681133153364793
Ni 2.387903228703831 5.456468552454786 4.599863269106232 2.103541366537835 -0.07992479865110107 -0.19453763560269077
Ni 8.99396125855658 7.179088312612593 1.5750146628999158 -0.7497485942293023 -0.5802910415236909 -0.149016254132124
Ni 9.078209386345206 6.680917394723132 7.3906735108845645 0.919994447164164 1.3431250081820416 1.0365291837288149
Ni 0.8822363275170525 0.1595829671015594 0.5147549463952944 -0.7572253622223217 -0.9564215796429463 -1.3001914420433092
Ni 5.370604554490318 0.000420683442330783 2.450849730001988 -1.798514172123309 1.6548416988016017 -1.1157050200290333
Ni 1.992535085794543 7.02332399962773 0.5576655861740548 -0.5266280047825963 1.0002840853538515 -0.07330703622426729
Ni 7.996542175993766 9.199668961229188 1.9754997280326976 0.35324669154254645 2.364366926734483 -0.06601667321044113
Ni 4.938043537706091 7.169123779861579 6.004409200421143 -0.2884942297565096 -0.7002965102457617 -0.5120948441634277
Ni 8.397547291298082 3.0257633373116053 10.52590183733811 -0.06017666948989636 0.4024545207257649 0.5232678300611117
Ni 6.52390867597067 7.458596706592104 2.0090717525883273 0.33339957490963223 -2.897397235498997 -1.666589326255833
Ni 0.31902663505002915 1.2573048691770945 4.359952981045009 -0.4974750373677239 -1.0338524082276002 -3.151028591940051
Ni 2.552034777484278 3.7617457693557377 2.844334548361504 0.3631660075387874 0.549959223309369 -0.6554901525643485
Ni 7.591070201180374 6.275324693977063 5.788555876098503 -0.11697233832270176 -1.6551409752095754 -2.815392928611048
Ni 3.454767582386944 6.730962937123145 10.752437549380684 0.37962415309481073 3.0974763697452072 -0.8038109232913447
Ni 8.311126096721257 1.8516850688004813 6.134333520507871 -0.7608732433875541 1.4693029242634115 -0.5317115899530908
Ni 2.0430449587048547 1.0539002458355682 8.412185774965765 -0.7189280093040199 -2.5538348611237502 -0.35576482997870984
P 0.9216496298922419 2.8825916677660492 7.058188720324032 0.5384828472386533 0.3383612897902818 -0.928534366314375
P 3.0317903473352845 9.389041516549483 1.2943407993395535 0.6255967074390257 -1.2318821161439493 1.1402035193910298
P 3.037975229732466 5.659641010541164 1.8070016151333999 0.727443760084515 0.21855919532826878 1.1217566255397518
P 7.652984031423627 1.277716838409833 0.17590789918264735 0.08177650714785915 -0.43915007637458564 -0.15252658127822766
P 8.236953941006112 0.713998239703522 10.246941353360748 -1.8577755288877877 -0.20378563656352003 -0.42018613367757307
P 5.9150970840871935 0.2946037788693288 6.597450270852827 -1.3944750805192434 -1.4743502568793319 -1.9466333683624606
P 5.657830121550997 2.771115198853495 8.648480785673803 -0.32719653142271393 1.026942054261012 0.6265385025270048
P 4.712963966143812 2.0428220800599113 4.484209682923029 -0.653971659037293 -0.15674344757305264 -0.029101545351646656
