# total energy = -381167.94114107045 ev
CRYSTAL
PRIMVEC
9.27490530631997 0.00000000000000 0.00000000000000

0.00000000000000 9.27490530631997 0.00000000000000

0.00000000000000 0.00000000000000 13.57476143760006

PRIMCOORD
 96 1
Ni 8.190835849904746 8.344558130932107 11.386890319246369 -0.025587875771433354 1.2656018769938977 -0.9917040569943243
Ni 3.3595191109331903 9.083489838995934 9.394386520816457 1.1413623155858215 -0.13365622673628594 -2.818891942903242
Ni 8.113715012041677 4.996159631495948 8.500556473728752 -0.018674950701683967 0.7536492148352891 -0.16578730294287577
Ni 8.564595985106905 3.404279804081377 4.584129381899248 -1.3227875821762702 0.33552279190022216 1.1250689777424365
Ni 1.3921911155454332 4.7820855414517505 11.36719320278578 3.5840507010400278 -0.589742673854894 0.2997358641085999
Ni 3.0696226697728664 8.361735255613093 12.196217631314635 -0.7161141940043086 -2.0505738132018685 -2.0206981086883586
Ni 4.4733053930287445 0.8990425438861473 10.961552435474573 0.6796862901945778 1.54247240646855 0.7824985349668135
Ni 6.842505761689973 4.453577669380548 10.482607453845775 0.38486149023435007 -0.2054825646499687 1.7894034680712925
Ni 6.788841159419894 7.073052083609674 3.258661935336006 1.0994672180139322 0.799178823835972 0.30368687833654795
Ni 4.379712323290171 7.04063628946278 8.115263921232673 -0.5197114801684211 0.7572202200159991 0.5089696682708847
Ni 0.9613068383831235 2.5919743199099443 3.4690984075076963 1.097085348045317 0.24052772917955997 -0.24249745131142109
Ni 6.562876640735834 1.436228366077466 0.422310554670353 -0.823332281153724 1.198957854612103 -0.2415479429139582
Ni 2.690575838529582 3.1069819884634793 7.423508091666346 0.7084955011167863 0.47659202327112765 0.3864144365437668
Ni 8.677592156806938 -0.2967839858623219 7.009341831370925 -0.8136178820794374 0.5670920263349136 -0.42514682011695815
Ni 4.906397097660857 6.18035171999181 5.152423236585183 -0.712209973853896 1.4221712608829313 -2.107172278422203
Ni 9.338252938746118 1.4842909255250218 11.022978278529235 -0.7416010254215034 0.1620139519433726 -0.7664998455457123
Ni 1.4997614676243123 0.8691077869164474 12.714203471971338 0.41863215892689193 -0.5123720090842144 0.6256566141426837
Ni 8.786600119212789 2.5486605119940653 0.08180559254793228 -0.10356532088817648 0.7941772568563225 -0.5066603034114178
Ni 6.925108068606209 6.780169122931382 10.104591064585241 -0.5185493415395198 0.8307925940865111 -0.45955743638634405
Ni 7.408043114510256 5.570239172130047 5.564199353775696 -0.11965605580245199 0.4001754948836011 -1.063034429108195
Ni 5.036449820272518 5.0225745618909 6.980413401630106 0.1503480855696701 -1.192633712166288 3.6258599237663294
Ni 9.125894706188953 0.9470976834094347 1.917462394343018 -1.5584261015843288 0.553710205711369 0.5009095169705696
Ni 4.628632232679114 2.1935336616105348 6.151511401851676 1.645127042616999 1.190064665887531 1.6165155495278933
Ni 6.197834916548861 8.570819446586896 12.689456169555674 -0.5540241374073619 -0.3990542367949643 0.27415621586728267
P 1.1306666098058107 5.573810010684141 8.36949185894501 -0.3170478730244862 0.1542044832012828 -0.17748942187115238
Ni 9.072267203540214 6.423817985043592 6.765796729623793 0.7424101515863601 0.026670824422966966 0.4698577898710875
P 8.410261560327415 2.079183353731547 7.6776136006282565 1.170691403567242 -1.2596204625994822 -0.5635174216097779
Ni 1.1299895417163333 0.8678055902073705 8.499063213969768 -1.3478964614287559 -0.34815462173161976 0.0546300286400543
P 5.825790638833733 4.138397836276181 5.2976997888142145 -0.6602124977406822 -2.163274263622094 -1.5631466469884499
P 1.6269760692033688 8.926113245266462 5.320831402720468 -0.890492323939989 0.18234700707376983 0.6944500787673137
P 0.9304121287112193 8.401033029518784 0.5326262787284823 -0.9802755034424085 0.5267452470867509 0.5197490182745759
Ni 4.750977508957135 7.792849661966765 10.689011197177674 0.8257799713632681 -1.513350292291613 -0.09514058715959098
Ni 7.030137096623214 3.525938737364586 6.948757222230172 -0.23433522721560285 0.09231905855039585 0.5770825618887223
Ni 9.177973299646697 7.705146157116113 9.490387355980076 -0.5687017940241947 2.150011742185233 -2.942314664836978
Ni 7.288183512862098 2.4453844410854333 9.564993767006744 1.1282057235992053 0.05434180797567415 -2.564177637810655
Ni 3.1624366474632737 3.1437662630233025 11.543053755357983 2.9275873859291326 0.9613709532284219 0.8361222338295405
Ni 5.445918341015606 0.9141578571110955 8.394618504988888 -0.06745957630455479 0.00226205656129933 0.7385753512213021
Ni 3.2737076867709396 3.317206992793525 4.646328752058877 -0.47930762243007774 1.6286419004777823 -0.21308403114631044
Ni 0.18508815589029906 5.064478584195812 -0.02337276144497107 -0.0738953046275695 -0.5076553203348353 0.5160160335947048
Ni 3.4817067138205116 7.939921835868713 5.958478362051154 0.8107523876061843 -1.7670631527028793 -0.9666926225516512
Ni 4.711169615258001 4.968399839827377 0.7916289377074354 0.8955306576948449 -0.7218076448446601 0.43336997935769883
Ni 1.4401331012236298 7.863886161929875 7.445702012643199 1.0379700299403996 -0.2651475846107692 0.17089865602751214
Ni 0.31586246613704627 3.7716217047915057 6.81093305643806 -0.18417531853176022 1.4666312909685193 -0.5712865240322355
Ni 2.9673297388297772 0.32963755554104274 7.1564650172522155 1.404463559190523 2.89119213512955 0.7185526282424722
Ni 1.1222078961400117 7.218426949835261 12.403856792037198 -0.3430427544263511 -0.9687644174790155 -0.789703280245369
Ni 6.777720547922862 7.223732195687055 7.535431156819083 0.29087687105607324 -0.05625496583798698 -0.29605970080859334
Ni 3.073119309084277 4.879045401827039 9.210258317628362 -0.12355153420211624 -0.14322278737879848 0.2889793969230442
Ni 6.826209753015841 1.2207537653276377 11.277260010692519 -0.35774637918511293 -0.5766318475045488 2.5573729561839955
Ni 7.144459579786195 1.4497882776776836 5.748871066416439 0.28246319307108125 0.5222699849242166 0.13645821496145533
Ni 8.959243207124175 0.6551561256226761 4.535490850830371 0.9734451107841363 0.06520137639799739 0.5149670235049002
Ni 8.53779150868787 5.274861261916557 2.960587810141543 -1.1480620962035002 -0.8400686200717985 -0.8851634555279079
Ni 2.8413023251336393 5.6717993855516475 6.677153676862672 -1.5697538678923222 -0.143337715690108 -0.28548578194748897
Ni 8.15506254002647 6.489317366521522 12.56281753959794 -1.7690997235169341 0.4364779288590612 1.4084667668126452
Ni 0.908715342660338 5.59975192090699 4.556504076358039 -0.1486691552053504 -1.2884988361967293 1.385820233057723
Ni 6.877889525544166 4.201411543124249 13.685531845569258 0.47889290349016234 -0.3512900820368079 0.19050228919105255
Ni 3.9757994708429316 0.5900731873943005 13.26976380912243 2.239192512216963 0.695330424489738 1.4817712319337513
P 7.071818521200079 9.200001199818049 9.5882886192469 0.01028775507925325 -1.1940457620224663 -0.4697793712246684
Ni -0.00687363234399526 7.515808239601176 3.835440473422679 -0.8157891786991434 1.4691969948131667 1.2311789194293377
P 8.950701019310358 3.624336208066847 11.409994108436617 -1.500952175737576 -0.8359821087072505 0.2641862491387644
Ni 1.0943460805127525 6.384075015681805 2.126690346349518 1.17573822196253 0.3277752867443194 -0.9648478560334287
P 2.9274940204146382 5.426580163391493 4.081958182329776 1.3131798838831772 0.07375775060844071 -0.033783267098032144
P 1.8597947429302195 0.20083323518751448 10.615884133551987 -1.9229702204175658 0.19929751888517935 1.0184311885765236
P 3.851821811225897 1.0803966228884523 2.082680920533491 0.2135861675937096 0.35422602473668025 0.8712123926644545
Ni 1.7018245552592883 3.2956892124156147 13.128613662277075 -0.3865231942074892 0.6566098679910886 0.45297206985934246
Ni 5.523039178878674 9.24069948442937 6.253064195349007 -0.3471889153842408 -1.3723682213178754 0.14309397511041808
Ni 4.458567568450943 7.146212536894568 0.20695281772774934 0.5493840675321893 1.116298173528342 -0.3755934346688628
Ni 8.39541243688559 0.269127145642973 13.247732198988944 0.6916604318373185 -0.16937476318381797 0.1489866864457692
Ni 3.8991052786252864 2.6551457001487133 0.411745510002906 0.5211824082869927 1.9996929671916013 -0.14465129229520893
Ni 8.366400532996753 8.071783165020758 1.6316997784906404 -0.6775869844633879 -1.1910167453881553 -0.3402862747271366
Ni 4.951732834939833 2.9681644803099547 2.526167939065415 0.30202157481898306 -0.6812888587950073 0.4888312456497968
Ni 2.5947196918891944 7.555282236708239 3.7770688566949313 0.19719769893335715 -0.6573899406902227 -0.05113589944386677
Ni 2.1245190910105225 7.1883020573061875 9.817118156189034 0.20196195309121995 -1.0181352546026596 0.8507119587182574
Ni 2.855381631432634 8.533460127896284 1.3837296194080337 0.27900865886357756 -0.9392244990383697 0.3803193793896224
Ni 9.10293931548407 5.8388404306405075 10.575865699501742 -1.9085969824150293 0.007197546189703734 -0.7651003940950243
Ni 4.590373248170976 6.73870102117723 2.568168420385814 -1.235424582079569 -0.6850205579232976 -0.26353421737706223
Ni 3.376408713548783 1.0595095360733433 4.745641655917733 -0.16656506164916474 -1.947250433121169 -1.075059221483213
Ni 5.104175179030921 8.555079932232882 3.9912783603570237 -0.9285284527771042 0.4588982055357903 0.4533754759453482
Ni 0.4826530887818537 3.2141720694236104 9.110850809735087 -0.1591502572423324 0.7803953725808818 0.8745196026608164
Ni 7.075639782198225 0.41274534479805197 3.2697120575524896 -0.2273845069293826 0.5877084170336846 -0.8593812043574812
Ni 4.949135861445947 3.2677995720723496 9.386567775618795 -0.5414072199742999 -0.11392043887025542 -0.01616092603057862
Ni 2.4744056198796054 2.2641342410228837 9.784144940231487 0.7385534968444313 -0.9259115839795473 -1.3421158501912371
Ni 2.513221098707861 5.6017645753647525 0.30429016675018505 -1.4486063151460085 -0.15355502254274198 1.6881228294522348
Ni 6.06393310822305 4.9494604831326825 3.3191510129518047 0.19853390124627746 -1.8766379130099293 -0.38562099410819395
Ni 1.8333798125352683 1.8832509785232086 1.2728620384824538 0.8666805662323718 -0.8759779323738979 1.1505213563772703
Ni 5.51259563547112 8.950997816281088 1.596351259276722 -0.35022615954866776 -0.5290623252557016 -0.12312344552576214
Ni 3.4606897783307082 5.833794882138101 12.049935679347255 1.3538529361225071 0.297584622093552 -2.9521259945004448
Ni 1.2988299184402434 1.8228342451690251 6.180372124783547 -0.4977249485950009 -1.2129040323795497 -1.4301823041128658
Ni 7.404388801808145 3.0680552107712002 2.20531464636744 0.6893405254548903 -0.439312827204695 0.44428919737336386
P 0.7345094331999535 3.9004130402775647 1.6843024040998282 -0.5806422542155225 -0.07334997364706078 0.5864223512324094
Ni 2.902266277902606 4.145066493212266 2.2007541754140703 -0.5777055401847019 0.352230077352574 0.6596779653934509
P 5.261032378061616 2.7075952898198685 12.253665467470988 0.6272442703447778 -0.3281151865822413 -0.026120608346451787
Ni 5.989659666297919 5.889796760552679 12.382883448602469 -1.2541928638260078 0.8685345887219751 -0.7029666008787571
P 7.226978412554413 8.25980404597808 5.003046248707413 0.26828458757785406 0.8906234502012147 1.4755494193937555
P 5.236240556100343 5.5310712468990495 9.444979274439484 -0.4554218169514157 0.08213157649443274 -0.2587457948494834
P 6.764819154601452 6.497553482459273 1.1584319664175826 -0.7918540080397847 -0.9024296988075232 -1.5083852349768538
Ni 1.641315072851752 0.2928282387368139 3.2336577180425548 0.27094747912199785 0.4518343567104734 -0.9037610160244371
