# total energy = -340872.04834027524 ev
CRYSTAL
PRIMVEC
9.24816358072471 0.00000000000000 0.00000000000000
0.00000000000000 9.24816358072471 0.00000000000000
0.00000000000000 0.00000000000000 13.53562221908967
PRIMCOORD
 96 1
Ni 7.791753350185379 8.137024281257345 0.7872656283303116 -0.10304750071149349 0.5061424832347348 -1.055236530330331
Ni 5.431538825946211 8.532568228381894 2.041483047575979 1.1600606633262731 1.2939434042510682 -0.07739020515470542
Ni 0.514551162939096 1.1724544069349794 6.717796507170204 -0.044118844696085305 -0.6008943195963393 -0.8430225604937998
Ni 8.163242824397352 3.1466783368057283 0.7993668500935212 -1.17604238346651 -0.7285940716388742 0.8461173973690396
Ni 1.1711411677371377 8.039816836126969 13.373315882239947 -0.7081239767099804 0.5868046742724926 0.24116382010166212
Ni 3.4402150420134254 4.256004780610659 4.9740839739904565 1.1900438399519249 1.4418965072260006 -1.2800242230668148
Ni 7.2366508405230725 6.199885486480573 7.3186025153664085 1.404009245261924 0.7301125651659297 -1.0169777439594485
Ni 0.7249089620249107 4.937058027142015 7.9593513411364025 -0.6792322333762948 -0.14190561122927173 0.4015299520289666
Ni 6.514988908655642 4.390214127364726 11.08241264315672 -2.2682428926157 -0.40607411975622315 1.466136867830604
Ni 5.697673223103171 4.842828490615196 5.766269625230992 0.7512678590873061 0.37277679115567414 1.1405218219623972
Ni 0.8652609388860657 2.423971362478043 8.744228168869514 0.30180328816058993 0.23560020997095554 0.1758796541818713
Ni 1.8016809459684169 0.5443126774642658 3.9001678228940873 0.36577953390223455 -0.28243311116409425 1.5771226495525676
Ni 8.542935419514151 3.492624383803344 11.89130140225093 0.09715941736183267 0.8265687858131507 0.7488307104007232
Ni 5.5171213297266775 2.7368089846286665 0.5864075426531088 -1.6461238593126293 -2.5368074733278183 1.4172514549838109
Ni 1.9623677844367138 9.259908532555487 8.34197652885627 0.5317992645708906 -0.06884000159184918 -0.34854465808118684
Ni 6.450418232040641 1.70878314496617 5.9032774662193335 0.2639764471208034 -1.1850469009579656 -1.1290292479417652
Ni 2.836901856728947 3.4239012818374213 10.160297695167477 -1.360405135418728 1.1714318812776923 -0.3324130426266469
Ni 1.2628644519920194 2.3319983778123046 11.482037804774281 0.49020987116487835 0.20129809425497588 -0.4149248852786338
Ni 4.924915188643663 6.475526995576838 7.214568076039931 -1.9443864813098124 -1.7391062624786369 1.8993857482294065
Ni 6.757142818206945 1.7910178136084776 11.967885443077172 -0.4553698806675577 -0.28605862373182345 0.2467549410361944
Ni 4.494968073801008 0.9609211662854625 8.224094814523253 -1.4271787413998518 0.3898293757625867 0.46508736506563775
Ni 4.351510563681859 3.5045360182175695 2.74633736734371 -0.39941984766449923 -1.1539254969628128 -1.318834511065793
Ni 0.6839358990522522 1.2898598408546933 -0.05669031661161512 -0.5870083056428664 -0.38774729642257744 1.2266897733097324
Ni 5.679010429432435 8.88186211051767 12.91920979023869 0.2324549794737545 -0.13847010318516154 1.90964624961515
P 3.069816851078533 0.2671045294939569 0.1606165524267222 -0.38679367426005645 0.12449204373851465 0.020935207490770394
P 5.04725914180033 0.008638709399322939 10.989530564032194 -0.49084004854970953 -0.034998113341739724 -0.823212467746408
P 6.661100641660569 6.668332705412064 12.839864247831633 -0.13028756737436917 1.4054832587042891 -1.0630166884963823
P 7.866931670180129 7.37473516772711 9.28458355722986 0.05903792789976284 0.7078013032632391 0.13274939865130042
P 0.6331523843819148 8.425622467228088 5.627990161779952 0.5027817942926179 -0.33942752627126704 0.12614937683627953
P 5.708327107299744 3.3302821240926974 4.366550851762492 0.3725219948323907 -1.1694644731386763 -0.19674312789444182
P 4.615841568982628 3.5899058142406397 12.337354193593875 0.3775418166444853 1.616952894175628 -1.1872827322670199
P 6.0321145548746244 -0.12381256149904254 4.21116228608605 2.506012085213517 2.5516378534724313 -0.9771508417704978
Ni 2.417386670162105 8.370688376839501 2.0540170833846747 -0.08484640432243452 1.0191768084932964 -1.202978802846038
Ni 4.675612448811152 2.981469146451906 6.951489272058794 -0.3266745974809729 -0.02213025624013608 0.1299607801625697
Ni 8.065609963752182 6.150703753705069 11.089342291966176 0.7568484384988772 -0.9858077461145475 0.1665172391303648
Ni 3.60630280788693 7.1064829411595465 0.339607355827189 -0.7566170392143614 2.566442779695748 -0.30581575175409265
Ni 7.887777030405025 8.553728026161203 6.672818064644129 -0.3774238030093823 0.7018060049117527 -0.14054112678157732
Ni 7.663971476970044 8.410372245839069 11.435827506887977 -0.6803527201339832 0.22866131675927717 0.16979796676416564
Ni 2.031201864363018 3.9239494749873955 2.1909842324542095 -0.002981451225827123 0.4306705781486647 -2.338456634626624
Ni 4.217236479784236 1.6957617309481348 4.664294546484965 -0.7089618992302436 0.586491513907448 0.16497483434390944
Ni 3.102139182039494 4.583879916392905 7.881521572704883 0.08076760626737058 0.006972574663091217 -1.05437058278561
Ni 3.8119912092897152 8.021588706134393 9.525219843172952 0.2317253003965816 0.781865272258189 0.8153338363292797
Ni 1.0264351555637024 4.991344746095045 3.7772773032825437 -0.8985668734180072 0.3941179758356116 2.5027917785040055
Ni 7.079108377598903 1.8824266603089466 3.038733774008493 -0.5064921532646697 0.05154213374334994 -0.17221120419134858
Ni 1.8102354970811176 6.0570198588167905 6.083030318281083 0.17890995636776286 0.19488936251515468 0.380230419220242
Ni 7.82629524035396 3.241675470891849 7.197810404022402 0.27770665222270235 0.9055456187286857 0.0611698866411011
Ni 3.8257432282135917 5.518462313414615 9.766681990104548 0.05629250394414176 0.5778451510863597 1.193643898598357
Ni 7.716510293047073 2.6114038893981566 9.80152259594982 0.6530686876070494 -0.5743682482813528 -0.43097371121138034
Ni 2.7295954172039028 2.443938147183255 0.5374884577171719 0.04393115416531144 0.5763891353661235 -0.842849011030413
Ni 8.610326785955502 6.801117835007909 4.945672691316589 0.032704432211556576 -0.9771058474651753 0.37308789463818975
Ni 5.861948348957119 6.585163972269883 9.58395122943924 0.7156079437918514 0.3381779701348821 0.350198648744842
Ni 8.370984318067185 5.636145192235281 13.58895253297455 1.3018816852615385 0.005185915076313649 0.4993306025192239
Ni 6.542141516295523 0.6348568208900994 9.605662217755107 0.18758871508868338 -0.28270667654045506 -0.2397198885662839
Ni 5.722143863367177 8.380852108377727 7.913087403902581 1.8329121899872045 0.48040239815615327 -0.17702585197117254
Ni 2.2291403048658642 9.263330353000566 11.591635939181193 -0.55409998495062 -0.3498217250213975 -0.9149090622214565
Ni 1.6300997710560539 6.00220599455195 0.8473213515904798 0.08220408160358102 -2.2722643550702672 -1.1137044446592368
P 7.2605573428218095 5.252281675440829 1.9395460917007015 0.8404704834959074 -0.5690182968233491 1.3000677719812512
P 8.835232870830929 0.9502765302522533 11.62091377476237 -0.37143261842295383 0.5377799076343577 0.11043607986608078
P 8.868202573227444 4.734088585768564 6.088471937605097 0.7608066518156767 1.0723976154906498 -1.6441577367251943
P 0.7101525925595862 4.033198028819108 13.628340460746434 1.6159082549611976 -0.3715017810979924 0.027307686676017486
P 2.4913534807560294 7.130907340606727 11.80123538887107 -0.44193303843636145 1.245867631789764 0.27018540414499276
P 4.017272691504436 6.538433002786125 5.260958302309948 -1.3415440368481668 -0.7510727123573646 -0.7234572646329412
P 2.6387322121419734 1.34599619248074 9.82120361240705 0.385944953106516 0.22876467510636087 0.21222708246265387
P 7.743524178236478 1.2365811717084567 7.7366231987334535 -0.35695962161775946 -0.8965922661901398 0.9838719625444151
Ni 0.5035292018405915 1.8264105348066457 2.5721602329747686 -1.325118801412608 0.399511378937041 -1.7296299475570855
Ni 6.051646675901678 4.717932044369767 13.686679724886043 1.3562121803833032 1.3335833872401937 -1.8334660056081455
Ni 7.20194248341392 7.171756478190294 2.9183069651174067 0.19279905564502922 0.041280346806025686 1.4875950377043798
Ni 1.9674450261241438 7.368705365213076 4.047760186853765 0.0032647867942008292 -1.1907804610076331 1.4323561718357332
Ni 7.476899628421169 4.809618335971187 9.073387874543169 1.022133577128775 -0.05619377358274838 0.010765723156936297
Ni 3.517150513047541 8.247151410608739 6.603516027651551 -0.6849660505362783 0.2447219697665656 -0.09526965653828755
Ni 9.266289765277392 2.8618441533245726 4.725515538329133 -0.3973781346441221 -0.3460041510475202 0.6012347336548935
Ni 4.05049209431181 8.693495519097683 4.031354869860446 -1.2852859856863863 -1.4160245245552452 0.25998455235259094
Ni 3.771650720691228 1.7619878288054858 11.926831921083238 0.3489886875971409 -1.589407637567508 -0.05907469467496923
Ni 2.0448614016532436 3.2787791023125568 6.254418206579116 -2.0604687037180773 -2.0299633360403684 1.1438220899802236
Ni 4.965486881326276 2.768539433134262 9.94751780209635 1.3850792411266402 0.06292749276215615 -0.461254878693425
Ni 2.9082514370905534 5.1612057626215035 12.024139246377956 -0.7581938967831781 -1.904590432358797 -1.0536645578575208
Ni 1.2327061912584873 6.602152848371538 10.201405781325265 -0.33020266523888936 -0.8531735328848725 -0.7721153919602767
Ni 5.127505455319145 5.578529134470821 3.5341911788640408 -0.05404407422959724 0.42504808975556474 1.0753965502179739
Ni 8.386160554149285 0.08752091882178843 4.306439639522132 -0.3248223747635825 0.4056732847733787 -0.9579503575826469
Ni 7.533877562913438 4.515841178515998 4.145148895986096 0.603071015532684 0.5190157396529771 -0.9558088857596121
Ni 0.30950735852285716 6.708303267475947 2.419248325447496 -1.878376492967591 1.2174016631395872 0.337042056758226
Ni 5.968477942759496 7.4372620002384275 5.369798087320924 1.1421876397005943 -0.42493033323077783 -0.024649680227880128
Ni 0.3250017314247153 7.483678532167773 8.008066041661971 0.7397858265896355 -0.29646336400491524 -0.798237028747993
Ni 4.648108410963398 6.899731000969776 11.921404174004271 1.6861603064092252 -0.13926457406199888 -2.0501835197419855
Ni 3.693041332088032 4.772107785362415 0.5257303428148069 0.9494407774497391 -1.2674445866295914 1.880248513179323
Ni 9.11074490564008 0.1811724451382896 9.620145766401162 -0.1946844455932002 -0.2281473532373361 -0.4360400699906942
Ni 5.389006522630199 6.396621665745959 1.5018453166927626 0.544434693946714 -0.09502694439986215 -0.7517489124887827
Ni 4.0866246685791845 1.0528109174809157 1.9707456956291414 -0.5564898253390352 0.9461333103430608 0.3765653116638289
P 2.5162402883714647 6.76503150155736 8.339756969648649 -0.7240524750147789 -0.4923217753015585 -1.079779766887334
P 2.088836418454208 2.7216789893633924 3.8477575562878323 0.48229678696538875 -0.17556186583113637 1.52895611714967
P 3.2862238738214478 6.407016601368311 2.4031824160496758 -0.20545968183183322 -1.1337438798086152 0.256225599530791
P 0.22262086370791334 4.204945670672042 9.962366653195325 0.3191278954819665 0.13084986763574238 0.96863329121779
P 5.429254529595035 4.603698730484275 8.348067369248511 -0.33217393003264734 -0.6104143432716326 0.08086505107718332
P 3.006448435700992 1.1488438458639254 6.543634169862647 -0.02153813118209194 1.1437061332276497 0.14354777481838504
P 0.20923229760428438 8.920066273378824 1.9868125298432981 0.17053073116513212 0.605868632882479 0.40608543261013286
P 6.845435033853382 1.1277117925747135 0.7355369513640628 0.7615085629787078 -1.0678447060126448 0.6814384969989942
