# total energy = -340857.1206395849 ev
CRYSTAL
PRIMVEC
9.38815270016616 0.00000000000000 0.00000000000000

0.00000000000000 9.38815270016616 0.00000000000000

0.00000000000000 0.00000000000000 13.74051044571287

PRIMCOORD
 96 1
Ni 0.802097457045024 9.01167813224288 10.494575300453397 2.6558042982797163 -0.055620417577781626 0.49275706306676426
Ni 4.7374025399565385 5.109445632722186 5.667905513088086 -1.1334566875854994 0.6196469176134941 -1.6064064861183496
Ni 3.042474887862935 8.008413222494942 11.157953417149049 0.28621134725960384 0.10403788964922082 -1.828700465898702
Ni 4.303453970047972 2.3902517738881217 4.424087034735251 -0.6152765564599403 -0.05724021256939175 1.046664986611236
Ni 2.828077650751499 3.643063163456486 6.278492171022736 -1.818460790448565 -1.96190366425797 0.4108242328466989
Ni 5.75020581257636 0.7904749243330234 5.403854337758741 0.10440350051875567 -1.4488557121526533 -5.460697355800706
Ni 2.22104910258894 4.313104990749052 13.21530693865598 -1.2307513449736158 -1.4797716850052194 1.3937022069089609
Ni 6.362501114253808 5.444668391645778 8.90364396812063 -0.19951040622693383 -0.9212195778205167 0.43606989478736513
Ni 7.991805580841043 6.565303983110542 7.637814027573484 1.4644278555592973 2.819027182929526 3.6858406751953363
Ni 0.17407512241188655 3.006574592959308 12.490109715819791 -0.12140877682750058 0.2779902449013922 0.5183724496420233
Ni 8.908277021346294 5.817941332380144 3.7529871626634916 -0.38328566110679796 0.46740675722743374 -0.1665357510731261
Ni 7.972456598676717 1.521547252961755 0.16516764338349707 -0.5426580616622654 0.9641096923158234 0.8794424938837305
Ni 8.698836728719458 7.401788364887 12.052886558342609 -0.5606820090435118 2.9134679158086145 0.1733610015250756
Ni 4.621684173067911 3.8213160137010385 11.98624569711251 -0.8396233050042636 0.5865704467744995 0.46147059424865683
Ni 7.91255079800202 5.689154657304841 10.848214798004719 -0.23512532721706605 -0.992159142253872 -1.4946719991558195
Ni 7.599202434247219 1.6562578522222535 9.056590114666903 -0.34873234861196073 -0.07181733905261825 0.11531449100430463
Ni 0.7827372090977803 8.10127143820932 8.007612413092412 0.055864929488419916 0.24765534136327672 1.4765485500822313
Ni 0.48665929055864576 1.1460211556434798 8.613018688514556 1.1152494205488535 0.1685414686492452 1.141841826325401
Ni 4.357182366421784 4.006440991526516 7.761230679457134 2.251706328413258 0.797219386116756 1.3055131113665388
Ni 8.961376411507096 8.471230361134852 1.7506238052173628 0.34159856578065684 -1.1595675257399385 -0.36840231623706227
Ni 8.234752189501101 -0.14505634324161681 7.4577577132465604 0.7795610496050445 -0.4659150031732556 -1.8051792428483104
Ni 7.0494885566878605 3.4230799756474406 12.220480100314782 0.07322990312942873 -0.42061885033961754 0.0600789675697675
Ni 4.5618159250029455 8.680548607780057 12.676692673718106 -0.011679236110141177 -2.080402723637843 0.3579991186258673
Ni 5.174805949960432 1.5422762935337242 12.80577038151883 0.5667019899853466 0.5800143908235366 0.6349629791452742
P 1.694054553917338 8.549715315474371 3.8901856223187234 0.4421994047238707 -0.027797481828242446 -2.676949564898764
P 5.338047144464687 6.961775048506745 4.0986702010278835 2.5004266207059387 0.04145621026225763 0.9827383631606044
P 2.6487451629771566 4.410206651363125 4.46170817797984 0.9505936601072595 0.46930757379457244 -1.8325779465762373
P 6.446177716888753 8.043543688899067 8.185249400537362 -0.33638051191482715 0.03821713449966967 0.9748461048967211
P 2.5363126494400645 5.787242073924375 1.1013992671296358 -0.13976131119275928 -0.14532209310998845 -1.2077813664410038
P 2.5920407222820967 8.574960057366592 9.154779862147954 0.5525964038218999 1.0045588014698053 -0.5927192399847148
P 0.8237249438048266 5.97848812713614 11.939170684367934 0.5464131578293234 -0.991295508701996 0.21843141150115286
P 4.135424817802909 4.535810742763656 9.82539906081515 0.2624880355007351 0.1988475758319543 0.9308072215089518
Ni 2.098486772576688 6.446525078528772 9.307588002853464 -0.11302080987412148 0.6182616072301933 0.8726334413816971
Ni 8.56520576698875 0.871888043416382 3.071512443338071 -0.17275370695837988 0.385045324110382 0.6146096122999027
Ni 6.804213686224429 6.112306851915507 2.2721028143346027 -0.08560050887963967 0.7084795602771863 0.8155999455064727
Ni 4.792013422659048 9.509916770012335 8.827659078774005 -1.2323824528191356 -0.7886676398920031 1.440901490302583
Ni 2.4958778769113192 -0.19484734848504698 12.954869263198077 -1.315098955282761 1.905969829204827 0.6271211145033523
Ni 9.621729665488852 4.197386623860425 5.858706567874529 0.5937754491633709 0.18225804690438932 -1.2383787796118866
Ni 2.986887637307398 7.898412240437987 1.2508370611117137 0.3395231713088669 1.3357264017251254 -0.0870809500799081
Ni 6.115864961687598 8.004601632607162 10.710397659104155 0.7564717718857488 1.5922052549173031 -0.04196348891597934
Ni 1.0396627767305113 7.713775446539024 0.02031032897345892 -0.45084782442748805 -1.9016015249338025 -0.5743754473702043
Ni 4.609479574905068 6.671821960614871 9.684586162473229 -1.6020307256481572 0.201052296792757 -0.3752180536073151
Ni 1.4677531395209122 2.0703880323448476 0.5748741260796818 -0.9950773443419315 -0.6741388780137874 2.0886647065363193
Ni 5.657713734806868 2.8926963039475413 10.03113572730718 0.393125015794723 1.0466606157358618 -1.1302736618718277
Ni 2.176952950611341 4.2681639050524876 10.630056667028638 -0.7811787877141255 -0.24499630647387483 2.3159134592187853
Ni 5.440115137715794 6.150300704811683 11.94502419740988 0.6411192285546572 -0.5926937860634179 -0.5438101729888376
Ni 8.115532041754982 2.329228783073902 6.54997782426374 -0.24141835931462938 -0.7858332557670015 0.33565906036777027
Ni 5.28252561097618 9.063190924642514 3.377678870481661 -0.7454538235086904 -0.2978491886088483 1.0723086553212693
Ni 4.903732436611236 6.450026859386265 0.3771746568855026 -0.21397466128137985 0.8051895488064262 -0.21035737624376677
Ni 7.633656953676169 8.067567970975004 3.8178555407142505 -0.8280913931052643 -0.07978467352881098 0.5199328521506078
Ni 2.380140733717827 3.7298190800894404 2.099536368018692 -1.4763395193952187 -0.6904633262054238 -0.23320574159684998
Ni 8.17982210961587 8.61559198109643 9.705416595091473 -1.1763712275608385 -0.573103008415684 -0.3996964983646536
Ni 2.6996383373162156 0.7390597687186916 2.625440013377584 -0.20308578228301796 0.04290348423174547 -0.5721470722603178
Ni 8.715331712544163 3.2614441552092215 10.337727437755985 0.6264490281369921 0.788247778745765 -0.7019870105743071
Ni 6.880623858876266 5.132681309993754 6.476163475759616 -0.0007949850974695986 -1.5554145684515148 -1.4289618014422036
Ni 2.740035557235229 2.1129257510185755 12.552107196856552 0.7472901053864808 0.7544262022106296 -1.3352363494625843
P 4.67501826703954 0.9251076019283281 1.7559130902980908 0.9340385839620559 0.6100955264796332 -0.7347809171758765
P 6.3328721051753964 1.002917548107918 10.697921743335998 -0.25912014746976664 -1.6136878502711112 1.1560736536540672
P 4.936121562504936 3.0600213447601314 0.4876140656610775 -2.24740461571411 -0.8509397584583474 0.5023465065274123
P 0.7435707759627274 2.6479096174106234 7.1749095791159485 2.0004028487744323 0.4347514330862577 0.8919748220227864
P 6.794769204876874 4.231784814374779 3.6853014000676025 -0.8470435087277348 -0.03187679410393865 0.2828753409078354
P 7.102174868141614 3.5975306241566454 8.097928317127943 -0.7300549724551169 -0.7643622303774191 0.08703338467142431
P 4.001418329974883 6.286691783357681 7.4816392954055155 -0.6003438464095081 0.05129916449460842 -0.45890437618337737
P 7.028233779579646 7.223328975288924 13.968739968749528 -0.34678936595297694 -0.22329182491724772 0.004144361185676734
Ni 0.021207836346049603 5.846744184044455 1.2552523092009331 1.1877727845295607 -0.56771654729279 1.5042938385162996
Ni 3.41958758294238 8.714627601111692 6.965257114244128 0.30118570918124904 -0.2970922558381658 1.1422943404817874
Ni 3.0108837549260357 6.123319154719366 12.405303718447163 0.8276201098958004 1.6835493511489392 0.11947479302958133
Ni 3.192976359515667 7.0411049365652305 4.75954825273064 0.06095725640966276 0.045868994617972614 0.6488353662519922
Ni 4.46527755353485 3.841688304480555 2.865308246854876 2.200731380027287 1.7021926772817395 -1.4218647853861062
Ni 3.4319517796965844 0.295432013651747 4.839187949819413 -0.9825216191641079 -0.6183431112004061 0.5377768223105641
Ni 6.2679248666442 4.50569354975873 0.6164185782260027 1.116883870828483 0.6285007684596983 0.12088041512785634
Ni 6.5626283596671495 2.0544751139709856 2.9305343135133306 -1.2062381903236 0.3440190022966914 -0.10118267958861282
Ni 1.442292470122733 8.329516200159368 5.840856873653748 -1.451938464843035 0.3365206370371172 1.0392180434148877
Ni 3.245737776188885 2.2071734132930296 8.73761824760476 -0.7624884103934739 -0.7020623438969329 -0.11772541443864241
Ni 8.858594918671086 3.4687533372337755 3.5257732198505822 -0.08839324113342842 -0.4500281567396701 -0.5142563705911207
Ni 1.3814666305096055 6.171968560626948 6.845769404153669 0.37470923229169656 -0.43194893064045614 -0.3245161563770733
Ni 1.8839487131787567 5.812308440920369 3.132698788004624 -0.9836217942068222 1.465720606228792 0.16983267665684298
Ni 8.082664120087198 5.465866839839395 13.243886352292385 0.030279110599515595 -0.6417560908077077 -1.0452956170675354
Ni 6.593036585397497 9.17859009434842 13.015602160102121 2.797606294051588 -0.7696630737650422 -1.1602193003913246
Ni 6.613944000865692 8.955837401571653 1.5733567109782711 0.38558037067824563 0.47674757501238546 -0.25510279878025743
Ni 1.855793644032319 4.389655985687382 8.418260527477623 -0.7860497426531817 -1.9257267001167802 -1.8627215600391531
Ni 4.038210499359641 1.1917226816871138 10.874363618976233 -0.43308741512027343 -0.9411782803306308 -0.8466658136733418
Ni 5.9322139237940945 2.9792456812269705 6.1579060470976215 -0.6638243834616567 0.7630792498999374 -0.13584809218128216
Ni 6.224748753605032 0.7722947671466023 7.325519014521659 0.825391734785914 0.7027717112591315 3.1919559262820316
Ni 5.461172763622916 7.5062878896182434 6.078979849593754 0.3868983181587207 0.2871215177786991 1.499433939320837
Ni 4.240619065814192 6.550376820742141 2.551337448593769 -0.908265845873326 -1.5595653573950947 -1.018585968986833
Ni 0.6441173831641988 1.5284193805426798 5.32565666088367 0.20491563640290517 -0.6729489714707443 -1.223445298230506
Ni 8.531117385504684 0.6574645194781334 11.617491274144125 -0.7091670732625142 0.916201812890951 0.5423004212125305
P 7.89550191318377 0.47031545598811114 5.160193290698535 0.7175997774108996 -0.13957567754451447 0.3805394658202285
P 0.2866597240183921 9.707161852628758 -0.013504857274808477 0.11622620418529661 -0.49032119993176204 -0.71069019477526
P 8.39918567936434 3.6184098751675413 0.8499573193329948 0.06664787903653682 0.25804774034119426 -0.4128860004717341
P 8.74900701532118 6.170917087554457 5.8541167001500565 1.3134796745117832 0.32203118517169055 -2.552972770233771
P 0.0234074804610914 5.4007318382595395 9.143141369576819 0.14276435968514123 0.255939692859256 0.3242387343459706
P 1.4640729837671933 2.0839163600007384 10.761127479590881 -0.37538954618817283 -0.5353761832888715 -0.546988056496187
P 0.9517615055007359 2.030037753187999 2.890797080710354 0.890086603861138 0.3105113574575491 -0.2570930897374089
P 4.17018914626215 1.6084627681860701 6.641310465207761 -1.3969520813048262 0.43204457567805593 1.0686039527761726
