# total energy = -340874.4662424831 ev
CRYSTAL
PRIMVEC
9.18012449983912 0.00000000000000 0.00000000000000

0.00000000000000 9.18012449983912 0.00000000000000

0.00000000000000 0.00000000000000 13.43604014672247

PRIMCOORD
 96 1
Ni 3.7276629558557364 8.38661281215363 2.2858601570983317 0.07716137697335099 -0.838636258500646 -0.12631315610765342
Ni 5.232698451518349 7.138887023453275 4.259224289370636 0.5765629419398264 2.228205674188156 1.7631800155983892
Ni 7.134783507844009 4.3835461241323594 0.9646777669423461 -0.13823124770147807 1.047264824978764 -0.29482865661496965
Ni 5.179260947353829 2.826652105702978 8.081307578774444 -0.30759418381075415 -0.7793152521428256 1.0808881694601644
Ni 0.40799226895442653 7.571316783575191 7.705999306740982 -1.2100292819349159 0.11139175891113073 0.20734507178000422
Ni 3.1995028584330822 7.624882809481387 9.086188782538315 -1.9290861035073164 0.4963080136428163 -0.9784489917566308
Ni 6.9295801870074705 6.573767745174007 6.0723107936221234 0.6915210780459767 1.809152882784078 0.09189302675657077
Ni 4.294737600633381 2.040732475222196 5.942652552543471 -0.7907941993167026 0.8870689000807369 1.2222844451531854
Ni 7.229779435192307 0.7804345061484854 0.2527389230207504 -1.9323336639103366 -3.1907703906143627 1.2629765235559087
Ni 5.739680001937473 2.3864926808316174 3.8270543267693964 0.640273078504278 -0.028176976654848248 -0.6896014924257609
Ni 3.790060261440041 2.6530467730702316 11.483084380346265 -0.6168693548683569 0.027253693509630483 0.6959282059747369
Ni 6.497783855469537 0.20883956811356444 7.5602987982636884 1.101914136892528 0.1951423590662252 -0.5975030345266032
Ni 2.8621516467791155 7.212640142927206 4.547804254095408 0.2897756675720945 0.3977766556341214 -0.2600092349429393
Ni 2.3128864433481757 1.7387981835247162 7.531034397683778 -0.2000804197977909 0.17904622483531102 0.3941457437497534
Ni 5.858121967017463 0.25355136403063877 5.1483542225177725 1.914981031564502 -1.3143762181841236 1.3574398821428169
Ni 8.412776166709355 0.7404660805117421 3.8541412018403176 -0.09322125864969108 -0.771788090527845 0.8674004751175318
Ni 6.004600032031905 1.8193445950587293 11.642153903995315 0.4581150475128627 0.2690124668828141 0.1049002376495161
Ni 6.621128006982073 2.281646479996199 6.2196233319450265 -0.07270436964326188 -1.2226762812749652 -2.709189912989708
Ni 8.175626012941615 1.6235968023598737 9.264472306568113 -0.13247223373051378 0.3954809176214092 0.5489726910263836
Ni 8.290193965522477 0.6449533121594134 11.607583391509015 -0.08488599931111832 -1.4223980321817569 -0.682837948449682
Ni 8.507046864229617 2.4852983598082052 0.01762124879639137 1.393983999815438 0.8492556858877051 0.27653242940894307
Ni 6.983036051420801 5.9077588996780985 10.319214438028112 -0.8373075123868934 2.172406307830349 0.45862155483563594
Ni 3.981025209323622 0.6789289525842348 4.162310634034024 -2.259861096309908 -1.1376972080294083 -1.546247043019634
Ni 1.6654489895246292 3.476972118589857 5.803092629281028 -0.5708126697196105 -1.1584125861998886 0.6051191563109642
P 6.102193934586965 7.82919565825059 0.5583223141694234 -0.21255361256413716 1.562896735761173 0.6650338303887257
P 2.407698768208363 6.052511101304302 10.82402029896313 -0.016329333287642845 0.8243866905601673 -0.3961607172972532
P 2.410544606774074 9.060902129863315 12.147792402213913 0.8811710465390631 -1.429520245048835 0.505831122641903
P 2.075662848585191 1.298510236911678 5.12868396995407 0.08969653332588423 -0.15975575203681522 0.2557404323642563
P 3.1050760987979267 2.9534204436187728 9.414848252405138 0.30783895283170853 0.43690498909415076 -0.8176231465840886
P 6.414703729599601 3.9640327990490087 12.16038202482364 0.10657608269004226 0.11230810007781303 1.2572190522468412
P 5.771727816237135 1.220901465187431 9.572211190927202 0.9848641512543556 -0.24149343552693892 -0.4588388130527646
P 7.936226728694522 6.919922696132866 3.9588891753445967 -2.1962062384634238 -0.650492442239441 -1.1350145189909226
Ni 8.292314574260152 5.41456589611606 8.27783660006021 -0.04128548901234825 0.19553008142294714 -0.5793201929699894
Ni 4.281215277384053 4.9944283225731345 0.6614894702510726 1.4232634655058456 -0.12082410796862417 1.8533491176853176
Ni 2.285245088763162 8.591604990128841 6.899003028637572 1.1324511291391206 0.5374343513694808 -1.024272734958965
Ni 3.888673157804113 5.053759466605996 11.924700690960782 0.21636604433169188 0.15201184642533822 -1.0854811881474855
Ni 3.7204840985706222 7.320203660586658 13.426218362951197 0.2855994247072178 0.557423392896898 -0.3384463933049204
Ni 0.5964464528130982 3.4762652490106323 8.114118261412205 0.1645529163151424 -0.18045030427168923 0.27057569760487593
Ni 0.910574703758427 2.8659063176609725 3.4550775218826977 -1.8524582304399322 0.017355203448995916 0.6991050610408218
Ni 4.2759183456020695 0.4224592270050819 8.128952424439081 -1.118165565754384 0.4215503610149514 -0.5453798314688026
Ni 5.523901177785778 7.739377321067004 8.995187127318857 0.43388882797564626 -0.20937701460836844 -0.1691958144037925
Ni 1.2481205340497912 7.963427437308072 10.647658174971406 0.026447652668567356 2.062869085629454 -0.49185152053335934
Ni 7.880732876663167 2.2495068644524814 2.079509320711103 -0.7802801871592562 0.37671032188212544 3.0292883999150604
Ni 6.108243636570201 8.62413017089759 11.811904502390183 1.1231920724346978 -0.5428562937160006 0.4124823372754122
Ni 3.9580748983098273 0.3614031375964238 10.607941284743374 0.35031486260773215 1.6391140036536997 -0.06298637102454958
Ni 8.30585525775829 4.5642476929305715 5.953186745298803 1.2331414424723472 -0.44605631657611566 -0.5518659534137786
Ni 1.6312530261140754 3.852595268890428 10.965151859523798 0.1896430265145508 0.4433869972740687 -0.30183619828105435
Ni 0.2402282494809108 5.963353733077914 10.457605731453732 -0.9810018400854719 -0.5763048031824334 0.8724544926016715
Ni 5.785644884835901 2.6371835180974967 0.6622918131241149 -1.7643164431956777 -0.8569054891234791 0.06828387197806304
Ni 0.5057156112636038 7.145928178872308 5.085151820023105 -0.06257499451874383 0.5986014097971045 1.9409468595006445
Ni 7.764200377459525 8.485427671254623 9.418569874839134 0.9706914592983992 -1.0589726003339954 1.0264913398768385
Ni 4.287118097376801 5.530538407730966 9.225776246173975 -0.8521029255285132 -0.1871202600926971 0.1710791474694344
Ni 3.162736460188984 4.144752728096031 7.502308870406472 0.5915807555048973 -1.2050218014179956 0.3561597514242834
Ni 8.907208487066137 1.230265192081059 6.983663971930138 0.2511402145880836 -0.31457344334206466 -0.47560291988498093
Ni 1.4542051468292596 8.603952257454264 3.2855555085855253 -0.39951086471640873 1.2608427650423577 -0.13268486396195214
Ni 8.319542823246916 6.368013616873137 0.4579798823673519 1.0820125128725946 0.5826680263962998 -0.42063324851732076
P 0.14098376055773923 2.4095623334626834 11.625318473848035 0.542135356389576 1.7852729908426868 -2.484255153152399
P 4.581855171540354 8.084935563939505 6.456057436009136 0.09527068497955204 0.8113861645354413 -0.21494653827634594
P 4.41936696956269 1.2910926963920197 2.0677128608500124 0.4724386632243863 0.2545019319714649 -0.005488276808080871
P 0.9405588260917292 0.3796321106284604 8.720702325606316 -0.463288364183686 -0.9253076318469612 -0.8392538374799869
P 2.612507343695465 6.533815843761194 1.7372935611346518 -0.13096376750578734 0.3488475340335863 0.07218706368721117
P 9.241355835302578 4.486225815608075 1.3251133194264282 1.1317286491507994 -0.09994160809266013 -0.2759202497462409
P 8.075278073064899 2.7906660180333485 4.544458098749597 -0.38819338282106053 0.17224437142212917 -0.7696682159713648
P 7.646428561461137 3.1559431681289003 7.63751557867582 1.552624150190571 1.4799732594930641 2.982893871810921
Ni 4.147222181561116 5.541380134653884 3.140459052294114 -1.2909948631457058 -0.41013132054473245 -0.28739868269948565
Ni 6.3481937282816245 6.454306786285004 2.296756964767681 0.5290720954477146 -0.2802947246648528 -0.6410238406273734
Ni 3.315925196143859 6.298960721094832 6.727075822746153 0.8111907606951837 0.534333343846654 0.3839178953741582
Ni 8.098770011418619 8.196437354968923 1.8788556695299388 0.6662972704821816 0.12298769127884625 0.8157022754122919
Ni 1.6972397603409373 5.054383715065572 4.216162161809232 0.31400754353626564 0.6290952075105876 0.540103927781844
Ni 6.212731812553804 4.942248495452171 4.353841077580985 -0.31360645144310506 -0.4350183135943992 0.48856179403849403
Ni 8.608257735800452 4.507762387463421 12.384965506292666 0.5182593211029268 1.2039401383180426 0.35977472246905134
Ni 1.7573695751970786 1.3643225487748352 10.47307056902727 -0.6160589431519197 -0.2989401076801819 -0.14348118324650774
Ni 1.0446338964770843 7.978712344443259 0.6732813400499602 1.1110258693858093 0.7944068563686254 -0.18247247690804058
Ni 8.306929332313736 4.739129062855685 3.3286717988809205 0.012363406661359353 -1.1650702007257225 -0.04063088614748486
Ni 4.355555924819936 7.486786198049183 11.052392417774314 -0.7266117511015229 -3.5555405094154766 1.1166303600567802
Ni 6.318844870557184 6.1801882715362435 12.647895285415983 -0.9440324619499743 -0.35687503232375317 -0.3770129407242087
Ni 4.067777384955765 0.790649230574505 13.352306427325052 0.7450100511030524 -0.18736914287870954 -0.043578141701266886
Ni 1.584030466172092 5.766724648436129 13.140554923750058 0.5302933694493254 -0.9317017082987632 -0.15428470161991495
Ni 5.53823135198279 3.91663581674332 10.262070917641086 -0.11709138039906931 -0.844478833324352 -0.11952595798249091
Ni 2.3981055382045975 4.290487203033626 2.0782057430455194 -1.4199616548261225 -0.15050775107598596 -1.0842683987863067
Ni 8.101551589113491 3.996741582305868 10.255178480237422 0.6018870225269118 -2.8562171617162617 -1.574583685180798
Ni 0.5700242187491369 6.443758823343065 2.822482493197992 0.6288023588605169 0.9594693653303346 -2.431813647523231
Ni 3.255694399919257 2.9767930403552216 3.9321649151876943 0.4914496571092503 0.1772798769635076 -0.2475255006536318
Ni 6.169346544613327 -0.12022290921466078 2.8139367153888952 -1.104055608715563 0.6852547854212908 -0.7687621592173277
Ni 1.7012973753281762 5.640754981343614 8.70001032519628 0.2524638184955136 0.08033926048070035 -0.11604211319894855
Ni 2.1437334710521054 1.490182054374484 2.157774471330345 1.186567708477866 -0.5547610155733864 -0.6251506210405428
Ni 5.891399917987465 4.519136561601857 6.613487389439361 -1.3322057901663766 0.1878309130064765 0.6544640252926793
Ni 1.8055376879528304 1.6807430767842217 13.069088573265544 -0.9971159720385151 0.3961272929561565 0.5853352888158176
P 6.1561179853449755 5.7982124751470545 8.340865498203613 0.5322494647344318 0.11446371296823511 -0.8069602675536037
P 7.893337187471943 8.693871576006309 5.938339730097759 0.6558642480743156 0.25660869390182256 -0.044897631843638805
P 8.182410124877293 7.499216086494254 11.550103878568747 -0.39686185712933586 -0.07695414605855135 0.13471732101094863
P 5.617914831822685 4.131772032186629 2.4722717632767757 -0.18517907720592625 -0.5048775004793821 -1.1713310940337698
P 0.1807392073082745 0.7567433590951657 1.402466883692202 -0.08968676313387135 0.2982757346233057 0.2706523164790822
P 1.265085403951188 5.613939837955096 6.539871971831515 -1.4969381694821768 -0.4616156044669534 0.3228408255571795
P 3.8209697403134193 4.673298390743717 5.227465780607203 0.5994527020538063 -0.11633573317996738 0.4324340978069907
P 2.761317160308908 3.590172232634297 0.056040069433483254 0.4967407303048606 0.11650979686398644 -1.1594345997065
