# total energy = -340860.8019326036 ev
CRYSTAL
PRIMVEC
9.31005661423885 0.00000000000000 0.00000000000000
0.00000000000000 9.31005661423885 0.00000000000000
0.00000000000000 0.00000000000000 13.62620892988721
PRIMCOORD
 96 1
Ni 8.83407982400255 6.558795125609207 9.647777827648806 0.5857170976352687 0.28223076534530106 -0.035426716238726084
Ni 8.854720219175586 1.6514550551978588 4.646264674127721 -1.0710935519672455 2.6345721283738177 -0.6186763261701087
Ni 1.2089573816844696 4.618914521263569 10.823910743270321 0.01002138879174403 0.1897281300291894 -0.3380314172546888
Ni 1.1729274631821487 4.740429378186643 13.5105081500568 2.47595948880251 -0.20484750216913106 -0.47093585342661476
Ni 1.665150148251325 1.695621963046699 3.4447329934761846 -0.09376067609292885 -0.138073124857059 0.27130794778521017
Ni 3.361125893443525 3.2395272460123063 5.454884972980394 3.789455361264209 1.563116822191779 -0.4001168737315238
Ni 6.475758732037579 8.663882681847271 1.3613751090170403 0.309173612482732 0.5917854153165357 1.0419986914838184
Ni 1.1901976179164653 7.612591106322183 3.2876499968512336 -1.5407322838489916 -0.4370055192277571 0.8069330138600942
Ni 2.737417280982028 7.02529412467789 1.8618306770142794 0.48689314808681955 -0.6160993094715518 -0.43174221394628876
Ni 5.213007844124062 9.105067637399722 11.688793575325377 -0.46667656392962853 -0.39442933642844324 0.07877268732452886
Ni 3.312899800977886 6.033177268016045 13.382681074853476 0.32684660428246287 -1.1776261830138623 -0.8366955898345074
Ni 4.778628539844271 0.5058265395693293 8.76335504909435 -2.432451023996914 1.0730781864974421 0.05466730963589294
Ni 2.5937817299086925 0.9695213496320944 10.88014627730897 1.1541918632503219 -1.0597827549401166 -0.17241483556172243
Ni 1.8414081371624211 2.0259613863798656 6.1145294723739605 -2.857625097807382 -2.3922837077494092 1.247479456361574
Ni 4.450346638988886 2.778251188617992 3.3950927034341882 1.024734505086732 0.810709707293707 0.9880854864051304
Ni 8.390949066649844 3.136353200316513 9.116260187276593 -4.8207896310556455 1.0077791081793162 1.1374138724610345
Ni 1.4584017244319343 8.237109693695748 6.4849719639109376 0.3406416011840262 1.1851913969556298 -0.24192846618182848
Ni 7.111756619026999 0.5162063215171944 6.049382352291275 0.29125996542710486 2.389954288285284 0.7301729860902199
Ni 2.2921452106433953 4.958871232920482 4.035714895467563 -0.10014729634556299 -0.5621490805073415 -0.4056331755640627
Ni 8.481349714881766 2.6097857169643746 1.908690984197156 1.2658769850321554 -0.7910230274980571 -0.11556671622442678
Ni 8.381666940358677 2.5746495638822657 6.866082849146057 -0.15592737942966048 0.2540170219152464 -0.20581963627441327
Ni 0.07024810001741941 9.222113667221734 11.16136398074499 -0.732062746913765 0.4600927400645237 -0.17662655965022483
Ni 3.9809242821915913 3.538286957831294 13.400108569541976 0.15905024132935836 -0.19231980201576557 1.8476399831156822
Ni 0.08123582865215824 0.5092051590588622 0.6048296799707975 -0.8841694670457546 0.4628029399068352 -1.3565363964919412
P 5.616673272140506 2.2089877863377803 6.61459774202244 0.9727221165751827 -0.8831577379517886 -1.8582380703465027
P 9.28659511826749 0.5535480269748067 6.729126332577518 -0.5265742687265254 -0.06595753783773158 -0.09799836832336026
P 2.6809052382665013 9.072007626908317 3.706682604061457 1.6897292547074059 0.5586395246921863 0.14114790712764078
P 8.432546398915573 4.863061441884981 11.029285002756135 -1.1390010144424965 -0.16088318077303906 0.9290336745482967
P 1.1805337793104165 1.378968322710538 12.40955207834292 0.40243292345921017 -0.26168148043903966 1.0376661255467354
P 8.789382242935458 0.5040008374974159 2.6549031815778363 -0.003406968799019939 0.059624653641168285 0.42623696785734333
P 0.4394141828136557 6.849138546387859 5.183178423224467 0.8331176426752619 -1.608734362920578 0.6927048139414328
P 0.7874147832524819 3.3448798449198685 4.589552465198293 0.4665616356183191 1.8156490320313825 0.6039212793481212
Ni 5.153414172720095 7.5654263602930465 3.3402741599888355 -0.36994960611952415 -0.8546179786408831 0.062210154980157376
Ni 6.613352056468019 5.6513625425125085 9.767879418001169 1.0090158087998944 -0.7247883247395389 0.9992533300964921
Ni 2.7442229322546887 3.0257124893393597 9.62838777305842 0.0509392100520284 0.9330060289324834 -0.11005375682599756
Ni 0.6593428535642446 5.210773430573531 2.4705268234331426 -1.403611238492557 0.32271792682607003 -1.0677058664419354
Ni 7.396616416550389 4.278836778872669 3.103655351021422 -0.3050089395820812 0.4934720868559179 -0.3749249478469285
Ni 1.3136768967527144 2.8267100324951446 1.1786829400860594 -2.9564130519115728 -0.8739004810195788 -1.2916875183373562
Ni 5.295625285154966 7.545260777999499 9.443480741695476 -0.05153750575765962 -0.04162641729153476 0.30739363776417383
Ni 1.8126028224734856 4.659664638391388 6.335860237627507 -2.343441232325409 1.7822573439448144 -2.0063744929768346
Ni 8.530832664969578 5.871415037014022 13.265591287766101 -1.9655960255078921 -1.0128508662752684 -0.5583433336080061
Ni 0.7145254202172051 4.07110148906846 8.24899304976199 1.998418985575184 1.3758875473250431 -0.22660417711993233
Ni 6.082902279571832 6.059831959662594 7.559561955728547 -0.3411676488908253 0.5868802647054344 -0.7229777538933613
Ni 0.21398047567794473 6.569250319014403 7.402397030606743 1.8307411504778148 0.4071483266570085 -1.5865066618706292
Ni 8.74796180174248 0.897266932447427 8.815721323667995 1.040726252529298 -0.3863954103803733 -0.49008491555123995
Ni 3.289103296664725 5.8139440584830595 10.06104750990995 -0.1056304309473213 -2.767677881923272 1.3205404380133063
Ni 4.568658836489531 5.228537018300257 3.7773487256139555 0.8035720678076612 -0.2502084468024336 -0.41162204615764597
Ni 3.377679173830379 7.865871192331394 10.698549902023395 -0.15845066007214648 1.8792198148044927 1.569839228517277
Ni 4.131979948263984 8.141932986499564 0.05610333123690873 1.5298889133765845 -0.882450427472119 0.9759928169066546
Ni 4.875676568389025 4.163420008931254 10.341965429527944 -0.08358424978055928 -0.05015373803625556 -0.17896652063731117
Ni 1.9341362995094797 8.63088784175109 12.883471192410658 -1.0396633584824224 -1.4341901397206782 -0.269530029949181
Ni 6.088218321810805 4.839767680620691 12.443330825193081 1.2111063170491787 -0.6873142390534808 0.5604714356946026
Ni 3.7268621514396956 8.706541360549503 6.596870463515911 -0.8647555812955172 0.20389953643356498 -0.6046522439768748
Ni 6.7382743940556535 0.25442615395950374 9.72625136254912 0.9810332075440394 -0.6652269202361383 0.7648903349667472
Ni 7.443380830151721 2.0359883171878757 11.170697312346691 1.2326303071638838 0.09279754084871115 0.5772687097575994
Ni 3.115899006272689 7.117519543976079 4.617145610536065 -1.1912666566154324 1.6428346470383963 -0.7340592085185035
P 7.3123045452436655 9.174204116675753 11.847866131015948 0.2862509422482877 0.17571098981449096 0.9097105487396527
P 5.0731801061430915 6.371681610865112 11.429200340030269 -0.3779303103321555 1.0073643892394006 -0.15668405509002692
P 5.2041260502607 2.0050975498517776 1.045838675456145 -0.5960873851259992 0.432174673498017 -2.8391892596996975
P 4.79982753840494 6.345231740460695 1.6391378505005538 0.299166107648059 0.7467599439146235 -1.1837117270863098
P 6.228437082163119 5.588826893267006 5.241607406565221 -0.20249288589402545 2.6040083966543475 0.2280501655378395
P 7.573125776985919 4.179386755761095 0.8563715784388234 0.11189800912358792 0.7935244537636721 -0.9912731401044929
P 6.067261384718111 2.4507513325052925 9.580587150173029 0.1386253978161032 -0.0346219609492436 0.31266594190670666
P 1.3884459601873758 7.9582548825894115 10.03256897820278 0.6310050229387907 -0.02133707091487938 -2.67043078994364
Ni 7.765862565832186 8.061968911559918 8.083135324922972 -0.9269603369590358 0.09872521918705578 -0.6822476231638509
Ni 2.431768127382235 6.5355665347401395 8.198208553780994 -0.22194945195674035 1.0184599849319298 -1.4451777490804338
Ni 7.132527354990482 1.3391119710029316 13.605088082633863 -0.7893744361510405 0.2576700452868014 -0.6068520798416709
Ni 4.208583092821374 6.193617471000669 6.198916755138014 0.12015125027131567 -1.2642569329302291 1.0042289289342123
Ni 6.839921590491917 7.423047666841884 13.124941471799662 -1.1588095645279914 0.2112500632613652 -1.3027435190412016
Ni 7.043746656582695 6.228865344760305 1.619828793401377 -0.8936198138253771 -0.39618257167412413 -0.05629456082667079
Ni 0.8198798811360593 6.797048780491092 11.584171815849968 0.026046817685722888 -0.8912418005115038 2.6321041264492995
Ni 9.226731455226165 3.0059937897559186 12.761543899986382 -1.9500184827846094 0.2765216307756657 -0.004659867369514556
Ni 5.0957197528340785 2.2717282568254134 11.69771819544846 -0.13576478843885653 -0.7386730531414311 0.3196014926842754
Ni 6.212237583921766 7.9470921248932145 5.545512786589954 -0.6289440266447038 -3.007923818196355 -1.3726764965869134
Ni 8.082683787184637 6.6303801497343615 3.9336822626938326 -1.1764995256085868 -0.7213399611796222 0.08967519316964556
Ni 4.49883341303542 1.085962225784169 4.977381487175344 0.32679286822639203 -0.7975811403315489 0.023875263955700818
Ni 6.055418992900295 3.588551952661793 4.946367827093966 -1.2340775811333713 -2.7315040031058766 0.14665675276101195
Ni 5.469304388426491 4.338421140220177 1.5191042235603536 0.03879383293874609 -1.2475943846728836 0.22876724620952213
Ni 3.199922265829135 2.2795952545345766 1.7850059531131288 1.5513144302402122 -0.8592531634200491 -1.1509725849820758
Ni 8.098259511643134 4.4517059072321254 5.249960389221624 2.7343538138498458 0.24441523715942418 1.3476732896743564
Ni 3.5338274407866916 0.8741677513631612 13.235558907635665 0.45151733969068697 2.9064110089618334 0.11654424964634766
Ni 9.025494584831419 8.835141170439053 4.693301872383348 -0.7813567080528866 -1.8219914293096426 0.28425705174671045
Ni 0.6573514324873334 2.3920421164650763 10.401361727734947 -0.16315655018824804 -1.6332426324745872 1.2389899308333243
Ni 8.704381427450654 7.739049603225808 1.8722821463968908 0.7993379751216556 0.367128077510329 -1.5480977230751274
Ni 2.0813841524895085 0.10211269925929124 1.569071296584115 0.6838681894864093 -0.06532761756321652 0.6394019887532343
Ni 4.471582877775396 2.944230875196643 8.14261355162683 1.1844326644127345 -0.8693575988439028 0.1309658243883164
Ni 4.475148629399786 0.3054787795665651 2.182604948339879 -0.9024980901516134 -0.5343269160887507 0.8489625801273186
Ni 6.48239680229395 1.721597020571628 2.5909831269366514 1.159016795442791 0.16446627013860707 1.4234452424993487
P 8.020660191044465 5.370431588815469 7.776449962039121 -0.6481126291533547 -3.110828879792713 1.391798819238661
P 2.621311566862533 4.379562279719339 1.7542380785223097 0.1145138494798802 1.2535727137435055 -0.0023484456275185365
P 3.1609224393158994 4.474692436633219 7.780020368691741 0.2909871713816924 1.1880697469446895 1.4344305378662587
P 2.322039801938215 1.034542783952562 8.693071570862381 0.49447173176502585 0.466555464970732 -0.47814676935275724
P 6.281569574383467 9.266159544336587 3.7448361464424296 0.06589248892775103 0.41598289422950296 0.765885609000481
P 0.9501191919683123 6.804022012780043 0.3180343217092602 1.4245441319904824 2.2467425566500787 0.789087501038241
P 5.528842199491695 8.311478424702605 7.457596355361332 1.4565366257366787 -0.25983054327322996 1.2055812734658913
P 2.970904186956113 3.8764002783090183 11.720828548600478 0.1301710964011629 0.6492629407077141 -1.7974145113012272
