# total energy = -340892.4699344685 ev
CRYSTAL
PRIMVEC
9.05254434278581 0.00000000000000 0.00000000000000

0.00000000000000 9.05254434278581 0.00000000000000

0.00000000000000 0.00000000000000 13.24931369087323

PRIMCOORD
 96 1
Ni 6.222302701931991 2.2450400992528388 11.44520810731488 1.3070022943175554 -0.8152577316757056 -0.13624275651653955
Ni 4.484304675087129 0.5742101424094538 5.854937770807442 -0.3062479541955048 -1.1923010114172174 1.2428895229980466
Ni 2.6232463577222975 1.5165456296850832 4.6061899453253945 1.1499904235744645 0.5539686015790782 1.4350074934156511
Ni 3.6491078629889273 4.518894447786614 5.241097398896861 -1.3194482333903923 -0.1475944340839329 -0.22125911075793508
Ni 4.900812249518777 4.544449781032008 2.419112383528075 0.42983496962124684 -0.05700264263728892 1.05096361398659
Ni 7.347515883560006 6.126508675576075 2.7225355715263353 0.15773229384888318 -1.0236554130899402 -1.1664213154369782
Ni 5.405672658691849 4.622790501508676 11.177002033352947 -0.6898488325498764 0.25295515630963533 0.9021180811043754
Ni 5.431372832649933 7.743211658086886 12.305829896017054 0.698823525244661 0.6640652958278691 1.2695405499266716
Ni 1.6979224121522098 6.401479716075125 0.5834509798791305 0.24632916635268542 1.4731534083577533 -0.7918349818763911
Ni 2.7316777362604916 1.5976473762474204 0.3291405617909768 0.34046368084526524 -0.37254822008463584 0.4482186143347571
Ni 0.2649471579263886 9.033325991113443 4.648707031281341 0.750475702203314 0.40930471087837894 1.031714535948991
Ni 8.790201802317295 2.2562924121200094 1.2718073721968863 -0.15422273803372794 0.24684955763252975 1.147051909771431
Ni 6.811922085662843 0.5985714450296018 4.804837172271998 -0.2239996496175497 -0.12268378688518225 0.28437712226434253
Ni 0.9008884120846861 7.5656912595951535 2.784595290642096 -0.03817856795225038 -0.7304213546556001 -0.34957695600044314
Ni 7.622333030801823 3.646862831942219 3.847136801143231 0.21623723206331147 1.0642647019708704 -1.3286633242307568
Ni 7.475364970143318 4.028156008100902 12.480138451704866 1.7536617916953088 -0.06294266227080772 -0.07032815610160145
Ni 7.808118402461477 8.876861811229144 7.101221493664837 -0.25260677183128105 -0.6635675302558444 -0.6686999663864033
Ni 6.951231693637819 0.47795805729965296 0.6584576482005456 -0.8467344621277483 0.3070984751212582 -1.7468411692290498
Ni 1.87324304231995 6.491679269903357 9.369411665077946 -0.510077813733399 1.0394149899170422 -0.42321592164283245
Ni 0.2445418172716097 4.716040762847958 1.2859492572822402 -1.3253455727114336 -0.2782386134667724 0.2870461844560734
Ni 6.175256627941091 2.077341711590455 6.8865295367699035 0.7542734786828493 -0.56740441536901 0.6719151308895912
Ni 2.9181511013054275 4.30582470687382 0.4637971618707586 1.2254965243325797 -0.12108096117443662 -0.6203521712106348
Ni 6.002298711899121 5.550812105352631 4.767606772329267 -0.1627058358040746 0.02222821527058107 -0.04623589103908811
Ni 5.3806061628517865 3.0137821818595665 9.268398846792888 0.207868548383642 0.13277330991070035 -0.4382573893569872
P 0.12862126863284465 5.765511304283198 12.300252623324 0.3201421956790938 -1.208223596184745 0.6572197336609455
P 4.064601552431739 5.861468276440892 12.519475378762793 0.23930748361921367 0.15752866247850936 0.045899847855908046
P 2.4688371054493 8.410990711403542 1.4343711565943793 -0.10734535675589901 -0.40415504835663946 -0.6175206152991106
P 6.282339177342351 7.607115703424738 5.788320095514191 -0.774251464466673 1.7242424579929274 -0.5569605943278666
P 4.890084984235111 1.0306955640526871 12.628517804057653 -0.838886169727923 -0.25925255928257285 1.5224823364998683
P 3.9613120191940716 6.124553325954748 8.21538332891454 0.8165777360387098 2.2992676231319886 -1.1868641566723623
P 4.7514181069227 0.8780162530418909 3.787342933926628 0.10328455642296405 0.2503758256182333 -0.695134506428848
P 0.2879252317403389 5.521155969429178 3.4650397590291138 -0.8507145298214187 -0.26450172349665413 1.0368600847056724
Ni 1.6756531525759903 0.9027459942249463 2.7356653821317614 -1.2455650129476805 1.0921051212219064 -1.915433288610572
Ni 1.7407771580196172 6.340773352368569 4.937064974650845 0.13243469562435903 0.3603797030429019 -0.05988587772235493
Ni 6.167018812406799 5.651847554999047 9.132473985222607 -0.18813147496603083 0.8984686572772462 0.569493950908187
Ni 8.697114486779789 2.0755493077709057 10.069624174983904 0.1999140694232557 1.837953351955538 0.29767306804230026
Ni 2.2032263960078966 5.2612936257726926 7.307248354923039 -0.44257221468225716 -0.6351779233695577 -1.807293460977836
Ni 0.6606221116008195 0.07013277833936765 8.984823362705546 0.16937064941875993 -0.23822993428431874 0.3782856367890453
Ni 1.6303632722264678 1.2594895748369834 11.361538153865643 -0.2788441082612552 -1.2976928439911717 0.458661664044952
Ni 4.1135939234994225 6.566580023453616 1.4588157426243247 -0.3337605577934768 1.6330577701572908 -0.3185118591645224
Ni 5.3768765144999975 8.065717609982167 7.886918992200937 0.5533844469408341 -0.43603081401931354 0.3739571846170205
Ni 5.129723943382134 2.9360479818672918 4.509337676512381 0.6738172330083104 -0.3012494725396489 0.7405862110037438
Ni 0.765875141749903 7.62540184340196 6.895102296452294 -0.2170391591393165 -0.9374031295589147 0.4799041183634961
Ni 5.284866451763129 4.688267556189486 7.0966906951209765 -0.2781681652401532 -0.5168596125419228 -0.14602374716270336
Ni 8.212115360334451 7.18342946117035 9.346529548236154 0.5568752337029119 0.16224895077231413 -0.8712666429411576
Ni 4.595976864571781 0.3984966318085397 10.514946903950943 0.2852860072318571 -0.9958527890553751 0.22562587236706305
Ni 8.227866787839583 6.939535806088032 4.825254281234683 0.04605205716305617 0.2399628578150255 0.055483377779285095
Ni 7.191685381793729 6.183286234950891 6.931869206114413 1.3891109879938528 -0.4353011349421407 1.2852703019571026
Ni 2.2467510301714992 5.369390060162789 2.667669909559038 1.1947003648873296 -0.8047977126846462 0.5223792568085713
Ni 2.206838361280625 5.433201446647654 11.496350457711568 0.8150420161204738 -0.4115166309280332 0.5702485696860243
Ni 1.053652817014188 3.2602648646812336 3.97683441732226 -0.20637859410167683 0.7135726585293775 -1.0743776220351562
Ni 3.9366076251357374 2.4020836419879013 2.3809015930113175 -1.0388791720182302 -0.08643920273085112 0.06463290548903708
Ni 1.043658807838519 3.1987075617876193 8.257886836053672 0.3626026788361497 0.21390447016507677 -0.2125816375885952
Ni 3.782189320318196 2.79845835735552 7.164169267400283 -1.3169118401217839 0.3891259219376588 -0.43206668716524294
Ni 3.913261112758879 6.809686107160679 5.9963484743708895 0.7004320073823614 1.1927892639075457 0.46121425526347665
Ni 0.7842961646408171 7.69634663498685 11.614600226061292 0.39495589835587464 0.011664580822121847 -0.4002521137578075
P 0.16932422466233862 5.601533512428061 8.024698720148116 0.5114135018256869 0.9880919141630338 0.2576985845318917
P 8.421437347806371 1.6739241165682432 7.925289107501655 0.6254534969929422 0.06133777967753307 0.13595813539658522
P 2.0412401639522586 3.219455993880584 10.50092903872583 -0.9236191884009448 0.2230408852487062 -0.5974536693459066
P 4.111493733165404 6.1884914480632185 3.7754578481958885 -0.311606904514573 -1.1626844741023654 -0.09673647089180114
P 7.250843760383402 3.87988438102818 10.154592263320632 -0.7929652388260924 0.22692942166983496 1.5548191009593608
P 6.3532206011154395 7.947645271505489 10.269794945177123 -0.5836239625516657 0.1432721525594952 -1.0843555591834744
P 2.239472784358784 8.574461560764263 5.60451270483722 0.5280192287031681 -0.6510632271412464 0.6051752063598803
P 7.004768442066177 3.9337470210600927 1.6560055098994755 -0.14168809590182696 -0.20314466054541142 -0.31503804168330907
Ni 5.267087254280327 3.2676336359393807 0.32307807271041006 -0.28164018294915366 -1.76166640716734 0.03023771583861889
Ni 1.5786913479740041 1.1761699548615672 6.888741978656257 -0.581454979924805 0.5559936024289069 0.04216480629350803
Ni 6.792422904716837 0.8079495582776886 9.19628265594411 -0.6945709206158941 -0.22799462970955572 -0.12265344786787909
Ni 2.9181511013054275 1.5246929197739438 9.294062810572798 -1.3613600431328294 0.8299657273098416 -0.3071406412131033
Ni 6.326859591405704 1.8850837705824275 2.6074388044409993 1.0885559704180672 0.30505239122550687 -0.8024101862890762
Ni 4.23388413538918 6.759263434055173 10.309516605378137 -0.039052743027087576 0.8026405571323273 0.36410291753076
Ni 8.35242980075372 7.253170264330998 0.49406706031423925 -0.4655421932148692 -0.728795646126719 0.0421681487276177
Ni 7.698600718578103 4.073527361351314 8.127804486731558 0.17800389961372567 -1.1918366701862892 -1.22883638733909
Ni 3.152584847340124 8.021251511186074 12.551631827489075 -0.7676838385514844 0.6539143234367965 -0.14728024527762376
Ni 0.40438440677942306 4.624510484971879 10.306853346773533 -2.245466518151133 0.13476720041227758 -0.6978215663427079
Ni 8.403784885947172 2.1859269833858823 5.753117465549132 1.1076340700954408 -0.00015529463094166802 0.4250915413989904
Ni 3.7649442229634413 2.741753218337049 11.644742483626715 0.2001297849784876 0.3083986819899205 -0.19406378129006577
Ni 0.9150945702362961 3.275283036078367 12.561966212339566 -0.1544975889616694 0.2733267779874518 -0.3247557831917052
Ni 2.959729438392247 8.534938151288744 7.909072379207005 0.3137509474407693 -0.9685921535672094 0.18702975726141982
Ni 5.793764295802458 7.867177203061174 3.5441517563008604 -0.5709926469409006 -0.43045846213785866 -0.17262566602094787
Ni 3.225276780021848 8.17380499182772 3.6372680399809045 0.14038608926095178 -0.03324127855163307 0.21937834879545445
Ni 3.4878820446749166 4.45443127809464 9.273168632512688 -0.34997804809360367 -1.7308103410184321 1.2955873676123946
Ni 7.26536404183066 6.507856167002017 11.500537259562787 0.8779018888694881 -1.4102279724781261 0.3957436843644926
Ni 0.6026885422878394 0.0802417548307352 0.5168396413670594 0.34058863645890375 0.5492544839328605 -0.48525612670402885
Ni 4.5478444852357 0.11147574926806436 1.6949712826311334 0.3982924189282753 -0.2503238893343753 -1.3396763875118087
Ni 5.998460433012813 5.451722952782998 0.42601274620198537 0.5405759823222562 1.9867562045252753 -0.5582913973241481
Ni 8.100090121612617 0.15563587205859825 11.204680188293715 -0.7284310636984487 -2.224087795365041 -0.48828977132403006
Ni 8.98390815045223 4.664930096357172 5.894924670563571 0.41387767496104205 0.24872029229268133 -0.014960477964574235
Ni 7.984344287083535 8.863074785889882 2.632718035077825 -0.27881634034711333 -0.39978571564435017 -0.11832730968869944
P 8.518362942230183 1.6865252585723478 3.5260530039956834 -0.08761933908188137 -0.841905673280537 0.0856177352708203
P 1.899305318059761 3.1619904411204867 1.8929033585588253 -0.5190764176875834 -0.993266773495754 -0.07780775230809825
P 4.719562202675255 1.1842810347722554 8.27733622800469 0.4109545877769761 -1.4378287649145303 -0.7548676606234226
P 8.300477247620417 1.6995971328926978 12.463259077149655 0.6443014829373807 1.466664715309616 0.8743187995039201
P 6.345951407847267 7.492130282637284 1.225261903919225 -0.5160882815935369 0.48752461102323136 0.8685317605084978
P 1.7975909275726063 3.214984036876254 5.992903075917756 0.8981482978233499 0.3526396540861669 0.9832762379419452
P 6.882830667069562 3.7484957495284856 5.823113550465898 -0.9122353720440354 1.6423839326542229 0.5240856979767168
P 2.45735847896855 8.44889371540583 10.31832744698201 -0.15459400533021764 0.45185415420481534 -0.17695591796518556
