# total energy = -340867.1052824621 ev
CRYSTAL
PRIMVEC
9.26718563953770 0.00000000000000 0.00000000000000

0.00000000000000 9.26718563953770 0.00000000000000

0.00000000000000 0.00000000000000 13.56346292494308

PRIMCOORD
 96 1
Ni 4.853215882956675 1.3498304672413362 7.316755412879441 1.4463771687051734 0.5075797299018936 -0.5601315358566805
Ni 9.288963584581264 4.611861298633001 7.531628087351966 -2.4832683637590973 0.6953247680627832 -2.28631106297132
Ni 3.959312417694916 8.775737573429774 0.9091331582381654 -0.1819322881338544 0.04314619637017085 -0.32951592358450993
Ni 5.990679522738278 2.09073269662597 2.43617445727458 -0.5501407431925558 -1.7148661589843497 1.8591531259616045
Ni 3.9815999992990645 9.281827851593656 11.113833697586127 -1.0663866334098795 -0.03755070456026436 0.7749132664203879
Ni 9.291002365434865 2.563173823519722 12.18353011523114 0.9998166587991298 1.389307934496007 -0.005915851263802715
Ni 2.6797735539743552 2.6773918872499203 3.19793897510298 -1.8971707428559583 -1.649083713271902 -2.535183050350518
Ni 1.6756647163897147 0.2678383476119627 9.433971872793702 0.2574270760380599 0.9461592784849897 1.0308755849874633
Ni 3.82690286843917 1.5365457246884786 4.882521504290063 -0.25016910892406596 0.028541044862486327 0.8373255101090223
Ni 2.7182509089932427 3.500299442877842 12.175703976909018 -0.40431368542169077 1.3576147171577844 -2.9373287815866123
Ni 8.864962037331955 7.979491711055548 9.956381664972096 -0.3946352817916623 0.533447598807591 -0.7778152705585314
Ni 4.4312160478181735 -0.2695518502475581 3.249494182579153 1.5728001109178138 0.8856527364595004 -0.09989969911113117
Ni 6.6131100501572435 5.5289049265831425 3.281490067920726 0.20855477581738924 -0.1907339455858844 -0.5333362700407073
Ni 7.7594331194663155 2.4937255338974826 6.499448944287507 -0.22759250917513063 -0.9079426582059524 0.17734801119728166
Ni 0.19025254222814186 7.504492840909094 3.6452076454847377 -0.735541706601301 1.1625620895918882 1.0391943892658038
Ni 7.011821447636192 5.491799115047588 12.65454780240165 -1.9026906442329232 0.1331882859609319 -0.37333909141704735
Ni 2.965295545335605 4.733279965650694 7.201561514495224 -1.1844095244842827 0.34734086758107274 -0.8881932434931671
Ni 5.966065877523883 3.578384749570795 4.67163649982347 0.3151272589630057 -1.398446920682798 0.5642578993202282
Ni 4.643239989407074 6.923115946133112 11.096133372902582 -2.3674440229979097 -0.6233768169695716 -0.7159339596727025
Ni 4.845894806255105 2.1549728278858264 11.151797650517334 -0.322468015598793 1.1665681254274876 0.8312250536382393
Ni 1.5719185724984717 7.044479010036615 11.240435501564816 0.5774011215704056 1.4967373663252803 -0.5881043669205226
Ni 2.6778830480919242 0.7094503278435448 7.155757522463348 -0.04341076288546717 -0.9401333840058842 0.6409065983232188
Ni 4.372610365462816 4.315237218805319 3.0711073449189747 -0.4710669796878403 1.2594890792279407 0.12857624111021726
Ni 2.055637864386922 0.16635525046821797 2.29057028902175 0.6530925988664493 1.0623507727776091 2.744649796459215
P 4.77058038808591 6.7225925819956664 3.183521087593735 0.40524211077323113 0.21836919080464973 -0.31736103338953087
P 3.262095701691553 6.455577160473703 9.439220806773156 0.4255543399680219 -0.931389319264667 -0.2037085034686814
P 0.7256104462640495 5.081086712089482 11.217485316183247 0.5005225659447959 -1.1655841642476636 1.101890225633128
P 3.7466675746642366 1.3614329837354706 9.224212831389437 0.36539026888361587 -0.19094400471416148 -0.2978509883810612
P 0.04428139342166375 8.889974171531371 7.721557204799241 0.5942361908498734 1.3470677948798735 1.096657259368963
P 1.4785794781462969 0.4776502119747054 4.577275234888785 1.1978149992569114 0.727581828324276 -1.0027988813559052
P 1.238920788805392 7.394908370027991 1.9107389289657248 0.40782684078127185 -0.4723476461724768 -1.1281321900487926
P 5.181005508287372 4.056052569198327 12.76521282713516 -0.4087863764810637 -0.5940197039636931 -0.3348964711701329
Ni 8.641039029306576 1.3995581856978263 9.271562589995773 1.0341740532330768 -3.326919558975832 -2.5773139180822966
Ni 7.412747702497009 2.6789673088186126 13.52457621714916 0.2145143358349338 1.535356364249059 -0.3839088965130936
Ni 7.513899034392758 0.593208310756862 12.561001123089836 -0.05869237163488601 -1.339742207752738 -0.6307952209208297
Ni 0.11965141470504723 5.32708415644795 2.0210508739241355 -1.015539468851025 1.0105916379274467 0.3650467695012681
Ni 5.592181270530387 8.17413967946034 12.698806027859069 0.32930046513959416 1.4650014686745803 0.40238844337451996
Ni -0.01074808197276136 5.1336872581124116 13.2300455945707 0.18455327069646926 -0.15985165418473116 -0.9481760518047025
Ni 2.84967813656498 7.506216537448958 3.87079504006151 -1.6189519268835277 -0.18120338038762984 1.5679754358356608
Ni 4.278038735412783 3.55167672038861 8.532679680374775 0.6982473410262168 -1.7447084391567633 -0.5189398921097192
Ni 4.397307415348495 8.437893051616541 8.882888481346534 -0.2603175102119775 -0.272433319638905 -0.8614206033850133
Ni 1.6392261422244294 5.122464696231903 3.689505719840658 0.21809819653145018 -0.35251264158999934 0.05773412148667476
Ni 6.176560733472583 7.721363520618149 1.307434946109254 -0.30708279139197436 0.015103431300341731 1.2122085489744219
Ni 6.03926737735389 2.436296784125796 9.209903369952862 2.692606811820047 -0.7516697225114152 -0.4990125570581729
Ni 0.3361486268304646 1.3377553242765938 1.2327710843760726 -1.147420091744127 1.6150515633878573 -0.7203755403838238
Ni 2.640360213199951 4.24112753477689 9.782173401343233 -2.851300955361567 0.7113831070772264 -0.03651789242037582
Ni 7.009689994925609 4.266445486104346 10.738723041924759 0.26604027162836763 -1.2287417707427546 -0.24858376671481705
Ni 4.662849354344446 6.1004586045190425 0.24553686522926718 0.61169295287374 -0.2653064787861366 -0.24717274529990338
Ni 4.062363522658795 8.466593525723837 5.767808340289644 0.4520770688488989 1.2223929457065914 0.4683251552766451
Ni 2.969901336627606 6.211053198641248 2.0256761263061023 0.731192942714302 -1.1992625303367153 -2.0884011684622874
Ni 8.435020224050103 -0.09305181159553097 5.6170099144529795 0.12722795461243894 0.7499378274219729 -0.6026269860167299
Ni 1.2901497913449893 5.721236098563389 5.884209752970336 -1.8192524331119249 -0.7058171829536748 -0.5033512936428428
Ni 0.41343232196052443 0.2025083953139988 11.91752296351314 0.2850708058972575 -0.39140597622108725 -1.4139262472653196
Ni 7.266307634094201 5.066602100843211 6.109200340788146 0.18219762598009911 -0.07398452190726613 0.9996153414216009
Ni 1.1968014298071161 8.06030157034377 5.794419990740569 0.7174758502385256 0.774279489491131 0.6069464393276901
Ni 6.665636458694588 7.412831107168292 8.793491647790368 0.8484265051181905 -1.1695930282967406 0.5828163790487059
P 1.8270812635124494 1.7086373631038765 11.252899866328882 0.4836072782466961 -0.501084351985537 -0.5895272154099783
P 2.992596674402474 8.027560603272061 12.702955873614718 1.2426856345173565 -1.0603738515568963 -1.0049130994854307
P 7.203772665002813 5.8405047784991 1.1265116797234807 1.0606636148831732 0.05602768031852932 0.9598640296655921
P 7.621268647891994 2.067777877651552 10.814908575549584 -2.133612989112235 0.5088087172129881 2.1694312843624255
P 2.9619037553700673 6.8711919046661505 6.2718811521270315 0.79815089679209 -1.8359612612261733 0.6238786963066546
P 7.177453857619952 0.7285388769446777 1.2495437637712277 0.2558792719349658 -0.0465243688137844 -0.3543548370050607
P 6.098901717321747 3.614471170679549 7.168276563623033 -1.928499634876227 -0.3810670561889244 0.5323741632377541
P 3.043844211313468 3.9078517355128644 4.760124222462642 1.0214460641434473 0.6534471539923908 2.883323788125067
Ni 0.914476617511742 1.788437099150995 6.2864612153859944 -0.9787798927334886 0.03891287501511363 -0.22949589684543056
Ni 6.344398733652511 0.11487140032192054 10.224966021032763 0.3630685627289747 0.5292721272736626 0.3417559172941276
Ni 2.872642222725096 1.6175409276906638 13.242931616284034 0.0380186453356184 -2.275680065620036 0.8870282766507885
Ni 8.045529676340854 3.20971756812538 2.1026762455537975 -0.2664423921627927 0.47038075225409315 2.010920717586621
Ni 7.1391433119436325 0.2841291333508118 7.644449586197448 0.062430498521079576 0.5552587811454115 0.5629245252207853
Ni 9.201759367161293 3.458078144836886 9.60625441523448 0.24560925746752535 2.112230409671401 1.9376144526933015
Ni 5.046714720334894 5.669488133624693 7.93815264909306 0.6693417137354601 0.9016593963004019 -0.03066734717686976
Ni 4.7139393490985695 5.538570601266355 5.359629585901425 -0.4559411797899954 0.6029823124736196 -0.15660486511265934
Ni 7.0390855079602686 7.119496878263468 5.031529509849838 -0.5415763985623124 0.8493521022562533 0.4716637327315748
Ni 1.359505409110247 8.784031704629657 0.2609472683267882 1.1033971491959578 -0.9797826229663901 -1.360396907888612
Ni 0.701967075392256 5.849799765754385 9.260169511898416 0.025206581172614657 1.0469879171682936 0.23293011933796012
Ni 2.5119355537944266 5.693582816439987 13.016367460334672 -0.8327723435207013 1.5844369238257936 -0.5479128823033016
Ni 9.089922970155529 1.5406325535813807 3.608898811919227 1.7458471807468963 -0.5906430741819764 -0.31243017174681675
Ni 9.144886648531497 3.6555989408081184 5.053868060975327 0.3484960642314385 1.0224143415939877 -1.0025134889050025
Ni 5.824769097183573 4.010087328135302 1.3389239163931357 0.2600532008069973 1.731168752799115 -1.9409232053515604
Ni 8.540666141009474 7.297797531096653 12.307336936003257 -0.031076923910462607 0.651600073481323 0.07083877718943284
Ni 3.1131812947073296 4.013321575943971 0.7384529122046019 0.48597192182413085 -1.4480599557242353 2.572854339649046
Ni 8.743858454627999 6.949740570644014 7.144825023495192 -1.0084943890787856 -0.42686226014616807 0.08814615811962884
Ni 8.621383328440713 8.435576255191995 1.1935264063813755 -1.192076297000921 -1.3108373517929295 0.21285854539906568
Ni 7.115743668055702 8.618121279074952 3.290495918982227 0.49914059799560484 1.5953800531008588 -1.0293743178515886
Ni 4.629246539002807 4.635390683120708 10.71858081380974 0.738461194240941 -0.1657631345731597 0.6510567993833433
Ni 2.020885918018708 7.643556229496142 8.09906898827501 -0.35777646109209993 -0.5948056902000982 -0.1139471783431328
Ni 6.0561151209532005 0.10358026126724523 5.199770632607637 -0.17526387497474333 1.694829294938133 0.04587002305923713
Ni 5.4769808851161805 1.4932772346636272 13.472682757395003 -1.716473612680786 -0.40614405376221024 0.5181688182716496
P 6.673596971209333 7.328824068814195 11.053340289504046 2.535625537204575 0.17117402117608582 -0.20924871656062027
P 8.587947322441643 5.79272316903923 4.471209514417285 0.8231039671930017 -2.215896260693184 -0.07957127196642425
P 6.064446320895874 7.923740321895234 6.798509367235243 -1.1850031922042237 -0.9381502921375843 0.3630603351988586
P 7.217432496721945 1.7789938369245388 4.377200402539131 -1.0618278103946037 0.2327105471279863 0.7543320998349267
P 1.2968406994190829 3.1909144483437517 7.991836529124107 2.654989515687905 -1.9965785899323356 -0.11669440207096676
P 3.9827213287685455 1.8165259390022104 1.5976813487394415 -0.7342692676467806 -0.6098970373155819 0.5307775081745956
P 7.723847126385265 5.29716968101419 8.995261448404221 0.13014975624492425 1.0619874759009196 -0.9491808389201332
P 0.4587525668989553 3.460116925690488 0.8749993331560203 1.4584474696061462 -0.7144666310985566 -0.2876663345385755
