# total energy = -340867.54643722693 ev
CRYSTAL
PRIMVEC
9.27673180314511 0.00000000000000 0.00000000000000

0.00000000000000 9.27673180314511 0.00000000000000

0.00000000000000 0.00000000000000 13.57743470032144

PRIMCOORD
 96 1
Ni 7.565842484002172 0.6297620517102943 12.752252498300392 -0.4785460616737049 -0.04006447212105358 -0.24684184432304587
Ni 2.8053485505383273 5.587876341523058 5.250733015352172 2.882920639149377 1.4143232255934222 1.7045228680768127
Ni 3.8675435869799077 3.360839234306346 0.8240836023286215 1.783195796598684 0.4721686973924513 -0.03952222646433839
Ni 0.7524700179685018 1.1717439590303669 12.406149704821837 1.2298308900418755 -2.026893695976109 -0.5103153836655017
Ni 1.3570466712592606 0.7354824671983616 2.900207768755927 -1.5977884054320353 -0.2738741658504896 1.1259827478059576
Ni 5.2027806624218895 1.1632186427581088 6.466497848492164 0.2183151976382627 0.43479488472968353 0.9650887683996411
Ni 0.8683985488276166 6.66467295338633 4.940882761003494 -1.9573780084734742 -0.486884149225755 -0.7976826989064199
Ni 1.9249960054664979 3.5813193124812703 4.963462325537418 -0.15039153721309584 -1.2109931885100822 -0.045881078802830655
Ni 1.9317772962118958 2.2139940226913657 1.0198272758898619 -0.6147728773506443 -1.6497781682357653 -0.30946106181616384
Ni 8.205231927689995 7.109798362191287 11.39180683261006 0.7552762089157509 0.3158919050431721 -0.46672438644842845
Ni 1.2572939771617742 7.222677631397855 1.9698684835301967 -0.8114666400643895 0.07537343183499277 -0.7961783464467513
Ni 1.322240374574264 1.1581906542710971 5.4919911167987 -1.6909050201830622 -0.058387953020589765 0.21003187458354794
Ni 9.177683863350483 2.71707117333832 0.07003004628865679 -0.45868506108371976 1.7592146031927378 -1.1027695429142879
Ni 7.453204409815276 6.658893549645725 5.197184010292344 0.2695266875150713 -0.3351798067385066 -0.7851339157071316
Ni 2.962320124687269 7.835359365022749 9.44102800721376 -0.617720904235375 0.0004687121063024186 -0.9718499983828747
Ni 3.0185371177339326 9.279421777994502 1.4987450346240396 2.1988426476450065 0.3406647411124778 -0.3069848323615294
Ni 3.105738394076941 7.696338266376332 3.3051009206064164 -0.23178006489391695 -0.1592744415250225 1.6128252451604996
Ni 8.483932772921166 0.19655724291605747 10.661829177899138 0.2890801841669667 -0.8750970724308412 0.16627401277130718
Ni 1.9145411290368628 7.27412638444023 7.18255762289485 2.09942348771472 -1.9937228656510952 -2.5748243188912237
Ni 9.293986246490089 4.876545844852253 1.1769528437821326 2.626281863340567 2.224840871480981 0.9254899230610965
Ni 1.4166032876552306 5.040261602820489 7.6601710731764925 0.06739966960089683 -1.0406406347940271 0.32544278195640086
Ni 8.7717340917792 3.19103794045715 4.380256478662765 0.43202426396308174 0.893529568104416 -0.8550026156738114
Ni 6.188303512802303 6.580950451365516 7.242732997283594 0.6740131510692005 -1.7631928711141958 -1.3999517873630987
Ni 8.875429396775173 2.803938487346398 11.064264923568429 -0.5207566336034839 0.14392289876961664 -0.6091020522181123
P 8.274315747363016 6.375016288223127 2.5278601741175843 1.0496968314590245 -0.28987208394064273 0.11801106399986128
P 7.385623420649445 3.001829724255873 12.5808917858817 -1.2645101865916157 -0.5006027843634282 0.39600567977662765
P 6.87235114205558 8.63061645180794 6.784874346786253 -0.24177702820562874 -0.17936684139952336 -0.3128083810218419
P 1.1563538614289783 3.6665539217407983 9.45786434726003 -1.071739927301993 1.1439570728961912 -2.442784801822754
P 4.111790651324065 0.46249701626026724 9.293536325011088 -1.1414399629012923 -0.07384876766035024 -0.33425189560759855
P 0.2872020420014626 1.0885131237804226 7.5328692694666834 -0.20381854668398447 -1.4830315867034138 0.3346216202421915
P 6.5089630147249045 8.659671174946906 11.103109381486627 0.2674998868930296 -1.1363705187981847 2.2020634685751492
P 8.77783818112321 4.941019128956924 6.051380810827033 0.08519118925636296 0.5469435764114967 -0.29458491603527975
Ni 2.63143766462318 5.56660479613428 10.086065125054521 -0.8486244800616094 0.1631596355120416 -1.6664162910130784
Ni 4.372105014670998 3.747604725082167 4.625913606198852 0.5476696559442439 -0.501560263180691 0.9768502798109434
Ni 3.315485293876455 2.361596097999197 3.0138644280643607 0.7228116606291423 0.1637396763852277 -0.2480479488160051
Ni 0.3747372806794021 3.0146501672246004 6.671000611960114 1.180807408955321 0.5056701715840066 0.2555386007660954
Ni 5.861577028461797 1.2086746272347835 10.280819899035107 -0.8242969590598385 0.8816297313430363 0.7265009365552714
Ni 6.857072365232501 8.634345697881333 8.974901005907427 0.927068580402126 -1.0893635539210271 -0.7031177817446406
Ni 6.026786340205694 1.6472692170455407 0.6825568584970707 -0.38151108570487846 0.6392348670477507 1.1636303829554024
Ni 0.549969173163831 5.005798545201949 11.115777686058333 -0.5514250092216181 0.7942289360298644 -0.1382952681701941
Ni 4.5239187260915665 4.054961393996696 7.4480920030713795 -1.051793051866421 0.9532799486901711 -0.6133217467264148
Ni 6.22407458956599 6.242989845147202 1.7900084296875203 1.7561668175053495 0.8931963531347134 -1.542374704548421
Ni 6.385823680450745 0.03296022711135218 4.766887456831462 1.5212602911673092 1.0337310521583873 -0.7851837951084606
Ni 4.1275147112603845 3.9245954858638976 10.275660180960427 1.2078803539127132 -1.1471167015710955 -1.332098832274867
Ni 5.451424897509302 8.011069936853913 3.1208140104796036 -0.16478817225440007 0.7083211803224511 -0.23558684023451684
Ni 6.502293044757817 3.681118390236386 9.977689709003755 0.8010950670220784 0.18519527515584233 0.017905933746143354
Ni 8.044382679763247 1.5183690324938268 5.867393539128505 -0.8165157724525228 -0.9432410763969304 0.4239818532745795
Ni 2.4423407692002126 8.157855659787469 12.974759542313715 -0.822972326711144 -0.006274520154802097 0.48717005589729
Ni 7.592485256944419 1.6516663877887945 8.868983923711012 1.510226916171283 0.5140545389929599 -1.0851232905874344
Ni 2.01702118220295 5.140914139875983 3.1327346104903233 0.05221216322718105 0.4387554120393282 -1.3130122479570612
Ni 7.015982776270346 4.735864211262707 3.3705306357314027 0.5369026472357269 1.1276740194654515 3.4614885273343736
Ni 4.67274532996081 5.565250393331506 3.13463541277997 -2.6745602387309813 0.3040571171917731 0.7209311557769778
Ni 3.03963240522372 6.172022848974434 12.204049614819082 0.16389471390585322 -1.2974115653053266 0.9445531103401347
Ni 0.7946160646367526 1.3306172631421083 9.666984140008394 1.7005715967385489 0.25140709509622505 -1.6385730435485653
Ni 8.001375752409396 3.49579712454444 1.8024318285469412 -3.243734344405904 -3.2930239346696513 1.5734768252698643
Ni 8.915180191363449 8.488200069423058 5.921024179425761 0.3361336860113437 0.4351486685246764 0.8464225873142842
P 5.00091898441935 1.0571206642969395 3.31782303022097 0.8714777305106992 -1.1662163985150236 -0.3023558182299502
P 3.337526807981879 2.0775518554091343 12.63761807148913 -0.2634928226161656 -0.6271722794562619 0.8012411056816395
P 6.132837935009235 2.8206829877505606 7.805449327237097 1.1622497005577919 -0.6441359038937938 0.5886478981288186
P 3.683688044869047 6.129989978430799 7.6768033251291925 -0.12108404649823017 0.1047732251533486 0.750019845612818
P 1.3230103432909095 3.100747512516033 2.9130523312266217 -1.7306470759676904 0.18617923633566644 0.0056068046638161504
P 1.2278960149563491 7.736302425789702 10.61410503256439 -1.2568835232842936 0.1395381394383597 1.1169594612614246
P 5.641987516513354 3.7296171426535403 2.2609277905001086 -1.1632992248682288 -1.8180039054168045 -0.44853203181011786
P 4.923829345439521 5.395328501972474 11.499625644769273 1.004815654675618 0.9808599151909687 0.797337399751859
Ni 4.034487647519141 7.1223312264827126 1.1101891346637285 -0.09136852171166845 -0.5067538915664885 -0.7475148198027771
Ni 4.778963905931815 7.743983559493108 5.546381521407922 -1.2306940093731193 0.079884689441785 -0.29160989256735587
Ni 3.391433894878605 0.7678165149317188 4.776513921135837 1.7656657581347204 -1.337529259261819 -0.7599036803854332
Ni 2.7029241577613954 0.29305565959427515 11.230561468247156 0.22569529215241776 0.8300801414005188 -1.4314997373727087
Ni 4.56691637671389 7.706848803195122 11.162076925430707 0.4016726482544179 -0.26611714761289007 0.16557801514554707
Ni 8.347898781826073 1.145648513248145 1.4240144684712337 0.3257153188914971 -2.13510962826242 0.1838611297254511
Ni 7.821870997384162 5.132592911697294 12.613382610377844 0.9358617532137237 -0.3089548116037066 0.014923711189367845
Ni 5.318684146105885 2.8841636615819657 12.077874933989666 -0.17563102850617493 0.1507705178190694 0.30136080130653264
Ni 1.8320431555774608 4.024255412646125 13.038966584223594 0.394364801739095 -0.5404872792631917 -0.8611920323139748
Ni 6.568918530576486 3.46410780965213 5.770803282808182 0.34110825640779957 0.96761384881434 0.02410280658547462
Ni 4.571786660764963 0.18834455249622067 12.92414291208921 0.3019326146496026 -0.16676817879890635 0.13971657399775292
Ni 8.043538497194396 3.9496704911782756 7.9532397201949045 -0.6472050297374209 0.35662949197185034 1.2376527000791393
Ni 2.723138155756227 0.15409578737592766 7.348596274437159 0.3869489688909981 0.8487028987080286 -0.23586297671403897
Ni 5.419800519737672 5.853849511100761 9.276184198691979 -0.6143635577273677 0.17172629413513008 1.0834397322374245
Ni 6.1118446915662314 6.91030225072784 13.045687576214075 -0.7023536498851065 0.1874683874607352 -1.5664235179675088
Ni 8.525149291090527 8.3138902840523 3.453379269642482 0.1958941496305852 0.09879412475177825 -0.05798788936869368
Ni 2.31475788052517 2.871046363204411 10.883372369506924 -0.2052676204256852 -1.3695158394707445 1.5501301801241238
Ni 0.5271678947464393 8.242246086478145 8.341106359002845 -2.1342994736562986 2.4687989664983285 2.7904336875625493
Ni 4.799836551864983 8.074699038389731 7.989967227978905 -1.4079281207003558 1.5638698983077195 0.40163511014826314
Ni 0.8358279444403501 6.1223366749219705 13.207421824328389 0.3539856265911 2.2565065780153786 -1.2709410298186241
Ni 3.0857006539811005 2.273263060410034 8.407677112105512 -0.45519478854227413 0.5627733443549018 0.9841378146112921
Ni 5.968751107779964 4.51203523300695 0.3489646651542801 -0.20793642550709995 -0.535279252699691 -1.7672595849844015
Ni 8.243841684300591 7.491934763935709 0.4683561998919954 0.1949994057304577 0.48164938318937695 0.9174490550344909
Ni 8.419190463602247 6.305060455786678 7.88881560276732 0.7038376906298007 0.9803780904585437 -0.7007328264522319
P 3.295429000317563 2.359545940331983 6.235857893950127 -0.49222870136712 0.5991755371330197 0.23835746100111851
P 2.714167556370728 5.235620292023407 0.9660018242305632 -0.3129914435669255 1.7518609910411442 0.14625051846152878
P 5.38912236858168 5.706071177893938 5.191386053088686 0.3224232784037866 -0.9515071730604644 0.07335151630895755
P 2.1440103600603377 8.310578490897571 5.193137500000767 0.03198658020892556 0.0896206857826263 0.4189352919896076
P 1.0518514807902555 9.192795659006096 0.7340232373293452 -1.5038318112782165 -0.012325611444888451 0.004796135837062708
P 7.639759480800161 5.654149311543746 9.761740386506057 0.012163631945727438 -0.5546034069495996 0.34411773265808476
P 8.40648134141183 1.221875416196071 3.536175026183864 -0.38631724884427016 -0.03925174641177111 1.2988513830756467
P 6.21591106582324 8.395961527861513 1.1327121111353444 -0.2893030988110501 1.2185668870922821 -1.1180809764603776
