# total energy = -381178.42773574684 ev
CRYSTAL
PRIMVEC
9.15889747212075 0.00000000000000 0.00000000000000
0.00000000000000 9.15889747212075 0.00000000000000
0.00000000000000 0.00000000000000 13.40497224599638
PRIMCOORD
 96 1
Ni 5.241435555041604 8.05291485011228 1.125040504006758 1.3408498389946197 0.4560419670339178 0.24707941425514865
Ni 6.157856523113683 3.4583355913294316 10.320890512100682 -0.7530084959274967 0.8835187208356331 -0.6448943793263733
Ni 7.37011903998442 1.57223466610555 9.11916164326788 -0.5017199286870069 -0.0038108891056579525 -0.4676906070164398
Ni 4.577736046243276 2.7747704338098775 7.388204199027725 0.6383203256532812 -0.19215627985470776 -0.32990004639680603
Ni 4.326278514827307 0.8924979277494228 4.97719952980551 0.33026077217033445 0.22596062999866245 -0.03228508528595085
Ni 7.798911145185708 9.340335280033443 10.9468755126905 2.5659784384648194 -2.77468722336157 0.9149751395727016
Ni 7.098539410716662 6.885054668419274 5.8413909688791295 1.856630873760383 -0.5183842767165653 -0.7764132480046821
Ni 8.321701015636387 4.60618358194089 9.642169495479541 -0.611954434065243 -0.032709317307563025 0.5767226074461422
Ni 2.109605501408324 6.718637500477983 11.901939701179632 0.15537510647061628 0.4536012188029091 -0.031011360779849815
Ni 2.908847534607487 8.627067817856013 0.2571571133427628 0.42588626938614393 -0.25114818500788355 -0.5212464287557088
Ni 7.487224703677174 6.052208640218647 3.4426244185233505 0.3578973029406804 -0.9679959147441072 0.863357672506726
Ni 3.007149981691354 2.2234505975839016 0.0053533756005329875 0.9180038990966964 -0.24199325798149293 -0.27905776693395806
Ni 5.596095543714725 0.6402096843283764 7.584868626029341 -0.633853033910547 -0.02424344592839696 -0.08695907979006313
Ni 2.5566054948796886 2.2197778796783174 6.022626317118285 -0.2114549801833197 -0.02545674951020777 -0.4699174394644294
Ni 8.94521128211626 3.5936766199848225 3.66847184069345 -1.200957915761267 1.631092418900804 -2.524611188371942
Ni 3.9311361991150844 2.854599384595584 3.805349732352723 0.02450929799527392 0.6608683861571264 -0.0705965792716397
Ni 6.332415950950394 2.2256762096813003 0.7977482170136249 -1.639788918233537 0.8147517385735646 0.8221071504973712
Ni 7.313343034256953 4.441341744373066 5.375903740763324 -0.5506680764509355 0.34686778459939616 -0.6335252182574831
Ni 5.687025078294863 7.353065172801883 7.578178967280617 -0.5707525059056364 -0.02789389819679067 1.0690693224483654
Ni 6.038039825754961 8.477796106072459 9.814986901007918 -0.39170576684969316 0.5040172093616159 -0.20166473356577524
Ni 4.480550984656868 7.600053162228013 11.770691783826 1.1038239523207312 0.46709616796555037 1.1232949165611494
Ni 1.7111751414863632 6.895477493797214 3.990257798497463 -2.0109065765192335 -0.7787449814616524 2.7088219881273283
Ni 7.5296303991955105 3.7178254758705784 12.472361334073653 0.11871271805257619 0.9529516188164749 -0.19676935314668692
Ni 5.256062314381298 0.8930786018522008 2.650431072855702 0.5145844433545009 0.040830660863116784 0.37252225194270683
P 4.731541412299308 0.7808995091355403 0.056516808927645705 0.16185737176085027 0.623027661160269 0.03630500507862135
Ni 7.759793493877108 4.570289862559386 1.380712044171751 -0.39375827850334766 -1.1303618507102597 -0.007907941993167026
P 7.70233057083563 1.7423337108499444 7.010679938585279 0.0195583817479018 -0.37531601263776004 -1.0645794049978117
Ni 6.376067256531473 3.4406131246279235 3.16973964635897 -0.10217101164381114 0.025923147623665033 0.01644323315768781
P 1.670051691620849 6.361055823495931 0.6026847652985328 1.2231295667623 -1.7687441399497281 -1.5226587141767325
P 1.2120610211252936 8.943068100096543 3.7858192992807362 0.1123212127039356 -0.07175717523864417 -0.12884209317709422
P 8.205456288310529 2.3880817805087613 10.914409052761041 0.3950302032372358 0.4472529079873781 -0.2483739646968561
Ni 3.9402035076600415 0.6725149476614817 11.304051450512407 -0.4328310761350933 0.0033036104519362465 1.3904513040718312
Ni 6.2184151535169745 2.3910126277152117 5.4496035573285395 -0.38944551006060674 0.15857612990641723 0.5835619989654789
Ni 0.7546949874406131 4.3224775723564415 0.3294272260050822 0.0890496437705047 -0.22348105810991833 -0.20824675765866718
Ni 6.988495257011951 3.7921865648367508 7.7920694487381486 -0.9252448969298258 -1.730539860965865 0.624893253614098
Ni 0.6376836603923166 4.657125369948014 11.364145724811427 1.412007175865736 0.5793505319872926 -0.9289100044862388
Ni 9.018051994094083 0.17489281170644588 5.490153660209292 0.9804999607483889 0.5016073143685426 0.9589219774672968
Ni 6.227711434499936 1.4568508751465856 11.643237481825219 -2.1723780256955747 1.162367971303211 1.2305150605930937
Ni 9.525345009940656 2.922585880887725 8.426419270433128 -1.9674845007798567 0.2572627825460537 -0.9814265863277162
Ni 7.859341551023718 7.042944902769296 1.2863314370060155 -0.4808891079845847 -0.11794010155260978 0.30768468664203136
Ni 3.6977125369163093 4.480404442296545 8.698392732294252 0.8702034917839658 0.9129149146095633 0.3472385376752536
Ni 8.734639069230282 5.017482192878674 7.310240915666875 0.17087165944431862 0.8526852803945444 -0.8900408382248672
Ni 5.084653547291521 3.5637178661963818 12.715152716656046 -0.5036791092959068 0.008296435680837324 -0.9632735695677733
Ni 7.787471682183028 8.640476443825525 7.478366217995675 0.21851985744990104 1.5382948780520926 -0.40021997496829137
Ni 2.002986775376152 3.1298700495639658 2.1556939896195164 0.031373629215275006 0.5862871112061259 -0.6527979504441661
Ni 4.467105723097274 5.4112231972703135 11.167052661405869 -0.27795733478092777 -1.216451640521492 -0.6532049560745976
Ni 4.987212036574548 7.774154645188718 5.396238325037581 -0.9224567926617273 -0.3403847479782138 -0.6695322324797115
Ni 2.474844016717228 2.2536108471177854 8.406982258115846 1.5687264550690725 0.6075313652968828 0.580321123430678
Ni 6.7013271841648825 6.189793598766476 10.880882908388498 -0.29891208265572394 0.16712221970421537 -0.8632455724088939
Ni 3.031824051610663 5.623901956585928 2.7738371421525736 0.828755251941508 -1.3175368753002923 -1.8186561942888224
Ni 0.862176481619184 2.5491867878883596 12.105320347732782 0.8813813627776563 -0.3101040947168014 -0.4140442824458934
Ni 9.164850803547195 7.040325458078531 10.658735680816543 0.4228423403534976 0.35781297075699026 -0.47014755319736445
Ni 1.9228189453821993 4.2405695518336595 4.392192352610636 0.22483320126243858 0.9067139280051739 0.9745365440761022
Ni 5.636559552958788 5.551015450120501 2.0768322184119388 -0.06199135410113195 1.196286992648159 0.8893857211393715
Ni 1.204651473031485 0.6188602942088857 7.36694365021418 -0.5626962112600632 -0.7187369763391364 0.5981828342024472
Ni 0.5914971719776584 5.490484296409769 2.3113787614466847 0.08916431497149804 0.29091518049317644 1.013923273403841
P 3.72822998345348 8.354444074270956 7.626732114814485 -0.21742071084845135 0.13697912046193184 -0.031848254858848374
Ni 7.715253775236574 6.754677762219809 8.689866714592736 -0.33604318318006643 -1.0920734966530223 0.41744328082511334
P 5.65514295602719 5.440843071850508 9.009857528482797 0.6651407882802352 0.262442012754148 0.33836797465850116
Ni 1.4104335825144192 9.426978450574147 11.850960361692675 1.1566477809899822 -0.1251132222622813 -0.3444190659485875
P 6.854427315111861 7.708265536428693 12.599078344824063 -0.18709377773013586 0.22315632778064795 0.03454765606788244
P 0.22628430158181057 8.221090526377441 8.926974085374118 0.8832438699076919 0.10406540045304657 -0.8924242508553792
P 5.9089818007984 7.6944264422757325 3.4409089570178244 0.32117783603245975 0.12220761857971209 -0.7238902384053016
Ni 3.3582746359216933 6.40130001919951 6.040441288684747 -1.3672468409309098 -1.7379680351091358 0.9856241693488318
Ni 2.818769777496722 4.44673633501244 12.444653837295668 -0.22118069211151586 0.2691356227242397 1.7988712983524118
Ni 6.098873223083858 5.679551417918415 13.247531036920583 -0.05484728685718295 0.05062759234888055 -0.8169942547508382
Ni 2.737054093821863 8.605956559072046 5.741094629805123 -1.5875659563730788 0.5868301281937894 -0.3142623398595491
Ni 3.953016805290744 6.301220745996732 0.5686237413108131 -2.1426370469877165 -1.1704746595707454 -0.7913274461123533
Ni 6.575117576337091 0.12583775658847382 5.180391503069744 0.860600421476563 0.1389997504363864 0.15906849616180346
Ni 5.474538655827173 5.152905651611746 6.7388273741714215 -0.8391160263505419 0.10739986414291826 0.028300646716906096
Ni 0.9172819044389733 6.955779675069943 7.093992018097904 -0.22390888967595632 0.9409327399787278 -1.1711619154457573
Ni 2.7213374256772696 9.329710958910058 9.399003513988573 0.49846696896734793 -1.3436389717039827 -0.3576201380198938
Ni 2.840311504464136 2.968682612106686 10.72978216477017 0.4977239201537364 -0.332791251901672 -0.5718344261159055
Ni 1.355315337238102 1.860959751531045 3.956585111764598 0.28904007495765055 -0.5641925932999315 0.6259283797468317
Ni 4.262926420680367 3.8809729173971728 1.471664475995691 -0.4521218060439053 -0.7552710667094283 -0.004878411138223856
Ni 7.450460889031255 9.40756158783141 1.4197610037489492 0.09391185695881245 -1.0672800917584264 1.0874642800157852
Ni 8.216602666592562 1.5962676131984472 13.163602563604853 0.782431172063988 -1.221540367898309 -2.351720698725382
Ni 1.8045684194994256 4.481045565122956 7.110935978510198 0.8565013117065249 -0.04019122750690497 -0.6463082289547643
Ni 4.871562637587499 5.435384368928493 4.3244036885049315 0.5833300854603308 -0.4389477305557924 0.31706664207756363
Ni 8.348930417963821 6.013136783397648 12.472629689770994 0.594973326126214 -0.5366712479512111 2.237334633072618
Ni 2.8236697876700076 0.692855027274251 2.3445696901699895 0.04627497180713966 0.9170376785286851 0.4502197039251859
Ni 0.6229781345339491 0.9809545599991193 9.783136834881565 -0.44433264901678965 0.9174678240875683 0.1704057755514936
Ni 3.5695429250192032 7.90380799848409 3.2718723443857685 1.822695397355203 0.24955410104788636 -0.06605652530944106
Ni 2.014545304046593 6.671643197302047 9.160984832903935 -1.5238535058157818 -0.7481475682907696 0.3765046336292226
Ni 8.97169881374456 8.304326587040647 12.917916053516336 -0.23782755663957753 -0.09743992471672895 0.9885981643754909
Ni 1.0898721693088511 7.843881332009689 1.8173789694608722 -1.1475851565670816 2.1101318752711595 0.7924229931693771
Ni 4.114982749037238 7.134140045377521 9.45734202763298 1.0750885320592516 -0.11932232661211709 -0.006438299426176009
Ni 7.969458975908591 1.5178949271184459 3.8614360730969213 -0.3185481117190965 0.5396048766582383 -1.3676939557706576
P 3.7140153745021927 4.115230039270282 5.799875518199752 0.27065051670686935 0.12294115431162699 -0.22265007756819072
Ni -0.004613336680904134 2.8467593683183283 5.755692996562505 0.43042503779676194 -0.6736475401996657 2.1912581504295296
P 9.220628489444962 5.441594101447161 5.15127628374291 0.5223257778628165 0.39782962035924385 -0.26794725884309334
Ni 8.159826660865097 8.318577831582015 3.6882175078571606 -0.26720575269137853 -1.2218391300856504 -1.8808948885140706
P 1.7056248495891468 4.427694987068029 9.363480729956636 -1.1401608390785527 -0.0354673396686744 0.774359450799447
P 4.630921764142839 1.8508391697712692 9.715601872237169 0.3921757645075762 0.44431542262560897 -1.3667886703475687
P 8.554236264775707 2.1687536615935112 1.7047776515685322 0.07071382157579434 1.364971414633172 2.241129838448992
Ni 1.169307287501191 1.1364268454038198 0.803221574171672 -1.4871363529004065 -0.14516602714809837 0.08457926670397692
