# total energy = -340865.32246334077 ev
CRYSTAL
PRIMVEC
9.24639696630857 0.00000000000000 0.00000000000000
0.00000000000000 9.24639696630857 0.00000000000000
0.00000000000000 0.00000000000000 13.53303660032101
PRIMCOORD
 96 1
Ni 4.829504095009629 2.7672709320455526 10.26916590585646 0.5382036254353376 -0.6940854963390434 0.07223282932348205
Ni 2.7511822013150375 2.5591437826127006 3.289326203618638 -0.27400863454582486 0.5270823187111955 -1.751416190194242
Ni 1.031028740710808 7.125550898193551 4.502563518411317 -0.1940414126925626 -1.0055826147486293 -1.4957737168604306
Ni 2.8227862994628006 1.0971219862635215 12.644728024437015 -0.8301932699396154 -0.3232650575787917 -1.7250752383068675
Ni 8.042959912917825 5.573931515189951 3.99706392061581 0.833925483288538 -0.9125451899749704 -0.489703363842105
Ni 3.9427931182309344 0.33626371866473515 5.198539818460665 1.9900608434184759 -0.40100724675627714 -0.3858415947594323
Ni 2.4811319313636457 4.603688588170181 7.546711335292364 0.39113215373441024 -0.7572593007840507 -0.2823732044604363
Ni 3.6228215510300883 4.702338397459759 9.632557946842411 1.2575412114729505 -0.5746574973869975 -0.15913508773368076
Ni 8.600582375081714 3.1747781393761603 0.8440582721885834 -0.8107266765745714 0.041054603948464774 -1.285936989006824
Ni 6.62060515957664 6.821002321141268 11.096602854848967 0.1449019748534343 1.0996135137838094 0.03590622697830591
Ni 7.493021206637302 0.7353317394793996 10.753972991869313 1.5498890106475953 0.35295795665753404 -0.7844772559597393
Ni 6.067448707150014 6.286431126627478 2.6050419725398286 -2.1201447794224713 1.5348598842286147 0.5792479449711572
Ni 0.77775051022613 0.5707440241062312 7.997685854786278 -0.9705935002679542 0.5628651327377597 0.14168346791613662
Ni 8.375654522351539 2.6327451025063207 11.881464768985925 -1.8849793429960893 1.0835238073107984 -0.8296330265607711
Ni 3.1868077018361602 6.841982395869738 2.68760674965768 -0.8560485404398224 -0.48353400180659956 -0.6077720205527791
Ni 1.622890610860386 8.800027157758272 5.9569043327962214 0.2800119033171113 -0.635010544553758 1.247839153693838
Ni 4.887238597700051 7.8465294556539975 12.598066082120033 -0.02203923918822656 0.7725249686938696 -1.6737537052147562
Ni 1.3694561162668883 7.859215512298977 10.159561890074677 -1.107141189619422 0.8109678460511001 1.5328364260406826
Ni 5.480357977837761 9.038343793303268 10.631810519720755 -1.7508700878827845 0.1343231708963235 1.1701887528992105
Ni 5.931175308583157 5.669021461645479 13.579319618653539 0.8815320294229075 0.388014434041035 0.45340812895549654
Ni 4.987108931389874 0.6330665889739422 14.040931193223534 0.21190929411191892 -0.5188103085103903 -0.9030997282913544
Ni 1.4475604314856587 4.989143138723618 2.3798792613265745 -0.172466000514632 -0.08434555342661602 0.4584572613436298
Ni 9.033831551581146 0.378620538551756 4.898715225621151 -2.4821625322894287 -1.5249441677767994 2.16587853401416
Ni 3.0350743275328544 0.9769465648241517 7.023375437738717 -1.0357622236558033 -0.009014287683468345 3.5696481524614523
P 8.125863108164834 1.7101118734931147 8.599216682249015 1.3901975361898122 2.468915437471535 5.471448680779939
P 0.025039242998985422 4.847802714616345 8.225298861196995 0.12104316595796573 -1.080350294678823 -0.09756385188910292
P 2.2410307412031383 5.486728745351166 11.626827318146427 -0.5560604511111004 -0.4120293088983937 1.1120499397749495
P 1.4638988149344057 1.484111438714237 4.67708556269073 1.228556394204826 1.0627978876173567 0.2750298767214876
P 8.304216859349262 7.16637374082299 5.444042753731957 -0.02533462211004669 -0.07164121848607018 0.43218804323445564
P 4.392371431782141 7.081667498166525 0.8442256319737688 0.943374516651001 -2.5948889508515824 1.9345633245718035
P 4.745630028080604 8.961182610575596 7.530214838455404 0.09076071292434046 -0.553216553904402 0.27765548726979283
P 8.704215992338963 8.268368578290524 11.259486459260279 0.6992986651088665 -0.7301925264742457 -0.6566373787949142
Ni 5.625618874260974 2.8520603922747605 13.816147584286115 -0.7286043560515194 2.9292922844353813 0.008205675739243933
Ni 4.987931860720343 2.422528267357896 4.2371669600557125 1.3411514293954385 0.07739277625786671 -0.3530651716593597
Ni -0.3577310785136068 5.890824032199268 11.719772100504551 1.3015106750753649 0.857341033999001 0.680686192214002
Ni 5.259600250141758 1.8251740374072118 6.632337912693853 0.9906635315449519 -0.7723416490384698 0.30395684416848295
Ni 7.959807064952583 6.6026024246730115 1.383224925997239 1.3071012817892649 -0.13869301782924504 -0.9068391407291285
Ni 2.703812909629734 0.27515613035908715 9.323192921607642 1.445712024317349 1.3162459244030105 -1.1828722619041498
Ni 1.0401087025368805 3.601878461889504 11.785204228673798 2.45079378817016 1.1541211579133865 -1.30190482518999
Ni 3.2720409891200033 2.6899340677754213 5.681750976356226 -1.3467050122238162 1.9334551791092895 -0.21667766203483974
Ni 3.8841802078282126 4.841635367836315 0.8393842185194598 -0.9682748794371068 -0.2645171501156219 0.6055706420260861
Ni 6.334429173306847 7.688453053028201 8.799031320804435 -0.3550024978913886 0.16088086678019387 -0.7593526929779697
Ni 1.7336994321675652 3.3399927604640003 0.4208229436093517 0.6307353142171718 -0.19225835265021082 0.7377016903670973
Ni 0.8867377913299117 2.729295979683354 9.186171489525787 -1.9125024881170223 1.6452160027863794 -1.0386344029972758
Ni 6.5095559319482 7.955433519185035 6.344179498913358 -1.0896335197529623 0.7205362343314042 -0.024216449345203457
Ni 3.439391527908274 7.211015345401683 5.532305160663684 -0.15503546374301042 0.4165130557013601 -0.09167551142912599
Ni 8.26811892557229 4.219657982750365 10.112777895317672 0.6964987337662263 -0.7183158296413178 -0.7904717829802774
Ni 0.912403940043569 0.6495612365315088 1.8760310700301879 2.133991969718209 -1.254943368838787 -1.835558112250484
Ni 0.9877463564869342 2.568824760241924 6.577218291066988 0.9410885488303018 -0.5107946372947655 0.30523134000553237
Ni 7.4056612480499995 8.038068568919869 12.896794052278722 -0.021550986697898365 0.7538587597429339 1.6678213988907213
Ni 6.256722453157854 0.2246754260928534 4.158485669665916 0.41944951262186475 -1.0930109208656273 0.225471863287702
Ni 3.5919385851450767 6.880697059989661 8.071941819585485 -0.9014403383110604 0.6885828213532592 -1.4845004579394563
Ni 8.600693331845374 7.833593746290784 7.60474079804618 -1.7681450729131483 0.506107002011109 -1.7037124563603756
Ni 8.721127652399948 1.5472365908390793 3.1037880019873083 -2.606442460017137 2.474970385416363 0.12262645128468559
Ni 2.4243683003552365 9.051113067520992 3.657154347625189 -4.157357855046717 -2.061178585300908 0.17443777952902217
Ni 1.597278091249164 5.753163674086678 9.609647224426277 -0.46152098787061807 -1.4115798585203303 -0.9717134728050105
P 7.1488333257679395 9.001839018059549 1.577654462956421 -0.2750152214334683 -0.16354247277275705 -0.14981021078832907
P 7.897532581349124 4.943142313790105 13.302839404248124 0.027355252084501274 -0.44730278738870705 0.24269645469610462
P 2.8998827574116706 1.6601905762436604 1.118493183583889 0.976345315150067 -0.22993632681695886 1.479971202610535
P 4.562070555401188 3.9135745038008034 2.7875889647508587 -0.35173025489802007 0.5227523238772739 -0.8024343546587923
P 1.3098815805791253 7.703293520167556 7.9564376778961465 3.2857765090786186 -0.4313015268644443 0.40099130591667714
P 5.857860626995656 5.5987673374555635 9.461162109379083 -0.044482141572775004 -0.5195482151176793 -0.9999472708397229
P 4.603300239497376 7.96334843499269 3.8460619363129553 1.260095859574004 -0.3071501542948001 0.16978613968962372
P 4.602579020533594 3.7164690595580514 7.392745880760124 -1.061538561288959 0.7268452072685676 0.436873364525267
Ni 4.039519676950427 0.6625034183726017 2.736636694239076 2.9685226906909135 0.5466599837328069 -1.7015136489368436
Ni 6.304498586309907 4.5835869211540095 11.33753159753843 0.753276919097535 -2.4589030475408555 0.5871998528283824
Ni 4.362866179045892 5.56366801455152 11.866726936852954 -1.2812092445138514 -0.26744795060917165 0.7571448866933734
Ni 7.243636633917348 5.683926653563634 7.350698815171651 0.23430463108798355 0.7103060719629637 0.22282851212758398
Ni 6.211637021524526 3.8941755629544694 5.810557909368547 -1.7673691139790724 -0.2184460667891722 -0.2569110556335898
Ni 7.317256446604912 1.4312682800217695 -0.1001800879883706 -0.5270530081351568 -3.5299024971323982 2.0596672908627043
Ni 1.4020126800037525 6.1332275752056935 0.27143907877651985 0.03157288971027465 -0.03236273260142168 -0.6067397226335227
Ni 7.626613150082406 0.9215698933614768 6.988852165366002 -0.908441709329558 -2.6317647408320095 -4.190323768449777
Ni 0.8990428964196643 8.603032670279179 13.168402340119819 -1.3061936823733309 -0.19437385633131685 -0.9336801721813727
Ni 3.0054858572238614 8.537235309429555 0.5995132636435441 -1.4026781851553263 0.30198892180883474 1.4616667478743923
Ni 3.7005929959578823 3.221047109821848 12.326282112736475 -0.29110878456122125 0.8483753401652808 -0.28394003472692386
Ni 6.607530754258853 4.061895957621603 2.3439625569302454 0.7303380509131745 -0.5757985529699761 -0.5183721925317073
Ni 4.087887579508659 5.057326069991904 5.475778237417747 0.3540907847103966 -2.4439626241809393 1.4758571804421614
Ni 6.191183991423435 1.592876806290701 2.2918600346352 1.1274680741022325 0.6873643755651259 -0.5577244690770846
Ni 0.9263040486109156 3.6306070172801417 4.374892042947104 -0.71796435983917 0.5163716171619107 0.6218608945456774
Ni 8.152363281885327 8.026205441605358 3.3579390923461014 0.2114729779054487 0.052497041457451515 -1.13640471447023
Ni 5.933866010101881 1.1280604305303623 8.902085188971567 0.46036167745519424 0.0049655715353914475 -1.2913838710540084
Ni 8.164845917796933 3.488795026927321 6.588139210530098 2.074955584480343 -0.38019750909977745 0.05065253204954502
Ni 0.6847243595746555 5.321375428308753 6.237742374094332 -0.6501813387569254 0.5912819933175559 -1.1174525988477593
Ni 6.021568085377131 5.9534683716815895 5.129697619088306 0.8007034880106145 2.6061043599514275 -1.2227981515648103
Ni 4.229449917143248 7.123202313362774 10.180997812173844 -0.3322924578883826 -0.34200659985235293 0.3650336568751455
Ni 0.8114046212835181 1.0940521824689635 11.022198023058518 0.430439178864149 -0.9577071312235893 0.2736059997907675
Ni 8.548081333077196 6.512246633466924 9.480771868076367 -0.6604423543633012 0.7930074049179375 -0.04898568587008338
Ni 6.686892579465756 3.558568338474715 8.346703128793886 -1.4255563753050804 -0.3021082209955184 1.1429443153609606
P 3.1582733207819245 8.705020428875489 11.14580940561252 0.7630579097436987 0.02068992424918372 2.391148565703701
P 0.18861910110225383 1.4735428069757432 13.414068011977813 1.9353742505088734 -0.8418856186758791 -1.0411124322241232
P 0.8157421061028771 7.562480140687664 1.9237618958370795 0.46344494436620826 -0.02369605806535919 -0.022880247032283176
P 2.6162217911181425 2.3766661383789573 10.155014512044062 1.9946844582334162 0.31048307532277497 1.7864024764614397
P 2.4157599047747143 5.334607022375055 4.397750060900497 -2.073911202376228 0.309887350720305 -0.6134107068957952
P 8.773906086313614 3.796561350125707 2.6968633176659087 0.7122873640590508 1.342013520285418 2.8781844100159724
P 7.050571865151168 1.9273189847520387 5.1711899008584865 0.4685776376070834 0.9206667906408402 -0.6457464429140234
P 5.918618701495778 1.6934776053412777 11.908571506347752 -1.633585874746619 0.797083374759524 -0.6355293931717055
