# total energy = -381158.90074736334 ev
CRYSTAL
PRIMVEC
9.31974873420493 0.00000000000000 0.00000000000000
0.00000000000000 9.31974873420493 0.00000000000000
0.00000000000000 0.00000000000000 13.64039432715649
PRIMCOORD
 96 1
Ni 7.4428912440516575 8.24887244610375 7.794011850765183 -2.2550387352206 -0.5960986979799089 -1.0660742443757834
Ni 3.5058844905303115 -0.05941712694768686 12.287198849468522 -4.7561842363704345 -0.0012814378155848898 0.4319049647763981
Ni 8.64869899238833 5.377318022932413 2.7816719691415375 0.26190362375217474 0.22764341701772406 -0.37775393265529134
Ni 5.734385561400075 4.752922807869174 2.7865685651979915 0.4356466912070175 -0.3111515621447093 0.6626326771464007
Ni 4.925440679207229 6.415165257128606 8.837666220482458 -3.677481247487047 0.3913787225275776 -2.4453191382088337
Ni 3.087399807007398 4.578354591779655 11.316452875163575 -0.8451568332279831 -0.3493149605883081 0.8724061558622395
Ni 6.499947012601692 2.2433567505690157 8.03627965462342 0.530806561640318 -2.997083018827109 0.6480331820656711
Ni 2.0288534105702767 6.868105052225006 3.4215426272039045 0.24090105335857867 -0.2602452622131453 1.9547773376258335
Ni 8.441483696006163 2.0530940773819175 12.215682824537417 -1.0775652757345184 -0.6406358611603354 2.120587523386845
Ni 5.24758711865789 0.8151303995180619 11.597404160657753 2.5994814553182715 1.5286313868203996 -1.2510725730294712
Ni 3.953950056967545 8.085245615187958 10.6191427408638 0.38160287408773635 -1.7243851542183783 -2.657244630270669
Ni 3.949728210729301 4.112823815959486 8.637765994988586 -0.4116094477521556 0.8581195640362383 0.9232628335027905
Ni 1.8505759344303794 7.677627758847811 0.05920370469855707 0.10530775750057993 -0.7498354975161537 -0.45217271388649866
Ni 0.6158778965706757 1.5919622230285282 2.779298229104273 1.1936611249895377 -0.43855949397843824 -1.6116985877552241
Ni 2.3145223529425984 2.082050537121928 1.0705474370574015 -0.528568930559051 -4.15840506536431 2.1415219595466666
Ni 4.336935817043501 3.983577538626217 4.886835483461801 0.7229738972386194 -1.4799889432223479 0.9658403018536851
Ni 7.944088698798451 1.8414798595329702 1.1823219811835257 -0.13798930689400107 -0.3829223642301083 -0.08464971493059614
Ni 7.505650432944233 3.1149862636634746 3.206815613232278 -1.4260852512253568 2.006391976478332 -2.0027224980465443
Ni 3.974490783477678 8.299637118200254 4.808880444036207 -2.0599148880971363 0.46932788550954657 -2.4559182538809186
Ni 1.5947208686941357 9.529443219877939 4.386300662859686 1.3479802793918139 -0.41902553771056866 -1.8899868235130095
Ni 0.2681012157518129 3.379741689570851 4.181053697438925 -0.15608241695028605 0.9799993669628865 0.8775501619570241
Ni 3.0538766703209426 5.599631312484461 6.848309905624497 0.030957367613462808 -0.014616207251278053 -0.3518055882206457
Ni 7.16960824792796 4.100661543683749 0.37174893886303884 1.6581329679583638 0.6304447795599466 0.8229155053312796
Ni 5.023251443600988 4.854843581514735 13.226640719293032 -0.4158042025597935 -0.6905011214218947 -0.6101412921159041
P 5.87009042470046 8.178182150922552 11.595931640336245 0.16272306219525526 -1.8746211396902166 -2.3597160582260326
Ni 2.9315456466494334 8.586992935118099 8.434060516030971 -0.32784599208125476 -0.6964198008991749 -0.38790284816383513
P 0.9540626918522295 3.88521690904911 6.414900576260691 0.32005940615730044 -0.41510820493403344 -0.21266314155880797
Ni 9.040864705101528 8.397354685105311 3.5679726575042254 -0.02106916196547339 -0.8857897762579972 0.05745155724924944
P 2.1306064287361717 3.062497438025966 10.27715082816873 1.069438532862326 0.16982290646483011 -1.0150211344537101
P 5.4423232713027305 2.293720673464097 3.0556800417273444 2.98413520041719 0.24507086846555215 1.0256999543237948
P 7.7927639363914505 0.7503534849950676 6.163984977425704 -0.48095004312950723 -0.5398892406678766 0.2502878938901173
Ni 6.966214048582615 4.457430850187561 9.517094552624796 -0.8451792018254862 -0.6298058604243669 -0.09100445350403036
Ni 1.4931262862590362 6.352611102711179 11.745538773026452 -1.3232928039474627 0.32536693441314285 0.6185637118516444
Ni 3.8447691989520245 1.119134083842917 2.7313937879360637 -1.8379417819913122 -2.523197338743551 0.8685230187577493
Ni 4.783361107679562 7.351548385373884 2.7872237435435734 -0.9341933643723652 0.6274021360788808 1.0520709881181558
Ni 7.729371004575696 4.958302113723893 4.813667999030878 -1.4488893936040659 -1.3199994779081718 0.23839037112158296
Ni 1.9835873903072478 4.971582755864065 2.028954063858076 -0.5357690478519159 0.1919189670329211 0.24232955827498912
Ni 2.3778127675207803 2.4334330287787083 4.623356863149655 0.5201264562186526 -0.4481481661081379 0.17112157067159564
Ni 7.836212605624771 9.162450148863414 10.197300151822919 0.8077076872425895 1.2405719306084635 0.7670474905190661
Ni 7.0261120745720085 3.9913595289329145 7.05181128208185 0.008425247949217748 3.5405466071098055 -1.2836209392791378
Ni 0.5014444280918559 4.15634704318377 12.291155082863964 0.2970274640385014 0.9934596062328505 -1.972623107558003
Ni 0.4744721428863314 0.32951929278195236 0.4393432134695236 0.09531567928487455 0.48447502556363015 0.9099923416461295
Ni 9.077379481175349 0.22156025384332736 8.09816558304685 2.4111638324833633 2.0519043590878336 1.0272547004054242
Ni 2.75811443992209 0.5692819481438554 6.357910311918828 0.38144989344963987 -0.5841890910265165 0.41118650128212414
Ni 6.302153982327394 9.403626610128939 4.546998296705543 -0.3085172098456558 -2.1932769806317713 0.2702388830907475
Ni 2.2173919302163703 4.758337581962817 4.357492387126713 -0.000482853173689491 0.12610206853811187 0.8973895652804544
Ni 5.012431215162574 6.088275065502965 4.765162434060534 1.1439573300065073 1.1067262135691907 1.3515569409994788
Ni 5.023521716318227 8.612258774305472 6.565053846234695 1.7196728363443738 -0.03980581914302822 3.3154434400154322
Ni 5.895011433179631 9.219254018227868 2.128597090879736 0.5774582000605861 1.6540017193988095 0.29418819481749336
Ni 1.5548137040315273 1.9410427367143455 12.42354863939073 1.7304930668883296 0.6523390085298765 0.862759891021727
Ni 0.7157576452136407 6.646882173290782 7.5559332740241425 1.43935162931696 0.01487588867056793 1.4784521948628473
Ni 0.41020874652609046 1.9973340198909348 10.495752061745739 -1.3987780787699717 -1.0357884489080484 -2.8168360888154775
Ni 2.163775414965556 6.168145313321404 9.589961009167206 2.4093542900784506 2.355107355809428 0.5932015789377719
Ni 3.9956279739155103 9.276179044327638 0.6207241659832297 0.5228022032786029 0.029628107279078005 3.071188896803588
Ni 4.742577886623146 1.534804203207001 5.384354433329488 -3.2544154782688337 -0.5243790608474195 0.17166047389420114
Ni 9.024471266838676 3.316926582185055 8.536213351423402 -1.839628939885748 -0.7301506174927168 -0.7263497556893878
P 4.806539323119989 3.2166181250940555 7.005870512000612 0.17570764738038128 -0.22005969113319518 -2.1038067043840805
Ni 6.315425304718696 2.8205101586087236 12.019874900772493 -0.23478028517282148 0.7976937546500132 -0.029331401974265613
P 7.03933679821896 7.018954507439621 3.694337268486798 -0.5112273539568098 -0.44658236428291476 -1.9466464809885828
Ni 3.766278273966389 3.3925563442675086 2.5988362038291783 -1.7417341870197873 1.8004409568323765 -0.3511499569145178
P 8.355378536193495 -0.16587848224285526 12.602960328968143 0.018376445624658674 1.4961704380782168 0.35999223779649614
P 3.663779675890871 6.152637251201231 1.3904468850554341 -0.6812374367317816 -0.38785682541724814 -1.2741484810123282
P 3.9249283589854427 2.0545106792102024 12.849688564635706 0.04237126587735929 0.582790410906777 0.6361009494044594
Ni 0.5278034738217148 8.473702067850777 6.047073387722272 -1.3359626861056477 -0.6998434818687431 0.400383240019033
Ni 4.6795670645110725 2.7415625659284437 10.331657379436658 -0.5624403864955152 -0.15328299982827795 -0.004001407849909238
Ni 0.4719632664904476 3.5134521266129917 0.6910276915863096 -0.8678115945130215 -2.206582953712058 1.7665713006681254
Ni 2.0837933301606735 2.1587800295710773 8.136317838997181 -0.611298802759115 -0.2329190635943666 -0.42267213332422043
Ni 7.9660739863834795 5.886353386479127 7.957969532765871 -1.0197123692817922 0.09555427765824188 -0.8579221033134515
Ni 5.018479732179396 5.470673947366172 10.740078598129426 1.1313704944804321 -0.5878662827677875 1.822929881963512
Ni 9.035030542308721 5.895002113430761 9.99298050141475 0.638303613482733 -0.15556433966328692 0.08442654317619654
Ni 3.6188678060849133 6.698942290480258 12.546094017286258 1.1158739415067298 -0.16853606933260654 0.821119075552489
Ni 1.540647685748677 4.4596209911720806 8.574215559416922 0.1666221401393453 -0.8930863099194103 -1.3932525209660522
Ni 0.19704185851535191 5.69838337151412 0.609568426585485 -0.5947781793962725 1.9205659818514473 -1.2385741834521444
Ni 6.603125952344743 2.537460065668955 5.409057359685095 2.1675602925919577 0.5445905027982879 -0.5065237778335534
Ni 7.7662492508554575 7.804749133438651 1.676636801389605 0.9563179641855466 -0.5242196524514199 0.2650249429899758
Ni 5.740005369968864 9.522080618270405 9.19578129872314 1.3406318094465428 -1.918150944652051 1.5204737907102717
Ni 6.29193953756555 8.401921362051755 13.606184696111185 0.47979638914103817 0.5347915144299951 -0.573865083392689
Ni 5.501233403911874 2.629054557566227 0.7184109777170141 -1.0839572953037913 -0.979058857426488 0.6469852004171309
Ni 5.8920757122854885 6.315788774924638 1.1671578177966668 0.14176342922445262 -0.017616170419866434 -0.7481933339270405
Ni 6.687441720374312 7.023455946143974 9.782863967209261 1.6765040142663838 0.5436134835969992 1.0959905723192414
Ni 7.734319791225822 7.038964008264148 5.63866614865281 -1.2332064913823277 2.000951779299367 1.6116679916276049
Ni 8.100679119317169 7.280522579233357 11.655703849715891 0.32185814992893597 -0.4447260278004664 0.5985091071936144
Ni 8.079756283103354 1.2218843151379335 3.9116421249959483 1.2021820179763554 -1.248652650734069 1.0229619865673416
Ni 2.579063424625958 0.8782940655116077 10.175584204980241 0.609107451534751 -0.08245424994117413 -0.004085225812967158
Ni 1.9627018330889139 8.487793528142666 2.056890011096789 0.10410885209647233 2.716334751564606 0.23169470426896227
Ni 0.38474626063755396 5.9584230044931275 5.566549931894457 1.4695145260535853 -1.656703948821321 -2.5016278401028913
Ni 7.4330589089934955 4.812979269589364 11.743069971550709 0.34940314942674017 1.0704134951810858 0.3312383055922553
Ni 2.860240248042796 3.824023437966745 13.855094684989284 1.6105009679026974 3.034306164844626 -2.5713728700075134
P 0.8555445585192145 7.863454231572647 9.208316360953688 -0.18914448961157748 1.520888252539871 1.6017944412676348
Ni 0.5385100013239111 1.4726041992466439 6.068216170009427 -0.3992283004789834 2.1533001831285175 0.22998234956354585
P 2.32905184143139 7.404624355190221 5.8663793007003076 0.40723677260575675 -0.080682502752732 -0.4817355151452801
Ni 4.371968753046945 1.3095272335141996 8.12674272900784 -2.99741237714207 1.382752906986309 -1.645419634156753
P 5.91104140123654 6.4201420030253455 7.056244686619451 0.996234083654194 0.40532695717755357 -1.9507260503745953
P 7.44230409987283 2.2867774605557263 9.89759287172727 0.6677689699317015 -0.44950468013603234 1.9443000922435933
P 7.4743360767400375 6.314875439535348 -0.18061952903100287 1.2547867886562647 -1.0747427186840588 0.5341081152097253
Ni 1.1563385213331399 9.026996918782526 11.827695155242774 -0.7855527484121052 -1.2184295901834692 -1.1663341550398107
