# total energy = -340874.1272539475 ev
CRYSTAL
PRIMVEC
9.16372747258593 0.00000000000000 0.00000000000000

0.00000000000000 9.16372747258593 0.00000000000000

0.00000000000000 0.00000000000000 13.41204143989818

PRIMCOORD
 96 1
Ni 7.1119504460162455 8.875124892306655 9.816983782784513 -0.1958026183580434 0.6445596216947738 0.5081857389170087
Ni 6.899397790816327 4.673904137477368 3.351494895204867 0.6118415626364624 0.2836016775508987 0.4240800694153406
Ni 6.997697093783756 6.439873520600541 9.123111848309637 1.3696953024714025 0.37554484081911454 0.6845418185146662
Ni 2.700596259999662 5.070620220638174 10.252365297001605 -0.09430497863217306 -0.29167648413923314 0.22032708586196892
Ni 7.219257692939766 4.116401294750371 8.242249475995488 0.48657767372892985 1.2819425231354502 -0.19356010218076988
Ni 4.676726565492094 7.17925802318561 8.9593505428552 -0.28821655061509077 0.8394484699892962 0.7007796205297673
Ni 7.560707336630397 8.090407430666875 3.0895039311106367 -0.608957556220448 -0.5033710911371847 0.3631888903569229
Ni 0.7697842515982275 2.2782675589779475 3.5289633039853676 -1.5049361000859889 -0.8359720814049215 1.051855272562924
Ni 8.646242475021534 0.5133538372420999 5.344095167810505 0.1087005852322128 1.3165662838569068 0.7869578562897479
Ni 0.37565142316908146 0.5672347211414095 7.77780336783584 1.9850453924817553 -0.37360700036645333 -0.0834279267083531
Ni 7.681860975535253 3.358203659976234 12.172245895082368 0.15963465307791863 0.4385602653093867 -0.42950766818881514
Ni 7.477867241652718 1.2706057753567572 3.4002074368953923 0.0451277455765739 0.9093979025952402 -0.8675735103602865
Ni 1.6969665163995094 6.339393250530823 4.75039743491284 -1.1426985178987419 0.5402371109255987 -0.7915213072907142
Ni 6.354302634881341 8.417020999825553 12.643598704523505 -0.012450052837894687 -0.5545517277760579 0.17554078278521382
Ni 4.012622082845259 4.799987861680674 0.5606835724799556 -0.09181255122762252 -1.4711857431084212 -1.1947564149362455
Ni 4.644726829688769 4.955532969219515 2.8001794011646997 -0.4357161109923722 0.27752641789109617 1.1736551141812561
Ni 6.541105216310544 4.22334199258107 5.74550399573216 -1.8829805673985054 -0.2745061430075337 0.8717975757439631
Ni 5.969123684417095 1.6111390463153343 5.321897871121962 0.9235523397187514 0.8345052670514079 -0.3072177743079419
Ni 4.922341948864521 0.6385404325407253 3.3104808008363276 1.1283358214191666 0.4891690886051899 -0.7809705283580615
Ni 0.09775131207366144 5.732543736182721 11.05204529261036 1.0121196445361988 0.07017337569129205 0.7028894677839185
Ni 8.979820476943821 4.737362949172105 5.883258643050905 1.1417608365758207 -0.7349709216994955 1.449075541472943
Ni 5.681364319097506 8.349612621655663 5.229139874065262 1.6025315765439754 0.5853095777842049 -0.0376841448143351
Ni 4.279405676328133 7.19725558364315 0.143721150177149 -0.8742825469493459 -0.8111290542193127 0.17879142851202756
Ni 6.339604016259195 1.4772844813442103 11.67781057289352 -0.7659470583660357 -1.3299987552127288 0.3150028175699994
P 8.072281578026848 1.654245219631153 9.048836172885734 -0.934904531506777 0.6634155780590123 -1.067055120231814
P 5.5596150379168146 6.607331473656084 4.035240910990547 0.9213694731348196 -0.603192885822529 -1.4705751061076158
P 2.191056366068371 7.120390238878463 9.302363518426715 0.2789937464652421 -0.8476466895293724 0.15872551100008792
P 5.207599616625602 2.6218065324976614 13.171120580575893 -0.0592425877114012 0.0968169464207494 1.3105951538751364
P 8.525455385209499 6.3191139219704695 7.376931534335169 -1.729612464055589 0.7778242694195958 0.12348057175486475
P 7.948983626928986 3.0914933763119254 4.722526874640152 1.3469970895429384 -1.534550580518312 -0.6062473563781365
P 3.0039339617641683 7.449276412412634 2.208413381986205 -1.1539234400802836 -0.018383130492878017 0.12554799580685475
P 1.6357528178983038 0.9865760470566283 11.661474396199196 2.527079447406777 -1.2030297106886312 2.6462755328536747
Ni 7.828783015665467 6.333757558228691 13.325063868579104 0.3127471887666033 1.5337494247732553 -1.49164221119056
Ni 5.3918638455870145 5.279663168274326 10.484876550305659 -1.1565919880513822 0.021367152821866426 1.024181203686423
Ni 2.272219498946391 5.393724082233084 2.2646768349888546 0.11781720282150031 -0.4084248793765869 0.17355074893837852
Ni 0.9363771487947116 5.497851515776377 8.633746816447246 -2.058572000915997 -0.5055781260908325 -0.1274917497967869
Ni 3.614348166039961 1.2832425553317814 5.081768811296342 -1.0914543750117847 -0.8191822635410924 -0.2622895463366838
Ni 8.369103869666452 8.599956488325487 0.5482318997968062 -0.09997477532344073 0.3935225083434578 -0.02289953030599282
Ni 2.866762127503009 2.1268919473699515 13.27876596903754 0.46114046460274777 0.31305623536658983 1.3534395027341724
Ni 5.942759640915902 6.891187091137123 1.7475081380632143 0.5097628535961415 -0.45830556625711394 0.33644401816291086
Ni 1.6513494817978627 6.63340227788302 0.2561041856635162 -0.1346936668618648 0.3399808276715758 -0.12827002272370813
Ni 3.8721054881121026 6.133530116274898 5.244899652311127 1.3955570007295126 -4.246622700151822 0.09960325091663491
Ni 2.926253045267953 8.969694558254625 9.93782585496047 -0.3290850066946784 0.8484840978290032 -0.047298785085963704
Ni 7.516171621852574 8.8100074459669 7.428581050631927 -1.3725330290305136 -0.21254281393085978 -0.33334095375755496
Ni 0.2823839228733601 2.291096777226703 13.372555801790531 0.548559771858681 -2.3385949599767013 0.5274389307196659
Ni 2.703024647739605 1.6340117097074014 2.4862035283537782 2.10850205297722 -0.7966871677623698 0.12484351354066239
Ni 6.238042426365654 6.781863824203084 6.979304576678701 -1.2042299016443194 -0.6149312573053797 0.29981351142407076
Ni 6.752549060504678 4.543504297706087 0.9143338027251533 -1.3915242254210358 -1.992515989827188 -0.2297748615384301
Ni 3.5996037287812124 8.07657020241286 4.244267363917523 -0.9996135416493882 0.5492238878052412 -1.1456149202145882
Ni 8.638086757706253 3.3512300634853034 2.0289463642770946 -0.7432424176796684 -0.6463781629607513 -1.1812303554253527
Ni 8.59966324905123 2.5243502924437213 7.044687771110752 -1.11510621010277 0.5030995826433529 -0.364700699015759
Ni 4.124831923885268 3.423889257409863 8.908210529797463 0.261452138037053 1.1439994960983524 0.7152364193850456
Ni 5.716754634009431 2.2894473063090057 7.57870214796974 1.5625915458159283 -0.003648652496180813 0.08826622863726089
Ni 3.0689231159214363 5.581168124574725 7.944676675088332 1.9881248027380278 -0.7004649175028259 -1.63444847985723
Ni 1.548789045626382 9.030321778207316 3.4196006330238506 -0.537522797318229 -0.026490590091360827 0.23068914582258337
Ni 3.8944466553195785 -0.05016041060717039 1.252486337325854 0.8494724298842016 1.3224656800604773 0.4995558311561526
P -0.05024196778032319 1.0037946906919224 1.827337032243364 0.5965650960933662 -0.15665988672031084 0.0867850161060441
P 2.004721134732516 3.329961052374331 1.6171834408559624 -1.1301034548425506 1.5031869786053662 -0.7422324883579153
P 5.2106511378233415 4.797431181758244 7.484039928375833 -0.0707583016604846 0.28545749981271484 0.38588813172665154
P 5.12096573853722 0.20112915272213427 6.992743182794273 0.34004664791250466 0.2186846651625395 1.0738975970749443
P 2.12754257200971 0.24714939132588482 6.40351185059264 -0.64153677570805 -1.5500309355420983 -0.5559858891194231
P 2.5491106836638195 2.0372432029931113 9.89195681785751 0.9062768404677553 1.4903191215037623 -1.7161856491267218
P 8.322341369149736 5.56937440751319 1.9074069324520442 0.6935121403340765 0.6642792116108882 0.05649099310819304
P 2.4254370197458157 5.268556730761832 12.387602650842373 0.11308328768094074 -1.297667647180191 -0.9323869072912457
Ni 0.3034577465924053 3.383055688469538 9.570430033734464 -0.9526965653828753 -0.2471498624817679 0.12869656873816546
Ni 1.499213280822262 2.2216998702282558 5.842875013122018 -1.0110914603820005 -0.41867329657747254 -0.24798855633297937
Ni 7.494169512555958 6.311727957750113 5.131795431484632 0.8613511835996585 1.4532145033419812 -1.2299846420109204
Ni 2.583346368933356 3.570728823994192 4.18320211779891 -0.5593321798838367 1.3056982307941514 -1.6107848176917035
Ni 0.2109260936005233 4.546400035539378 13.46488493640863 1.082677657260419 1.0876182890951462 0.11975350061226474
Ni 1.5845917282677306 3.2584198331828773 11.586662642727042 0.1661822243884493 0.706967494508034 -0.42877053291247447
Ni 1.3687951135963405 7.915077835842989 11.561796868642757 -1.026040111272033 0.617091241071176 -0.11640746695816727
Ni 9.165010242364609 7.734314150718022 9.241124161489012 0.7716644204657871 -0.12750357687132882 -0.2938038148948811
Ni 1.6934109901991399 8.930877009324819 0.477089302743796 -0.5655483359968777 1.4779564861733512 0.27438632960021775
Ni 4.79974044104302 1.1294293922565222 9.42470844188324 0.6768912439479439 -0.15078594443803708 0.66716604624038
Ni 7.064326555131401 1.8714530483099063 0.7204824822409915 0.6929295283577293 -1.3600505802927867 -0.8688482633076521
Ni 1.2931485445652848 7.345240616142547 6.869580854860755 -1.3065906607014337 0.8406401763045522 0.8026271873958887
Ni 3.60618328499736 7.028413907762206 11.400503354955742 0.49064001672376145 -0.3751949136788635 -1.1642865284821624
Ni 2.009596237667043 3.33503775730991 7.852012148050302 -1.5721539926933827 1.0678624466244577 0.9378582148184623
Ni 0.547157910954839 7.195670258816697 2.240132707733521 -0.33761695542508957 -0.027074230508972726 0.5742018979068175
Ni 8.962702634309053 1.263879599503481 10.961419694901153 -2.710383161966861 -0.2674577208011846 0.30313537670845214
Ni 6.258981543293086 3.0634981893476767 10.08873869833878 0.8262103740324673 -0.4719056735390518 -0.8853136079525269
Ni 3.820541194479426 0.17915636735294413 12.323171567678925 -0.06381992266943846 0.09698046858180719 -0.635032656040945
Ni 3.587095240988676 7.565206726744782 6.741938380640224 1.0122713396227148 3.5452026178245784 1.2948952266413762
Ni 3.316343753576009 1.5140493553542158 7.590544432786074 0.5322368663289414 -1.7167227525771143 0.8030437061080169
Ni 3.93827676309372 3.342487867621509 6.1652604384949985 1.001898738139139 1.5476282396378767 0.6038078936987086
Ni 4.2043089309363095 3.139978657564901 11.38039905358721 -0.96670599228809 0.23040606736452576 -0.2985665263908471
Ni 0.3182452533695603 4.809793049913652 3.60333244942794 -0.2932944793586304 0.14685369926316644 0.017670677806885696
Ni 5.757624857859038 2.764384965877939 2.304188994449558 -1.2193860405594676 0.09447518566145019 0.13876912248281906
P 2.0532339071674532 4.5453645343521565 6.010646365651924 -0.27609354209931164 0.9240611610343699 0.7298968496106978
P -0.015177881561009961 7.876590181096722 4.540472020335721 0.7564226638153683 -1.85803572452771 -0.2610055374179376
P 5.716525540826416 5.7137306039936515 12.892069505329012 -0.23616688110770293 0.9299623570101532 -1.5657455180638775
P 4.599971185455253 3.1457884606861235 4.0687975640656315 1.7415421256136394 -1.1260591095698478 -0.012886111934048775
P 7.4973126710269025 4.803305130970709 10.56278747635762 -0.4404546541186221 -0.7486131950732785 -1.0281404454444871
P 6.088499560221766 9.134000189111902 1.556855874786653 0.8168446165468513 0.28294373225192565 -0.17230967744242584
P 8.249260643768432 7.750634749075903 11.332034733534865 0.4875724335420312 -0.05110761730909263 1.2028759587195865
P 5.199407244401039 8.656789925167475 10.760520551734762 -0.9422041504919837 -0.8022068120290184 -0.0804377337317776
