# total energy = -381163.53030676866 ev
CRYSTAL
PRIMVEC
9.30339905188026 0.00000000000000 0.00000000000000

0.00000000000000 9.30339905188026 0.00000000000000

0.00000000000000 0.00000000000000 13.61646491441124

PRIMCOORD
 96 1
Ni 6.617870457386858 7.321542335232599 7.889121303211468 1.3468592784134932 1.2482623572741856 2.2401345644152584
Ni 8.788195258797405 3.162402044601074 5.538905050676943 -0.3030587578342458 0.5472523659011672 -0.9678143948609202
Ni 2.0811982401201288 8.8636737339278 3.2471318195798182 1.6916012749191383 -0.17863639099140202 -0.6378199889780951
Ni 0.12324863737026068 7.329347886894673 11.82468789394794 0.9213108519827423 1.126777475793111 0.3424218330129006
Ni 0.8002039446463056 1.022545874529369 8.63302945088236 -1.4911799268421608 -1.223641473401712 -0.5656537512264904
Ni 5.608488892275646 0.7568101012405742 13.279852050233256 -0.4117277184975748 -0.49455709238998047 -1.681935212584284
Ni 3.0231301633361896 5.2188625470937255 0.8573240227626722 -0.03352641389221968 -0.7700433399225964 -0.6994655297040342
Ni 6.179782707428132 2.7586531399161416 7.011403299759366 1.5980205760474995 0.856181466473261 -0.5910140843681498
Ni 5.580094918887507 1.5836245577093213 1.7854999403916756 1.7827738785699165 -0.031789633706771056 0.436579487433932
Ni 5.970130613620239 6.534688767982092 5.886411187760089 -1.6844443521593828 0.6328577598768134 -3.420977454594205
Ni 8.244560448521371 3.8219292947512997 11.873203258438263 -0.3559098401970064 0.6162252935264548 0.6479642765009487
Ni 2.828726340296042 5.4948385715320365 3.2567999116980855 -0.3851990760794269 -0.6369926079807933 0.5843682969168582
Ni 3.6210596094880994 3.4468627688198508 7.848393813925344 -1.1953017459167543 0.4492835652641617 -1.2401237873274513
Ni 4.678856062381707 1.3219664641505464 10.786146685720595 0.7856049418062793 -0.2167673935351686 2.457197634813974
Ni 8.251658941868406 5.811498359281726 2.1866680822267157 0.07776481488530478 0.25619191807937813 0.43815737344401307
Ni 0.9114167748828067 7.162956597888497 9.425575767908818 0.3372444025770192 0.07756092640461482 1.6591300417643104
Ni 2.4284569067930115 8.523243762034372 10.73010115017511 -0.26642619421287667 0.22487099647890949 0.1640250688361304
Ni 7.666354207999493 8.039932190109807 5.726962094999729 0.8068319695058557 0.4641633105894716 -0.7454152569612711
Ni 7.494418093259592 9.12851358990425 3.054894758139309 -0.617689536776807 -0.23848241661475703 1.3520958442220843
Ni 4.95519491937642 6.723287270119817 13.510500984978137 -0.9186199354141404 -1.1923514050391788 -0.2306986589042801
Ni 6.685655021641763 4.54740833957666 9.444843106993625 0.9714702464459528 -0.9782988393320118 -0.4231061355378455
Ni 5.023835396328478 3.570039770018719 13.651186982873098 0.9887110358042716 0.5336247478154036 0.3566477468042955
Ni 5.226463423980392 0.02814557263798619 9.111838177747991 -0.4052693644667408 -1.8762964705101104 -1.179821133782652
Ni 5.605428074043438 6.3111746098398855 2.045955104474996 0.46650815667256423 -0.9840377986983181 0.7898994554165751
P 6.017215115362496 3.2341033397853396 11.147146472542325 0.04510434853780619 -0.8615177910845099 0.48377722816565716
Ni 5.645721094601768 0.5945216111414002 6.667778540689828 -0.11107397056039582 -1.6121307901966366 -0.3925076939256982
P 3.5003387055941024 7.073234619069623 1.8982850450392497 -0.20107543672120856 0.5309418016666018 0.26686559574314045
Ni 8.757261457514458 2.719309066043784 10.048692305854209 0.3759569886558687 -1.0882705779671644 -0.14244425734156113
P 1.7433267029192743 3.7131353482241423 1.8948260413348887 0.3181488193981488 0.9388162078563573 0.02067732584369342
P 5.723534722851567 8.266218761118877 4.436748131233755 3.5984301096901516 -0.45777077679956646 0.5757497020099116
P 3.658254598218694 5.225681938474297 11.803459398378788 -0.6941605725513529 1.285446936744283 0.723665009768373
Ni 9.114660828968818 3.577752287691972 0.5575340882058759 1.218871305706578 0.07103623791221961 0.8555446042202105
Ni 1.5747770253724538 1.6178331553987653 1.965931918990701 -0.4527563543041106 0.27639487538981433 0.08951269944985228
Ni 5.991965690796504 5.460881165612409 11.564340649291653 -1.6411076370449609 -0.28183790078225657 1.5035415337313076
Ni 1.4045713428246214 8.829586080423823 0.8148456338069385 -0.45538890683095123 0.07169958252783135 -0.404426042629839
Ni 3.382259966982619 8.884969213968903 6.209080971187609 -1.0535802256738307 3.1679958159220085 -2.196603988122475
Ni 4.020156814731986 9.036735559932435 1.1883743079031783 -1.4126070142332638 0.05368437689733335 -0.11544895969963989
Ni 0.263475047360447 7.498874421324112 7.376406339120059 -1.0774230937296991 -0.3017621505100093 -2.6837527038635263
Ni 1.6477342794058016 4.2675621012034 12.587495896447798 0.41583968378341934 -0.8528899402061828 3.1861331489526674
Ni 5.244939974160223 2.537539258685514 8.99895817843182 1.3693741716865577 -2.227343583298177 0.2200928583639758
Ni 7.233671732791262 1.163259782620977 8.416145825123419 1.2561242765207659 0.32118657778320814 0.05732763007687546
Ni 8.20738406658854 0.6580721985650673 12.412469192599266 -0.1432595541540049 -0.3914648544834807 0.9307853671320808
Ni 4.433497523664354 2.529659279832384 5.405137060190703 0.8374309253386353 -1.1128004447877287 0.4850429822519582
Ni 0.32392202091704886 6.0165080570474565 0.29344966821865204 -0.7325486854112481 -0.3753913459603857 -1.6087767861227389
Ni 0.41991262990267475 4.313837207242914 3.6082674360252263 0.43953342785593336 1.0444373828322981 -0.07302164377336456
Ni 3.882112982119539 6.734069909424158 9.959681106709926 -0.19829735975543913 -0.06499491681414614 0.4583865560066945
Ni 3.305553443199789 1.925589590418295 0.4511608860678379 0.8547722448305601 -0.2724767712823307 -0.7775121374958157
Ni 8.457589676123463 0.8797368410095147 1.2481644614987046 0.8358008459343799 -0.4386337988597994 -0.04303615315486782
Ni 4.34364529726113 7.531789846568946 7.48249206623264 0.2261966572688685 -1.9583470572549628 1.4311706361680643
Ni 3.162783483955239 1.1073184451429712 8.235891541443042 1.4071094814538025 -1.436514674088797 -0.9362993549717745
Ni 8.79591707986954 5.053066675616003 8.867899337700045 1.4446879539282085 2.651456562833982 2.167459505348035
Ni 4.3967490980800985 0.38444807336414855 3.9876498086980763 -0.49312447370851203 2.04389460140948 -1.0496047859658504
Ni 3.9548469545797165 2.7764598453764617 2.7318165555008656 -1.4436721110691846 0.3491306124916439 0.05746569831663652
Ni 0.07765454012891514 7.7697335763772735 3.681823828946581 -2.1502534258823935 -0.9760925757093125 1.134541436009246
Ni 7.135502267787451 0.04662305315770469 10.486230224939003 0.13512895462707053 -0.651340134951717 0.08110467789181516
Ni 8.156196765939283 2.762262858682392 2.7641151653998164 -1.4178849748027516 0.10057049992591066 -0.19620859554721046
P 5.881013355728701 7.3907503195164646 10.387673738541697 1.162028071465289 0.6218238706601549 -0.3148814615007867
Ni 3.875675030093132 7.320379410372339 4.532117273174057 -0.08741030839486882 -1.1511078250083595 -1.0055610174820746
P 8.999028884263325 5.894661441888727 5.351188510753241 0.26895256017915614 0.7753917487187033 -0.6990466969990605
Ni 1.696149167188197 2.3592489225091455 6.961022603793186 -0.7124889385468954 0.6673588789774765 -1.7203816894859405
P 2.4303268899683115 0.25343109792734286 12.691907011761604 1.3718604284435212 -0.9384765651287514 -0.8674670666894093
P 2.5671240671305595 1.3748562867952268 4.609050799889611 -1.1153800325894467 -0.3941382875505857 0.4037009915383563
P 6.07079338952445 3.9475530898561577 1.9821626286803946 1.9782507381574252 -1.250774325062762 -2.2483554096631537
Ni 1.3134073371790238 5.090624496903 10.745297321909115 -0.5155128687060413 1.403867320367421 -3.048808215115543
Ni 4.463324220480333 4.365117541880993 9.81801546091268 -2.015889631556122 2.0204425410341265 1.0462091300207401
Ni 8.809555862630685 3.2229578679245963 7.850137270875847 -0.7819418911323952 -3.656234422293129 -1.2535871119212088
Ni 3.8537097053325184 5.0491964616810545 5.855638335277801 0.041870672091856916 0.34724316566094393 -0.329522094232097
Ni 2.7762551706010554 5.648512114266396 8.124181909706236 -0.17417886944068067 0.11505686646754378 0.5068909313649851
Ni 7.423070327232845 5.214024779675039 0.10451810440094936 -1.837481554525442 -0.07447020329443305 -0.23524436929343354
Ni 2.1545741471031703 6.662368614239893 5.967551711450123 -0.9961566934490392 0.5154593897602864 -0.3077155398799668
Ni 7.000063386861987 7.785288859308128 12.489688333660501 -0.907819759474843 -0.38125937470538857 -0.2881759271851424
Ni 7.963523375091204 6.050335215382735 10.73959154737473 0.5447614811585134 0.9663475805074067 -0.3106568818964779
Ni 5.115101739361778 4.7021145595869305 3.543847911145972 -3.9232139179063146 0.28135247650540574 2.3006850723048053
Ni 3.6083139530196364 3.081285709748133 11.830801157353362 -0.31346761187239564 -0.16935805101326962 0.14854651358455706
Ni 0.807991819850503 4.943323782402873 6.998726488442631 0.5580468854135099 -0.05607601705796149 -1.5400920791618316
Ni 5.446591144929519 5.2533502467496325 7.565661661218859 -3.7941211421709946 -1.3964188345091757 2.7085941883872384
Ni 8.361876308424524 1.0103677253927137 6.257895905121933 0.4211860356969972 -0.26405178044342914 0.47600761152256726
Ni 4.491783317660645 8.216882836847155 11.887786336185938 0.020889698964815635 1.30591548901128 -0.09111372538838501
Ni 1.1895697946595267 6.848259827302928 2.0732019687809724 1.63855478871612 -0.4815154287146739 0.4375909594175818
Ni 1.0447530876609172 8.887871874420116 5.338975008700833 0.3627834273883881 0.09017321585198664 2.3665413086779825
Ni 2.6676286852537756 3.535924206318096 4.615191973491679 -2.828860881190496 0.29253548970541876 -0.44803966555473157
Ni 2.452999273043964 1.6105299872763248 10.221458283774393 0.05934054674184619 2.0168923617890235 0.9268312675803392
Ni 0.597027016460347 0.7260037565223104 11.004785862848587 -0.8981035606283435 -1.105541192122154 -0.4388669979165281
Ni 6.14082007290994 8.291440275488222 1.2701874673323874 1.9316754615010474 1.1276853323193612 -0.6057439343791569
Ni 1.212781774870341 1.944447579952291 12.89215057828004 -1.1807007081741279 0.4971618770026793 0.32721787157895255
Ni 7.446254397247013 5.187314721484559 6.988105728278837 3.759860935436544 -0.9367850363589414 -1.3457704162246886
Ni 6.6729093651733 1.5349584781571095 4.615953921860121 0.18051998116736007 0.27345970402089037 -0.3291045470787042
Ni 7.208189723253217 4.9202141395797625 4.112785175361625 3.7657441336901982 0.5375068564786292 -0.14542853678086565
P 2.229968891643626 8.31747118556031 7.89538435133889 -0.12736627996251612 -0.19162817526537967 0.8706128114072426
Ni 0.3737677714475095 1.142643450698266 3.8602537161061803 -1.3172447979811701 0.9851300033212326 0.3120740739589786
P 1.4926559234402474 3.8136120561507116 8.92973158735019 0.3397088049571117 -0.554198201091381 -0.40783198298759443
Ni 2.2716481186353885 6.90168924708277 12.867014655180409 1.136780866862726 0.2246167143762583 -0.8693583701748512
P 8.64785348666108 8.204983789676962 0.1516667995954921 0.3012085919993845 -0.1555334864253515 0.5192491958200218
P 5.9230833254735105 4.148487898911533 5.462394828610525 -0.7693383434357719 -0.1738939912104102 1.6685485068647328
P 8.326662943655814 8.593800739156139 8.735697109245661 0.3272901195777847 0.6720100045962426 0.3331545487783617
Ni 7.236481359253652 2.33629743746703 13.5250849930657 -0.6812808883752074 1.837561515833758 0.30432116948643717
