# total energy = -340892.0651830931 ev
CRYSTAL
PRIMVEC
9.08999230388320 0.00000000000000 0.00000000000000

0.00000000000000 9.08999230388320 0.00000000000000

0.00000000000000 0.00000000000000 13.30412256723697

PRIMCOORD
 96 1
Ni 6.530495896319595 1.7540776336649369 11.537654523454117 -0.38573206576476143 0.050833794822415686 0.43513915544297965
Ni 4.615370869119762 0.5039364469844584 6.150588758237673 0.5854738712762111 -0.7333940641306789 -0.633523161374954
Ni 3.075053494322952 1.7265804069649842 4.925119628651082 -0.8977752307546474 0.2589154876581283 -0.46209537231684933
Ni 3.366678627211506 4.3653960809383765 4.527898782240102 0.43595985157206213 -0.3224806140042833 1.2925339254980515
Ni 4.901641996545086 4.4336437431080435 2.483839486294 1.0601517082437613 1.070718428016014 0.41476907642705985
Ni 7.2597223484023345 6.2418613708969195 2.5470340217454845 0.4568824606573422 -2.103398156091752 0.7643156934101998
Ni 5.0093493152782225 4.206121235901494 11.80316501747117 1.3350327180922104 0.3437968589835563 -0.7937118871841298
Ni 5.408699946884508 7.749909273037587 12.238209321832068 -0.0053432665897843465 0.030556018409986084 1.7224946220638853
Ni 2.1769077153756773 6.378929364750997 0.16643230497193728 -2.309106463599281 0.6122336558685585 0.04298087443690017
Ni 2.5881935068685866 1.68684805063259 0.21903881739528772 -0.0017979724406872262 -0.39336335705777414 1.3491650437285345
Ni 0.37024720326736366 0.03861883227594981 5.09679595017945 -0.17931901888072344 0.5262402824258744 -1.3051775824039908
Ni 8.9991196445068 2.1828980202997332 1.4717024769383238 -0.03472403374474665 1.7725843396314247 0.5071922646554878
Ni 6.939336479884474 0.9240340770105689 5.079354072958997 -0.2518920051524436 -0.8230463744821889 -0.7008567536246059
Ni 0.9384508047944119 7.3673205872279 2.1613874625269176 -0.5204478441138134 -0.2275907094029177 0.7419437534729029
Ni 7.8101941019546395 4.000678319985584 3.7840519865460545 0.4568752615684906 -0.5153645160536351 0.023845953379662155
Ni 7.592161546706686 3.7053444702396487 12.727708134050399 -0.3518829784258004 0.025329994124356374 0.7134291909729777
Ni 8.161758644052941 -0.19052532955647417 7.066949972749918 -1.2562746860557008 -0.5048438190279693 -0.24590699121360227
Ni 6.964297598733424 0.8056823772970545 0.6351241248212797 -0.19790346675113016 -0.8209987479245409 -1.150367090187593
Ni 1.87921046763239 6.598107259028437 9.18266476897802 -1.1798537867928003 -0.23484713385501488 -0.5561131587259067
Ni -0.15798952012601467 4.931239011465761 1.4094651176757667 1.166616976387552 -0.7045645414934962 -0.2030688130021535
Ni 6.267931468806164 2.3179480358637643 7.260205935992562 1.0453238992023095 -0.8331767780479715 -0.5715945421909575
Ni 3.4641324346330573 4.277604935329073 0.4848465541604682 -0.47158917073989753 -0.2161595847478406 -0.35188246420516817
Ni 6.0845954141577865 5.491618856622348 4.667911024599341 -0.8584502079027796 0.7677663709629616 0.5106177453972691
Ni 5.397419266443304 2.6292711820610113 9.485426960429479 -0.9198633209029384 0.6575933149502804 0.21044402242030208
P 9.168984330570277 5.720068543043243 12.446565580279328 0.689673740424593 -0.23387757085289398 0.15440862879228892
P 3.954992018698325 5.9785242940382 12.402501842617173 0.7062092761857709 0.5703704399758692 0.09190151139700302
P 2.479704448797865 8.54940136558004 1.2388986842069243 0.4746307857796987 -0.04292122484355834 0.0010173855209208284
P 6.244097509002105 7.959151805733854 5.980109588694885 2.0091255733594107 0.05529954390325315 -1.167180562200506
P 4.70350743443637 1.2020787614066506 12.651448552669711 0.09442144960537932 -0.8907808017146852 0.06943958284906104
P 3.9921791771874178 6.052971330954766 8.167826213911527 1.2059350572608845 1.2095266312668846 0.22981831318185583
P 4.942219722161148 1.04975776047736 3.7144181005510184 0.30416998862055356 -0.30031976163652796 0.5664173688653922
P 0.2552560737062367 5.704851895937219 3.5392294059988942 0.0940902915182057 -0.022963550774708835 -0.18767099038984453
Ni 1.7306618135065641 0.9289426728512217 2.779683284607826 -0.5576537637401492 -0.00786320479816065 -0.024894192138518418
Ni 1.7370429880994125 6.98963140726657 4.63228279978927 0.5387808380950463 -0.8162668896665104 -0.53103024761535
Ni 5.797915237079075 5.507980842757857 9.433022245835133 -0.12007668827963837 0.24292039778145258 -0.41148114970440747
Ni 8.644682664842488 2.156364332783316 10.29163019428518 -0.3913082743009583 1.0177480464665698 -0.8131712814603221
Ni 2.5380167493863595 5.470993664099309 6.816500686970602 -1.2162030148457958 -0.9666964792063932 -0.31571192782188207
Ni 0.5786943616375987 -0.21055785458171558 8.902227598609237 0.8660796994235794 1.2092980601958463 0.7685842388785666
Ni 1.5038119657300302 1.3472095784286149 11.295147163945133 -0.8776164964185853 -1.414718147038996 1.3615181659772486
Ni 4.109721867586454 6.790342416136071 1.4011105057551299 0.8079686542134601 0.8648622820767106 0.3999155563539951
Ni 5.727413256819626 7.9276731624075945 8.070799636127958 -1.5131808565932843 0.17191089934211037 1.2171041865038263
Ni 5.4503502915916755 2.868874289030945 4.815160718825853 -0.3756530842622047 0.7272936076598958 0.048002238910891525
Ni 1.0574569839533468 7.489017404106898 6.845356867519031 -0.8118219665212792 -0.6151629137002115 0.7945495525940768
Ni 4.975570903900693 4.326772703666277 6.981790379910743 0.4421708654787805 1.732863624003035 -0.051023285125402454
Ni 8.228424647562843 7.239688005378634 9.388519461545009 -0.6888687280247944 -1.109119910612348 0.4455927466761358
Ni 4.458904831702809 0.2327192558030327 10.416768482248012 1.2982605435691834 0.3325284851585886 -0.14692954680642437
Ni 8.062459568194997 7.244942020926591 4.562781627681777 0.2809786381057548 -0.05774132057552637 1.412409296400161
Ni 7.077658892675608 6.240506962044591 7.193312682675224 1.0667185628280016 -1.1255011801838486 -1.0211046216436286
Ni 2.3609891493924504 5.3531237339775615 2.6014612596260247 -0.81339522454567 -0.08881670182409221 -0.5113721070647903
Ni 2.179152943473161 5.054844726727235 11.352700450176785 1.1196202959230397 1.0728920386285652 1.5166901552981233
Ni 1.2044966993577868 3.303939500374127 3.858089064810003 0.006741175378575486 -0.028642603437357125 -0.5813760470577536
Ni 3.6536496840437382 2.480867967811946 2.5726977969990297 -0.04959683709152104 0.10330692502046723 0.04281349562110046
Ni 0.8387235902992553 3.3921851455983054 8.214656945229043 0.5162394624594205 0.45285122801076205 -0.8935586215701384
Ni 3.5493056624606787 2.5931384626784295 7.351712161453856 -0.19772760329489816 0.07042354402888516 -0.14300038695534728
Ni 4.27637778636891 7.049761706314565 6.08440088832262 -0.2097336266168388 -0.3781763649046906 -0.7437083015724935
Ni 0.8000156760987898 7.778660918674595 11.585323352061463 -0.5870257891443631 -1.1184039070174352 0.496141663268281
P 0.17358885590776293 5.796688088118912 8.015880629664123 -0.5588452129450892 -0.6677358027009209 -0.09815649116777933
P 8.37802774079518 1.7404517352109767 7.983604794013372 0.3622671498736019 -0.1253397364507906 0.70761129873962
P 1.752623234897336 3.2821780588139005 10.16127606874204 -0.5654102677571166 -1.0412109054752003 0.7864624047105682
P 4.170533916056763 6.192975392320938 3.6435870625703997 -0.024435507334545012 0.7188493335472845 0.5440793674898242
P 6.951771589347461 3.747758374299807 10.6164238000681 -0.23791214593358384 0.88584736896881 -0.9733396955545237
P 6.284411624841541 7.66217266738207 10.34529932680811 0.2853076044984118 -0.5819974826918364 -0.5203385722294587
P 2.392958652302775 8.803393930356924 5.684293060357953 1.487289076428187 0.21449222434774673 0.044240200765298
P 6.944708665332301 4.039374417196063 1.6833974895564572 0.08517756240960814 -0.12297329310114304 0.07884133577893519
Ni 5.4061002090874215 2.922468883617034 0.5942046154948314 -0.0387264700359204 -0.9675423721464561 -0.34143607206086357
Ni 1.4239291134195569 1.2474196429866053 7.049880785213663 0.053791591899158976 0.0734294207347445 -0.2696436727089098
Ni 7.061351446493885 0.40314752138895316 9.390409270943659 -0.31408673351363325 0.7355627896472234 -0.23947434821438116
Ni 2.6724577354664576 1.3754340045123679 9.259788808626201 0.0426304330760169 0.9076822054557143 -0.3573730550060942
Ni 6.642448241455666 2.000689124696246 2.6056653810636212 0.056080387933335675 0.31158684990991503 0.9138397404166777
Ni 3.8209419022870192 6.904903589061526 10.320233673047738 1.623512806781333 0.08943505213438145 0.6422039769784037
Ni 8.153386761146939 7.174967260220399 0.5235599223563121 0.41517582494717525 0.2272505524546796 -1.2744762966653922
Ni 7.59520669412635 4.123184146179059 8.437101782738205 0.07666026896721637 -0.21756160730168983 -0.144063538112539
Ni 3.1017689816853196 8.522722238186864 12.334704135066232 0.1516747748008936 0.13258099139423618 1.3292927302846398
Ni 9.26624724815358 4.892788344047316 10.33647839828261 -1.926671580528553 -0.16040212737156248 -1.0826943694309674
Ni 8.801912261612431 2.468969167894512 5.7693326652988 -0.4209968025043266 0.573380944667419 0.4906790974918131
Ni 3.4297449937715956 2.6186813410344185 11.52646565193512 0.4060530367103007 0.4227904040696396 -0.7474875661092675
Ni 0.8352157622716481 3.4922477808092403 12.639821543521974 1.2226228023292105 0.05540495913286587 0.44034075424857716
Ni 3.065545362379762 8.521813238957114 7.8988569778252735 0.42201341669429904 -0.6970710613299286 -0.02966513116460052
Ni 5.982251190880178 7.927436822607859 3.5477567277731836 -1.695387481434448 0.7269130843920255 1.5877559608966976
Ni 3.4896116830429635 8.389535671043822 3.4767793409165755 -0.3832440092355851 -0.4133662825422623 0.9232538346417261
Ni 3.38732199971914 4.473239749555975 9.467586032547166 1.2628402550883606 -1.0674443852504327 -0.8354979699819804
Ni 7.0734138662726735 5.833548006885294 11.554803702922591 0.8903046334092151 0.7162322076394116 -0.7791748699102194
Ni 0.44513783180804756 0.06790951445620004 0.5966634584113065 0.4785920844202919 -0.2690374065834786 -1.064887937377166
Ni 4.590118870517293 0.3645041461338001 1.5928757102609838 0.31041134154457506 -0.26464467683242165 -1.0849191449964284
Ni 6.091894677972682 5.637458693043518 0.3474367765960048 -0.8746517573633066 -0.10335706153211233 0.7079288299800389
Ni 7.748845743938778 8.71652087396967 11.872053524097812 -0.12184535014428692 -0.015777060328598633 -0.5318301178088259
Ni 0.37073715385219924 4.958381728466112 5.639870268000045 -0.800318336757054 0.6083862570980103 0.7660745850828355
Ni 8.004692667144353 8.894248403370486 2.6765764109764576 0.6501779963228157 0.05875356389012462 -0.047623001194601854
P 8.80307578062651 1.6141099322679555 3.6699816732046653 -0.918664929719463 -0.07712923818383491 0.1884153247550368
P 1.8702022852655626 3.326764471033162 1.6528378444514753 -0.612958449849725 0.047826118344343437 -0.5439628965166181
P 4.8372121311403715 0.9087328929761789 8.225606749950616 -0.48271613389099444 0.06744877767127738 1.373973618131782
P 8.716275444177636 1.655814816928908 12.595212406321968 -0.951268060466465 -0.8573454048743752 -0.5173162404633671
P 6.267995098752246 7.6792982128705685 1.4414082596084288 -0.8496264389635625 1.629330956125007 -2.0935274339452588
P 1.909452872006189 3.4369260876866248 6.072932954040087 0.39885291941743567 -0.9461734195523769 -0.3209212399369634
P 7.015137925653368 4.00634138518693 6.03871458703536 0.09350382288711638 0.727251955788683 -0.11855562364942163
P 2.293314156737526 8.540393183213213 10.323586971206288 0.17051221922237086 0.3662096794611177 -1.336313384576847
