# total energy = -340886.4354313139 ev
CRYSTAL
PRIMVEC
9.12859102367146 0.00000000000000 0.00000000000000
0.00000000000000 9.12859102367146 0.00000000000000
0.00000000000000 0.00000000000000 13.36061569527012
PRIMCOORD
 96 1
Ni 6.248337976071364 2.720520950655593 11.327758047304702 1.1216882341956618 -1.4766200267501148 0.37723585536829224
Ni 4.907859157467135 1.0896799091334135 6.196106004017418 -0.5968821131131526 -1.1613289885157354 -1.402787714149997
Ni 2.921705967974779 1.5001104896356117 4.560379340585477 0.4636177224986467 0.6800799260885707 0.9998984198796587
Ni 3.453455523029906 4.590403276424799 4.457088420422661 0.5958421018844124 0.08843849254906705 0.23774296734557118
Ni 4.075432071650205 2.9007010800555704 2.274671437025828 -0.9172104566611237 -0.3982096294064819 2.1178978923698235
Ni 5.146471397936585 4.894878301047701 2.1851290877865748 -0.26675066743183096 1.7000262657580398 2.2237201276129763
Ni 5.360226485079653 3.481215568298187 0.34717035764634124 1.9495945078733137 -0.9724462372059768 -1.1869374331124591
Ni 5.881213431331325 8.09587351104256 12.363178524320345 -0.3041190807779601 0.8508050326526959 0.8826270622592993
Ni 1.9295833109893832 6.793269216548194 0.14164925959633148 0.859218967748004 0.2750159927644167 0.06962675915920268
Ni 0.8035497010087475 0.16146925640214926 13.138041628073067 0.7286058987134161 0.3157952315643077 0.6592110530593615
Ni 8.18645651965721 9.011434675208136 7.058720427452789 1.5382005185660734 0.9094848058820918 1.6045084977646884
Ni 8.857179744282975 2.5495515695869853 1.425176624593277 0.3859069007797289 0.9143930418169866 0.48111870749688757
Ni 7.172251801013158 0.901012015810237 5.032208824236133 0.5075779301296807 0.9522543356391343 -0.5406392314600238
Ni 0.6373664402078675 7.656331853802266 1.896499471442752 0.06690267535982027 1.1765139237862898 0.32253897804604453
Ni 8.02045309209927 4.016589173985181 3.588327716658736 0.06818796983014708 0.6042465238980238 0.5596378840497136
Ni 7.862491953223134 4.031322719878967 12.838228574880125 0.2240284459729561 -0.6205974544522216 -0.963422950661444
Ni 8.417966716319123 7.020516361207381 9.265440458701558 2.130862165839975 1.2878192936312014 -0.26822776619798966
Ni 7.66818989352719 0.8011169315039804 0.31975172168191873 -1.326190180099916 -0.25280963187070654 -0.6335087631972509
Ni 1.96508440143606 7.01715703971487 9.002262266959017 1.6843893305517312 -0.7176134042576545 0.1747671378439829
Ni 0.32939881666367454 5.077687464659209 0.955056926039218 -0.05044838645853892 -0.17693972001526947 1.240644949938244
Ni 6.930791440147883 1.9634412550538534 7.17951359516341 -0.048212555149484713 1.1857904639922094 0.08785870878619707
Ni 3.5022752277634694 4.687513227613215 0.46681423574852005 -1.4786612255498601 0.40467698229838045 -1.543860287955012
Ni 6.224530610711392 5.920156000589625 4.410539909132947 -1.066223368359138 -0.47275413758227613 1.2298969673931204
Ni 5.851938039955009 3.423723702102977 8.890674370425156 -0.45108025215326836 -0.26186582853570384 -0.02701200981246961
P 0.4209275473071954 5.751048852087518 12.255358910156346 -0.6484023924796317 0.26301588297974704 0.4240474164051922
P 4.6005816554034675 6.134057145188889 12.600330190227833 -1.7359335211776104 0.49793629327485855 -1.130388075962505
P 2.671911203515311 8.653356564161246 1.1876999808457518 -1.4024524422977653 0.8023585071155342 0.9735695521771428
P 6.983189552558252 7.88283958258946 5.88386802559769 -2.9622684822510856 0.8440623146122237 -2.130778090766601
P 5.03458225789932 1.4934557467876743 12.927477896347884 0.9456149759457456 -1.2390187271887307 -1.0494047541399023
P 4.190014146036086 6.620501503050171 8.013803826405942 0.722963098605342 1.0830383830339476 -0.6223625167724443
P 5.025608852934269 1.5384870862511504 3.7949761956987595 -0.4152845826108977 -1.0234163004959407 1.121782079461049
P 0.46157898880298925 6.006083427788023 3.105902677420151 0.1728948605219345 -2.056241810120923 0.16509901862659956
Ni 0.7419189316485789 0.08318884989472058 4.519895865164309 -0.9463225435357315 -0.12745215480810307 0.5237067173707431
Ni 2.004729872202303 6.733449559644858 4.536155711475346 0.7085199265968185 0.20028816493322282 -0.4151156611332012
Ni 6.497429839022889 5.899361070263697 8.879572178036048 -2.115874948402524 0.08933863576583324 -0.1807179561107791
Ni 0.24888373107644474 2.7016977959883137 10.054504911492053 -0.2868782914196414 -1.4791165679197236 1.0454434554993093
Ni 2.6839518150604813 5.476269134027494 6.817053760430635 -0.3749069501247995 0.32517718699983994 0.28026567119913026
Ni 0.9174325253230893 0.028216474818894034 9.31959034772718 -1.125173621641101 1.1697537222443208 -1.1504251971190382
Ni 1.939926004606273 1.3078075913713536 11.314784493758077 0.21760583027606395 -0.23840065553422812 -0.11473110769700885
Ni 4.220248039468689 7.147294233185641 1.4863820016122746 0.6805329544655893 -0.4094234958444304 -0.9865389678536172
Ni 5.861714760929139 8.440870351168881 7.775317560492461 -0.4536426135638058 -0.6887160044970139 0.6197263647011779
Ni 5.325966883010643 3.275374969562748 5.2585914913264595 0.8114185604352736 -0.755804313505079 -1.1984706305630393
Ni 0.8550230871495751 7.539805389530773 6.784012825261763 0.3962648469752853 -0.2151519694189327 -0.11494219526655045
Ni 5.2874533575299205 5.074958015946544 6.661496179568026 -0.23977696705646448 0.9712442464780757 1.2804944778350142
Ni 1.0263457446903572 7.652570874305216 11.113894329928586 -1.607635216319128 -0.1725647308760254 1.5685783595269824
Ni 4.823593133832968 0.6563466066405573 10.547912558577487 -0.2860629946071977 -0.24913603967386128 -0.06989569654987317
Ni 8.49217303265778 7.065757658264139 4.501164909266254 -0.007896886249573498 1.2235216599943959 0.8201317719385552
Ni 7.83585472464936 6.2008419170345785 6.715913536310308 0.23267866544878638 -0.5017019309648778 2.005328053990192
Ni 2.449703041094891 5.338920353657039 2.3741146560769777 -0.6159977508966811 0.5256576704495269 0.9362240216491489
Ni 2.4546507374235356 5.81481206030815 11.407801184736597 1.7056857780366625 -1.6502671920570418 -0.3859349258041869
Ni 1.3609725054267527 3.129545728141903 3.836727632411531 -0.5696952682857156 0.6248636859277432 -2.3427205521093004
Ni 1.3526381018325597 0.8838977333804529 2.40338730887599 0.9662125975914392 0.7765230341096692 -0.9936017882376694
Ni 1.596170652857618 3.4054847772604826 8.001044794748108 -1.5750228296007456 1.3517824267467236 -0.40080310116527107
Ni 3.7917063343981687 3.1521755052612943 7.194597678952068 0.4071007612485247 -0.15414843315236676 -0.49625196359390017
Ni 4.448736672505544 7.460916106002827 5.697568088783093 0.025671436624175144 0.20057998514202874 0.5281444414271227
Ni 8.412663004940999 7.4488207229115835 13.29220892452451 -0.4401376370988355 -0.14627622949314162 0.43181729015859827
P 0.6587775504271222 5.710508779402073 8.05773425779334 -0.591722166178768 -1.0604532986445803 -1.9632810042214701
P 8.981282939094642 1.7963423965744438 8.146875861887155 -0.4798382981225671 -0.5434833857770383 -1.0969981876481494
P 2.286392547885569 3.5767827876055316 10.416991219138762 0.09858200874097216 0.01665997715418421 -0.19680097771557076
P 4.102461829637505 6.706693659387925 3.6188299906670998 1.0367708674259757 -2.697599894159264 0.21219571500408616
P 7.316264452822564 4.529798560694409 10.403817749448972 0.6137315805703236 -1.253207359984287 -0.7540605913410949
P 6.674926162665263 7.9927295611950395 9.998310218079684 -1.7474160678959132 0.5413869082593258 -0.0324159544368603
P 2.4370690711339242 8.526341348816667 5.619207350674757 1.2250990317838448 1.2898486653564043 0.9027958238976903
P 7.109282780210592 4.262796402176831 1.6322532345517762 0.8378338172040086 -0.4964661364872353 -0.523336221405202
Ni 3.1138993231468906 1.779071102379249 0.5252098324539439 -1.2138815658014706 -1.397886677303954 -0.8981017608561306
Ni 1.575065350437274 1.0675522045196963 6.814849205701175 -0.19323100097612528 0.44010806941248076 0.2718273106237899
Ni 7.092011486015397 0.9253470137307183 9.379726766738642 0.04847557900288425 0.6368655954846258 -0.3337065646270898
Ni 2.7643473161054506 1.7811341639480196 9.070963130058182 0.8758614614006917 0.09724092133204543 0.9515416258428259
Ni 6.375700077874409 2.137076184698041 2.2996691706537993 2.0935598298450913 0.46625310323896474 -0.04496653740836126
Ni 4.462210472839639 7.052694644525595 10.501617822117916 0.3564554282878312 0.6704675998097872 -0.6666492545049616
Ni 7.295451265314612 6.445159526886691 11.448524742101387 0.6625318899024782 -1.2310771037441508 -0.6240933834206219
Ni 8.275971483123428 4.008355184892123 8.289393250488752 -0.6031656321290193 0.27906779423628714 -0.8832330712744144
Ni 3.3836765733321945 8.653046192066828 12.511201366161435 0.8356679199009414 0.06819234070552127 0.1206533867187148
Ni 0.4842635374684541 4.983224804864349 10.164502607471578 -0.25022567319361416 1.0039543351165872 0.6539958274070092
Ni 8.97089460252269 2.6233014563750294 5.7383975378036265 -0.44523356356450416 0.5887463713798957 0.6311590320181517
Ni 3.8242406327658616 3.0263743925213467 11.828273215352281 -0.33084569813952697 0.1382232772816781 -0.4664904160607515
Ni 1.3476356339578417 3.1565846147202157 12.66042553057974 -0.28209475398806905 1.3698354275936924 0.52500795268067
Ni 3.2306174878296403 8.871840261448664 8.091909876825037 1.2225132733345396 -1.275439946130242 -0.699329518346802
Ni 6.106726143698183 8.418304474186575 3.8297807746512014 -1.3587586009542405 -0.9336531755981791 -0.6669367038383934
Ni 3.4120391056072847 8.669733256437238 3.441761797943202 -0.497133337757589 0.1277282912876252 0.10625778011867507
Ni 3.615478884906499 4.912213495379982 9.135013888895699 0.09505111276957823 -0.9006610369428747 0.4015602910462697
Ni 5.2870882138894295 4.757757735452552 10.967128495069884 -1.1151316640240665 1.1727207752924447 0.49108198935718655
Ni 8.069117610785627 0.08533315592350033 2.6345661376841574 -0.23936764743318775 -0.29635872010625086 -0.042107727803327485
Ni 4.8284039012964275 0.3697125002920148 1.718469125226162 0.26912430987033004 0.7227646094412906 -1.0747825707830587
Ni 6.3421068629492945 5.864489852596866 0.33945578538188076 0.9488319402211466 1.0945430412394377 -0.251780933495876
Ni 8.068715952781087 8.988348468538131 11.318833023872015 0.6847624191659045 0.45084422488306225 0.5415514588616479
Ni 0.6064159523808017 5.182958376212587 5.570040759482728 -0.7983807534147089 -1.0417091852678575 -0.0986966799419655
Ni 7.370543054981459 6.473175172703315 2.4879737460546876 0.6918211257848988 -0.1024296646218365 -1.3346653074504629
P 8.704084144416372 1.8830366254178719 3.6545428644252613 -0.5589701685587276 -0.6408526051568318 -0.2650915345618532
P 1.9970709843430172 3.2839923594783214 1.6717471707072153 -1.0711359751694067 0.031542036472339226 -0.7818102506505374
P 4.834100142088078 1.4726973308257962 8.251636485202946 0.6987965286614675 0.22966173299933348 1.2956148784162203
P 8.772229076322889 1.9035029264673577 12.048897567232073 -0.4415993092460266 -0.6912346571538095 0.7890962427889894
P 6.519749244047863 8.153602720604088 1.2507803704586673 0.8841530119855225 -0.5680086246119121 0.13802967321363324
P 2.0147713223157884 3.432669721294991 5.749861222396822 1.2849818241824065 -0.16778350743729814 1.9474471225130072
P 7.213047474246945 4.391326963629444 5.8605134383519255 0.23359474950515255 -1.7959518107127717 -0.6751886594345404
P 2.7940608798503552 8.579570163009153 10.442777663030196 0.5172887296595414 0.9811414509871297 -1.249102593787294
