# total energy = -340896.16196469107 ev
CRYSTAL
PRIMVEC
9.02590118893191 0.00000000000000 0.00000000000000

0.00000000000000 9.02590118893191 0.00000000000000

0.00000000000000 0.00000000000000 13.21031874208053

PRIMCOORD
 96 1
Ni 6.2968656771848535 1.6408726981805872 11.313976831884828 0.20839665297297016 1.2589015821555867 -0.37401092067309133
Ni 4.578442437612995 0.48599963934043494 5.950310792752508 0.3146004399252582 -0.5571837660822663 -0.2932834236150368
Ni 2.7257950242713966 1.634292816351649 4.75563531568293 -0.07158593976810251 -0.48733203539645104 0.5536014480476467
Ni 3.475883500968351 4.380053133634858 4.709676330381462 -0.36731371115857386 0.16806452901282667 0.399503408517241
Ni 5.0051599591859866 4.609969909805699 2.6272285749919226 0.08873751184672458 -0.3334060026675355 -0.29815437855409294
Ni 6.959439017786629 6.091084160287786 2.5488124496947586 0.9040122128032948 -0.4092286062248049 0.2215712426817152
Ni 5.115573806117949 4.416860757912512 11.421852595455615 -0.01899531015558019 0.5223903125521648 0.5490536807759641
Ni 5.507415246227269 8.137725263820561 12.259201677839549 0.14535500323045292 -0.6196515455991846 0.8809743571472247
Ni 1.619508390513788 6.508162019592868 0.5285188537708355 0.7284984266012745 -0.33950465936610563 -0.04200874033161798
Ni 2.6531004176180795 1.4619883662632676 0.3450141631316592 -0.11713328938059826 0.2381029217881512 -0.06207414362292535
Ni 0.4122706644325275 0.21602591453197087 4.9530371860916755 1.3328117991814918 -1.0632923107552719 0.11346406805912718
Ni 8.629537583404941 2.291441590452476 1.587220034866791 0.7820899866744854 0.1718129403116654 -1.5167300073971233
Ni 7.093870787279367 0.844658257013666 4.813285550549589 -1.2773119663419743 -0.4416340191387039 -0.44554055328196174
Ni 0.8504601061764115 7.4671549749328605 2.6842704641311865 0.11088679425025419 -0.37399163739938174 0.3803191222793063
Ni 7.641625641261221 3.860495194376738 3.8845077013969127 -0.04647474652277158 0.001389167038042769 -0.3410082404948256
Ni 7.641409019637223 3.723779871931022 12.713214426626385 0.3432939512052087 -0.2573509713844858 -0.7447508839043948
Ni 7.779622641648925 8.940163966317025 6.99565634813889 0.5539032955587816 -0.6942199650343787 -0.04120295660087098
Ni 6.904552513806145 0.8095141062902962 0.27360845514112997 0.2190631315478808 -0.594477360326402 0.8414446744837185
Ni 1.9951663901302592 6.588673056512112 8.942117171293406 -0.2508972453393421 -0.028838521498247106 0.8226249706740542
Ni -0.10465351691381698 4.760007462127288 1.5523710311061185 0.6340810907609532 0.2472604199177032 0.1624772647330363
Ni 6.397612784145907 1.8895001671242517 6.887860012496901 -0.4535580242697995 1.2222793029468626 0.7032455655717565
Ni 3.3326785557036955 4.1101335642323935 0.34334256626647497 0.05547617869043349 0.4068637055370541 0.06455705794577915
Ni 5.913156573876457 5.656144042903872 4.859217458148057 -0.08995030120790315 0.01800183589405932 -0.3186033904370642
Ni 5.3943207066983305 3.0416564297634294 9.125278877694585 -0.14788342607926144 -0.7876433123925467 0.41458215722723435
P 0.15689633449142626 5.504238129075298 12.486551487766013 -0.13503999445769002 -1.8665645879343271 -0.6533731062213457
P 3.841324180652918 6.038399976151282 12.643067831825341 0.6206619891415699 -0.08459675020547366 -0.19923272708551495
P 2.3628545191638057 8.448035740197646 1.4746146991720488 0.843376858509425 0.6035921781434765 -0.1886071290508687
P 6.403732345023849 7.783693322999887 5.8084055772318415 -2.0171774971296097 -0.2577734036338851 0.3858318245674193
P 4.545371536349306 1.1089583004535835 12.460751852347855 0.04777006829542741 -0.9547850724807878 0.6923939675692333
P 4.077288310493702 6.291729939515902 8.14330236804841 0.024491814493777173 -1.020433563718533 -0.040876169389071536
P 4.697349657385877 1.2051021979046803 3.7351254294879155 0.4069313255501959 -1.717767906012177 -0.6359227719553823
P 0.019649386476815432 5.701490169527446 3.706775977037282 0.35407355831921605 -1.7401488448105384 -1.1311030997516585
Ni 1.6187953443347947 1.1676086051510326 2.6605711558757092 -0.5053151022374329 -0.4312683596336637 -0.18121315057964274
Ni 1.6820488585422004 6.486310313272074 4.8597328370951525 1.4232701503740648 -0.07858011169774855 -0.8909070428799043
Ni 6.098205596176719 5.457447858291738 9.354821078973929 -0.04275847401344894 0.43964347107123636 -0.6419005868053719
Ni 8.722170405367072 2.284329180464543 10.238340352742732 0.000757189880998696 0.07903853939140582 0.25422502416099446
Ni 2.450875105714979 5.2350496576538275 6.909723452488997 -0.38033480600859015 -0.23448357986800905 0.27105340857224286
Ni 0.5962239423513996 8.764086689610679 8.861495115791863 0.6671629609165864 0.3998281388465114 0.7348487942993345
Ni 1.5844698428321171 1.0499469597161377 11.312827834687539 -1.0449441472653875 -0.3219093148818456 1.5851704595577085
Ni 3.9999273130234285 6.947958071714737 1.4109144028651472 0.7792445468058903 0.3007763895579723 0.6531987854270106
Ni 5.865517868398905 7.618844267137436 8.036034950205018 -0.6037263897284958 0.48077906476928167 -0.05391551907153295
Ni 5.251332383057673 2.8860047670198914 4.798622071785126 0.7552376423683316 0.6863963552249017 0.6429100019064927
Ni 0.5608261638099321 7.420536196268299 6.69010161899866 0.1746712356960669 -0.42619120222107243 1.0697236682029123
Ni 5.198639173020168 4.56833342849309 7.165382098311595 -0.6482756370937802 0.1953868709768635 -0.19788109815362695
Ni 8.169460331736262 7.101777476555292 9.226826582074333 -0.6404862229563486 -0.7085016717643734 -0.15478066741972699
Ni 4.282401910716775 0.2069485658963561 10.25546068175937 1.1880658902899475 -0.19359172674965366 -0.009239002099764733
Ni 8.00052254272085 7.239846684150996 4.629279019814817 0.7952964580624302 0.6979354662127528 -0.1965901472563453
Ni 7.288866352481535 5.879435807740774 7.057057747461113 0.3651987216981001 0.5352800240306393 -0.15254509322098891
Ni 2.28681130323952 5.251305305354674 2.548878338772058 -0.08994798721505799 -0.15993778614063422 -0.23404649233059047
Ni 2.1874180814284534 5.2949996920952636 11.427269038645663 0.5154161952271767 -0.056724706385553915 -0.12590332226374448
Ni 1.115511104579522 3.529506378808847 3.8061565625869482 -0.5466496993201617 -0.09197530205773193 -0.6958153345459565
Ni 3.5245331073578936 2.7494428848911747 2.6516680071293925 0.2812699440939285 0.1525954868429501 -0.47449220331930536
Ni 1.1757228901499563 3.379703499913254 8.148969731286256 -0.5278166257740587 0.31087002634854843 -0.017620541295240624
Ni 3.505587741159072 2.9221264228215524 7.208923947325286 0.1464441225295736 -0.6781482562834966 -0.24799087032582454
Ni 4.034153529615107 6.85717555945759 5.9608395062689095 0.6545658409778663 0.5750724734372289 -0.5998010865321606
Ni 0.6782052985435295 7.343175198798026 11.546571592882342 0.33599201822715685 0.4486148213319112 -0.850493157839232
P 0.2844214845390284 5.5801730341875855 7.9825727334023195 -0.080412536920797 -0.24133505557220372 -0.5301010509328612
P 8.692457139275351 1.507370596490841 8.071200763090786 -0.6090876540404091 1.6686649778379392 0.6742324661688582
P 1.8831459328203113 3.26094069455637 10.273611768670198 -0.6932581153417415 0.3387112169305328 0.072158781552437
P 3.91351333685024 6.207473153681693 3.6782153185032502 0.6530676591657849 0.5713996525713321 0.15834807305601117
P 6.968103882746548 3.76659874627462 10.521688657652868 0.3021128489812087 0.16262664582670702 -0.03837834266788229
P 6.3131664543907 7.698479791659688 10.271089029340724 -1.301226825286359 -0.13175900971357307 -0.9811486500759812
P 2.4035162031684236 8.43280001930979 5.82766594737556 -0.4807410124424946 0.7460510907730571 -0.37193938285604333
P 6.880399202730372 3.887879778010481 1.59587226356531 -0.18298258377523968 0.559762839663352 0.5545998074051739
Ni 5.342466905453818 2.7827665113828615 0.5108208670902018 -0.40957519093094624 0.32597705719331604 -0.34376703418688537
Ni 1.5600006252213467 1.1517139934901819 7.092765114406877 0.6947431845277002 -0.22568372218819194 -1.6553096395769558
Ni 6.789156369522229 0.7415806624144342 9.1026229635947 -0.4180006959904801 -0.04309348875536449 0.14388356089124898
Ni 2.4645132421258507 1.4069664737677843 9.250287606543411 1.059762957445775 0.5037498146328421 -1.30088075480085
Ni 6.5584543399643955 1.956986828900618 2.5784165023843806 -1.2304543825584873 -0.42279426072438153 0.8481642525957392
Ni 4.1884152036046585 6.607753811225932 10.424248640818185 0.05982648523932922 1.1145917323601966 0.3265866657528569
Ni 8.130089351574632 6.9732757240195 0.3786446702573434 0.0865081082955736 0.8984226345306592 0.45133530558686785
Ni 7.7128219483485525 3.728653858470976 8.456017344451872 0.21088702349499164 -0.31092376240461933 -1.287074445045377
Ni 2.993367859413883 8.127995342542652 12.415294707141982 0.3952996548485386 0.38255161115425085 0.2795920421708733
Ni 0.1973991626384458 4.989635409466132 10.071520040101896 -0.3424951094529972 -0.7000183168837106 0.7984712562459861
Ni 8.71280152012916 2.432001946724156 6.001223192522731 -0.17628640270198673 -0.02153581718924678 -0.18359553476889023
Ni 3.6846616169973894 2.639967731663203 11.281136091096634 -0.3634388015841999 -0.11179259389397521 -0.15573094714813823
Ni 1.1918702270388046 3.3219918889197966 12.434080314893107 -1.028715344111351 -0.1949353852617417 0.33897578344582907
Ni 3.3585828915734526 8.388618233915206 7.822978557102019 -0.25751937864155006 0.5155483499296669 0.9833613414565839
Ni 5.715236616750317 7.972244394888117 3.574276652948627 -0.5767110374819164 0.5037971229310098 0.06414953809471534
Ni 3.205864646654887 8.309163227412952 3.660671674729715 -0.05726540938037235 0.3422724519192299 0.04125412155378056
Ni 3.5252371276358874 4.469860848584014 9.342284102485047 -0.4694458991446496 -0.016246543765849438 -0.2861768944772426
Ni 7.088247650956419 6.072662296346959 11.515117230487737 0.9848014163372201 -0.4135591152793588 -0.21921199842091924
Ni 0.5763254410069866 9.021162401890264 0.3937296585985017 -0.5683973754098985 -0.21176017012856432 -0.21626834241156304
Ni 4.61938392454861 0.5897785464473602 1.5058046026673557 0.3606450408891467 -1.2209950369178004 0.5504600742051874
Ni 5.908255509633503 5.473938179418583 0.3070015810705163 -0.6419273262782493 0.4687918105004184 0.48401788342155344
Ni 7.897807789341815 8.740285388673902 11.11559745639779 0.8460178956766978 1.1132907541605859 0.9421306169415711
Ni 0.13820459611070182 4.771741133427179 5.855856543968596 -0.22671164923207404 0.5978555327700155 -0.023329161644243694
Ni 8.068478551349212 8.829632782672062 2.4422842531432596 -0.27146812751215826 1.0354470064082295 0.5284581160127996
P 8.756098767225753 1.7267721979967805 3.671345705252215 -1.2371269094826565 0.14422191806727422 0.16673218335464834
P 1.6734110712852817 3.1851321520580815 1.521234380426711 0.40603066811279753 0.41604511492600604 -0.12069992368593406
P 4.626586593546542 1.2497172265472614 8.158362083866768 0.023333789629934005 -0.8626747875070885 0.019105610481199353
P 8.63608136162988 1.5553161826023907 12.418571109204953 0.17124164118922766 0.21725230359138714 -0.5023521629543671
P 6.49844112421596 7.868446533389091 1.388140249462161 -2.20776231873214 0.48655864756553624 -0.47091734148385345
P 1.8419787983596982 3.324140053357776 5.798378703811036 0.2609494873690215 -0.21685172571885877 1.7795612851698899
P 6.895725182628229 3.9116269235412577 6.0122934600991265 0.6694782393133244 -0.013034978807087228 -0.15412786432707648
P 2.3074174352223262 8.27750036670525 10.299371690123957 -0.131224991586974 0.09566432087354491 -0.7097268024207262
