# total energy = -340868.65275875985 ev
CRYSTAL
PRIMVEC
9.23781753516595 0.00000000000000 0.00000000000000

0.00000000000000 9.23781753516595 0.00000000000000

0.00000000000000 0.00000000000000 13.52047973561858

PRIMCOORD
 96 1
Ni 3.63042529537247 0.5554339340657275 10.08539917906487 -2.067606086093807 -0.6229433289765788 0.11124880557536324
Ni 0.18272587616038466 6.497686780104104 13.255504956106668 -0.6672673477049347 0.255143936430838 0.4169154333461013
Ni 8.914881800061167 1.5773573247179342 12.906595363442547 -0.1682956711870263 0.694196825105927 -0.6081188623692365
Ni 1.3533494900644336 6.400458751743012 6.087717985629216 0.5092288354695423 -0.27581200630315084 -0.9570612701094743
Ni 4.864126574193878 8.085131801446295 8.50228577031161 -0.7618116960414235 -0.38103466028909216 -1.0021378507331387
Ni 7.539601731438138 2.6268288107027398 9.871896590383077 0.16312955360505454 0.7295482080220274 1.2014263707572534
Ni 2.711946060424269 8.471355710021008 7.856304597444008 -0.08884421262791795 -0.08701101607392112 -0.16180543547699233
Ni 8.662486152471455 2.9846187172541327 1.4899703432559472 -2.5167526115594723 -1.8235716293125692 1.078249960506369
Ni 6.242335030939517 6.314584000992922 8.543172350219088 0.4643391740457036 -2.1569547491619696 -0.7948627129591214
Ni 4.255807059171912 2.8039362463073796 10.191643317229328 -0.4657306550765915 1.0467701447305326 0.07175537546643126
Ni 9.106270901399418 4.0193558844516755 11.384216909108558 -0.7534656380695732 -0.7014864167888047 0.22823322808292307
Ni 6.997655934589515 8.48658887094903 7.0752397442038255 0.16936756409496637 -0.1406480846730868 0.5964383407075148
Ni 5.866097202997427 0.8217629816722603 9.39073008947735 1.2632644871099725 0.6962817326594137 -0.11690986051588252
Ni 1.2349206707210432 3.97136542294708 6.288131510806511 -2.375140877421535 -0.6678309335178885 -1.1253926796304423
Ni 8.002185438818815 3.998459941444285 5.579955808367043 0.29586455407865175 0.9942000839433007 -1.636085758350337
Ni 8.211800753929646 6.4084402259951725 6.996631460637473 0.6786465360761538 -0.3938384969219798 -0.5224185946869391
Ni 6.311535521243833 6.339544583665765 10.961593228547983 0.9938308735293401 -2.4780058298085774 -1.4984936868947547
Ni 1.5923225889407338 8.389573312388633 0.48232122808341366 -1.16518924280209 0.8494325777852015 2.2818183173072897
Ni 1.112270168816036 8.387698035452072 11.697608017568825 -0.8039505341930027 0.4618763143275077 -1.4465982835770441
Ni 3.020285930318472 2.4267376853534546 5.793133225875598 1.2921207492200328 -0.6383398660373071 1.3915396520400034
Ni 0.23565025594979322 0.21171599479247727 4.541325824908087 -1.0202255614727849 0.22710888467049273 0.7665170719368928
Ni 8.341629039971146 5.756120986594691 1.7631113574290802 -0.16446986968303287 -1.4889677496821905 -0.061252676162894516
Ni 6.229217330201014 2.0002276550036626 7.044737394859837 0.17019828752637786 -1.5300305811607713 -0.19756408113384039
Ni 2.4236060652475726 6.0471399488236175 0.35897696609005303 0.8804735062514062 -0.1498768023602064 -0.7115713118286325
P 6.561972751540193 0.4866694687437049 5.4785929329280965 -0.7042958612131419 0.4576553342676247 -2.4578046722703544
P 3.31150812453067 6.858820776562073 10.787585080688249 0.15329225579965858 1.1055136813183284 0.6435805456109561
P 3.850479344169576 3.087989894200508 1.1319956803561249 -0.5304172966216995 -0.290796395527125 -0.555334114468037
P 4.275622177540989 1.8377898734643352 8.263987955888823 -1.0452043429053095 -0.10229236771302383 -0.15891731529591985
P 2.372992063595276 0.40351525522424087 5.2902800247912 -0.08587613113852952 -0.9416482779885137 0.37075101897489693
P 2.053899374222469 3.4325235327520756 4.299079767319356 -1.8514385309261663 0.7497010288208185 -1.4519312657541834
P 5.528556592233921 0.17600998289496772 1.8932592719533619 -0.8868544700770855 -0.5270838613730923 -0.4343657676120648
P 2.0658161586961796 1.1743760153406546 12.40620311691923 -0.1642952917783816 -1.2393910229264848 -1.4321342856329142
Ni 1.2425418700937652 6.267581985952426 8.480869738183392 1.1907128409944914 0.7246415147490294 -0.41681258921964986
Ni 1.8432678991952736 8.73653649692205 3.0831696010699794 -0.1131496221425019 0.038030472410160304 -0.4821402067828664
Ni 8.622929818272672 8.022028270640156 2.762017802193924 0.21558082942623516 -0.844844444193887 -0.25956906208172714
Ni 4.133276648893383 2.714292466049325 3.269428018612339 -0.9876879938563958 1.4508483171026496 -0.1358403788717983
Ni 6.076682488937514 3.270021086490798 1.5166463886239587 0.4098538985136297 1.5446609294794365 1.046486294941527
Ni 1.5785859544349912 2.2085958647625947 0.610284398787515 1.2711426043064689 -0.4512805410895325 -1.3528980284084053
Ni 7.6790465854153975 0.41442881272597887 11.025423775585192 0.8640215313429699 -1.6234955803901525 0.34727967532583415
Ni 3.9815824490152383 5.19011067536311 9.586236486040354 -0.033801264820161145 1.6540163746868288 2.100221301025667
Ni 5.502117958773641 3.213947534742406 12.075843061637443 0.9009847388308806 -0.35052132219158344 0.5884288401394769
Ni 1.9375398259814904 4.298522726928841 1.940350893822847 1.3618146141717449 0.1540083080300767 1.7345728933846578
Ni 0.5332622484724302 4.181479580198673 13.72233990706471 0.2081948213748092 2.6877975633568614 -3.41520918465186
Ni 6.604965553819766 1.4071782521794052 0.4692192316345267 0.837504715999364 -0.7492369447002064 -1.1763066928714903
Ni 0.5974964881309583 1.506918966879139 10.580438110392437 1.094575951359902 0.5060941464953026 1.3150696447067223
Ni 1.4188548534001577 5.852628465196906 11.386421052345321 1.1544741703774313 -0.161854800657689 -0.9251194270955551
Ni 8.332677594889729 8.707511274583757 0.329335581329746 0.02808904492673227 -0.3680148509906565 -0.02956254414846522
Ni 4.009748554333335 5.038822939451511 12.221621363238869 1.9514873540206519 2.997437316842735 -0.9770945346112655
Ni 8.995066055279626 7.114671367867419 9.813285410189007 -1.8064365122941792 1.3576861938256681 1.2677436059272489
Ni 0.5597609277459493 8.34596157634182 7.115625634407058 -1.749725175645064 -0.3842403117105834 0.10720831695740246
Ni 8.842337219850275 4.639241146885336 8.756052310006671 1.4325402628220811 -0.35820017889307987 1.1630505991925324
Ni 5.2317178050294615 8.158165985980526 10.894477713635695 -1.3990830116049 1.4437561861425585 -0.07807488992655585
Ni 4.554622739304568 5.081741839191713 1.9087400063882802 -0.45213877532476976 0.5305214262997314 -0.10725279704209272
Ni 7.058025071438896 3.9885754768033 7.652766842414768 0.14212286944640037 1.366101414472557 0.488145789546998
Ni 2.3776017344885956 6.57025907376726 3.676109997648663 0.2230506554407191 -0.6939631118285661 -0.01638332645402985
Ni 0.807960758662825 1.3152434932008232 6.596573920474093 1.1459198530495167 -0.4206625590933594 -0.6743368529572064
P 1.559740806895169 4.014413652131183 9.95707573348133 0.3422454553360364 0.6553775382458842 0.06699780617678784
P 1.0920393486629918 6.466472195036918 1.9743414430251875 -0.09810995420056005 0.6162350637184677 -0.08610315954767106
P 7.973769912430338 7.385117710698706 11.978157761313987 0.43674558069815106 0.7789193022559876 -0.38031372296266763
P 4.0449631143440214 6.034853651653047 6.9083835145918036 -0.6847709038063368 0.9498089594224352 1.404833283825116
P 6.312819577865419 4.264693839531376 9.723739550795617 -1.242318223875609 1.7650065272841668 0.49262516547459034
P 7.577522971953319 4.1636598303926355 3.1835994569493558 -0.483334998421916 -0.5261083848337003 -0.855409878414559
P 0.12077152984147807 0.7601873858676343 1.892947957506258 -0.33758404530462505 -0.16346816789139587 0.03221592261091226
P 1.1765191889824385 9.243544868282632 9.16915641971441 1.6712170548358315e-05 -0.8104952772900558 -0.18055700505288258
Ni 3.2379473844034146 0.7558908769849034 1.7587169276816816 1.2865036601435715 0.18334742331382617 -1.882194324051784
Ni 6.13415095111655 8.136457115040045 3.6287209180582063 -1.2111513113545014 0.33539320830089336 2.0189980952781164
Ni 4.371113496226841 0.5249556030470341 6.6310919490512 0.5883213680273351 -0.5904245304132669 -0.8853205499310622
Ni 2.5630693948596757 3.574453359615714 12.341250175065312 -2.116308693505833 -2.6472831481825825 -0.43881300475014107
Ni 7.301995829540217 0.798288763822534 3.0226388024157234 0.5345444314161955 0.13891001893605753 -0.6433386048034792
Ni 8.488057683919045 1.079623722048521 8.637679841349552 0.17808257537046104 -1.5534523025188216 -1.7427975952872954
Ni 2.599882097284279 4.571296999750341 7.828168053141661 0.8337971852407899 0.15945133342251896 0.38866980823684677
Ni 6.447488480235775 6.97174385672226 1.707731565769042 -1.1863648484384408 0.04346038517647999 -0.6502091066710672
Ni 4.007300532716642 0.49070454739340796 3.853715351612321 1.2875189887819634 -0.6443817013560128 1.0912119199836756
Ni 1.6046735508332541 2.4149964194107523 8.516617320259297 0.42463234237438485 -0.10961692639889509 0.13757433084376952
Ni 5.878826915404228 6.576134325647323 5.849121789703712 -1.2532528685102415 -0.11120869636604717 1.2499821681787697
Ni 7.160629509539289 5.983768521312255 4.182438465647023 1.3571025534080563 0.5194294301516279 -1.383492870476127
Ni 8.702938554960122 2.4911806996857084 3.776824378304621 1.6822735697603093 -0.28712357466122806 1.0944191140670636
Ni 6.785666500401362 5.708047384733303 13.013827024289359 -0.06651289612056932 0.3964949607082203 2.0543937011685904
Ni 3.90875149646428 7.704081070627613 1.7914095635363039 0.22093489464929691 -0.13644047434964243 0.6774491733339429
Ni 1.666603878826865 2.0733726933469514 2.7228762459973654 -0.6212019208054399 -0.5141447847139209 3.415023293893299
Ni 3.3583438588575807 4.86345221352211 5.062107782044096 1.7937548030614527 0.8851554851081078 0.4829727299864908
Ni 4.2373037108766844 1.312509099244065 13.221785074954777 -0.140778439603364 1.0640142765229612 -0.8539808592775163
Ni 0.35289571088149185 4.973705564447489 3.8589337946737157 0.5180875714117529 0.18794121333209568 0.2729375129688332
Ni 3.3185658170406818 8.357915312085217 12.63077815356241 1.81515975109979 -0.824584151282954 -1.033490396902491
Ni 4.831341560165041 3.960547938746526 7.983018815232725 -0.1178709388775712 -0.9204891274123953 -1.7763957429577149
Ni 6.047500223703055 8.395014386849885 13.238374347480272 -1.0790691139735544 -0.4614572245122182 -0.487566005784128
Ni 6.286889024363322 2.509102065483382 4.193389898200189 -0.16778582143014328 -0.09238205057784735 0.2658775207982582
Ni 3.755302111276054 7.877844416325677 5.348999287449105 -0.40552750322413383 -1.4826153251016014 0.4656602068499722
P 8.740240861708063 2.7608048767664832 7.136798711937093 -0.2511448425737739 0.8345865139113047 1.4710746714518537
P 5.832212888695433 3.8123363960362795 5.7867110952041845 -1.5107799604612755 1.176493869181632 0.613418420205279
P 4.6562294931234405 6.5171046723240575 0.1394624058303612 0.9175184748198456 0.2514706013443088 -0.2547145622029033
P 8.846364908246041 7.348563667161905 4.86610161955859 0.45205829979582146 -1.0349428130783016 1.5061128940029094
P 7.369025432750486 3.7190436778967397 13.048033738419361 1.8887606644153925 -1.7437378477133776 0.6244821342186084
P 4.626428294121742 6.342528398692904 3.680410201658363 0.4631220138091508 0.741704126658271 0.7187817135341428
P 5.766208683218949 0.9574166353797446 11.656072942878362 -1.1367222457106487 0.8489597519138411 0.6079985347412883
P 7.037683397476794 8.139644162050455 9.251523571189564 0.45273552836850417 0.443045811884566 0.4416677005901168
