# total energy = -340887.93722337164 ev
CRYSTAL
PRIMVEC
9.10888199929459 0.00000000000000 0.00000000000000
0.00000000000000 9.10888199929459 0.00000000000000
0.00000000000000 0.00000000000000 13.33176954586900
PRIMCOORD
 96 1
Ni 6.6481082780551946 1.957107018435464 11.448230298171671 -0.8916050973881935 1.0657891090351967 -0.13256556477526846
Ni 4.812094734363775 0.4143584789656378 6.195899662516372 -1.2999847253491417 -1.7616139566628501 -0.9887586012127552
Ni 2.844576264022756 1.6119532689995295 4.841019077654149 -0.6734644776545821 -0.6528048924227016 -0.514966509284268
Ni 3.2205544694940333 4.214287930243355 4.836139449670067 0.1636049505795763 0.48429247723917884 -0.5817352301693853
Ni 4.983095772529108 4.584126749376623 2.909885124803548 0.4464934041135342 0.5823191276973133 -0.20929653907942017
Ni 7.3772651578344925 6.257255268592867 2.827535367937969 -0.36106053116001047 0.264657275237912 -2.955224173809794
Ni 5.348152428713631 4.3539726327557595 11.491318952672142 -0.6972322694981411 0.06218341550728001 0.4353091053619407
Ni 5.76888257050336 7.95171678900142 12.539302180800211 -0.03134997506619117 -0.7470376230560425 -0.33282107669834293
Ni 2.14329256257329 6.25880377850008 0.46225753394845376 -1.8621484611445027 1.5970330153232497 -1.428570993761688
Ni 2.915771284227318 1.810581545685901 0.31349947426796204 -0.907234062174702 -0.19951863375704992 0.5867403966934605
Ni 0.5542654381941371 -0.12384344616161784 5.0223304591369775 0.037212090273923006 -0.9734605374031042 0.030953253848404753
Ni 8.640002116112104 2.621208264348208 1.670683695339209 -0.20203857196542624 -0.1997592890129463 -0.3132511249862153
Ni 6.94755365858293 0.6472561907868102 4.8892533394874675 -0.5203483424214715 -0.2855228058330115 -0.44621032565547664
Ni 0.65735520804638 7.531159715966027 2.4471530181129424 -0.08316695973748259 -0.14612299174472898 -0.06164476939499062
Ni 7.398279348163551 4.218623757983551 3.8497085794655255 1.2907313250716739 -2.0731758668721003 0.3164740027988872
Ni 7.611099262705438 4.011742834379915 12.772115180020577 0.16497946232959976 -0.09260882187667276 0.06491084174077208
Ni 8.466332175577282 8.473036312587332 7.107312514821897 -0.5614379133729298 0.5036672822213648 0.04031515467927896
Ni 6.758225550221642 0.837027901692105 0.25598235098499295 0.8015210988159035 -0.13586660412404344 0.5941168916631897
Ni 1.7200119338775641 6.424166418826797 9.428000550589127 1.3932203821765359 1.370136246663563 -1.3959809756408088
Ni 9.256718958864136 5.244384047166757 1.2111005290893297 -0.9452768758800365 -0.9217052592076836 0.17970391302396793
Ni 6.245614117643349 2.0321277689990227 6.774938526561372 0.6873137248328485 0.7927474663883315 2.1754083278814664
Ni 3.610797183875283 4.541333222646706 0.7759747104916063 0.09378535868327718 -1.252092015432921 -0.16214790641807558
Ni 5.975216961198567 5.6896626254267115 4.927568939920998 -1.2312637658336603 1.3764174516865844 0.4738340009100162
Ni 5.341994824612008 2.9506491926668357 9.433039584004836 -0.7697443206249388 -0.7910448818749279 -1.073663369576951
P 0.01671844166881438 5.945968341715858 12.36577616059794 0.896118926098147 -2.6070736658432323 -0.5722085216258725
P 3.967692281960614 5.850753200185883 12.369601890956938 -0.1225986833705437 0.3883160244418538 1.5156064353156415
P 2.284179637484237 8.579027261295147 1.228041227474238 -0.41595024121935464 -0.6424528597644161 0.12310519069331702
P 6.509389117014346 7.858696887986964 5.9104664748725515 -1.1031976315906418 0.024303866852687178 1.0922575876393708
P 4.764856073311976 0.9343253336031911 12.597895063024604 1.318354228995265 1.2411681694315657 -0.19096714464261305
P 3.9809912493990303 6.343971823396786 8.139632109794421 0.045038528296877274 -0.380638453291938 1.6530758651504307
P 4.592406722939308 0.911935702121255 3.6668368465291348 0.6810024379028401 0.13116714176584507 0.25814518515100704
P 0.25000601363133207 5.63547388755607 3.8031667478719724 -0.3856456766985423 -1.2758639210415381 -2.043948337465551
Ni 1.365995242443288 0.8924909721275653 2.588962822750952 -0.21618555288976965 0.9142156356988578 -0.28376828503574997
Ni 1.934516991553771 6.283998945578614 4.862682731256057 -0.5963270119406311 1.2012787894357957 -0.10477219671208407
Ni 6.1155757209647 5.496572548879079 9.140727368820269 -0.7222904980183497 0.11718779676761754 0.044098790091427274
Ni 8.87978432080311 2.324522875008035 10.141130352828773 -0.23557347049807817 -0.38699396319632057 -0.40240721242759725
Ni 2.5195349256169743 5.086344947812975 6.984807163397747 -0.865917205703786 -1.1825621868628988 0.8234670069593752
Ni 0.9279764429836185 8.945996782659169 9.05988422100559 -0.4860459695951758 0.382963758991005 0.48917860168688654
Ni 1.313263925661787 1.4313150338822482 11.715598751415584 0.5639719926486932 -1.586852475245822 -0.17957561497621977
Ni 4.1868701960038806 6.843174981954977 1.1995377145233532 1.0246170056722612 1.8528660074013121 1.2535565157935895
Ni 5.707798409104717 7.851837899986192 8.298173108535774 0.16417933502580756 0.4230125473827747 -0.690381822235211
Ni 5.08674573861249 2.836615101323321 4.796943931253968 0.9111074290871792 -0.3012600140626102 -0.06684353998711069
Ni 1.6143306871511915 7.1986582033602025 7.067224325988699 -1.0531081711334185 1.2396710160607487 0.1666830752842678
Ni 4.97599995360135 4.584664173403245 7.221939594371056 -0.2732059361388714 -0.25974209732448167 -0.255122082053967
Ni 8.425688344953848 7.13738275544361 9.44673205513732 -0.5160168049256532 0.17253567741030285 -0.329995948544722
Ni 5.012945578211087 0.2746336973732812 10.521712187165377 -1.4657841124768756 -0.17638950393875427 -0.6607948526067136
Ni 8.106003029050662 6.9521536438955325 4.821821198357433 0.599058037718549 1.8264278678144414 1.4507035639946693
Ni 7.374140811374645 6.179747793295961 7.2430967941444875 -0.392569143291253 0.01947019290946969 -0.6301881834644502
Ni 2.0841394841177596 5.236951199612135 2.690377469238863 1.1668892562123323 0.24031612738938615 -0.20592916526908406
Ni 1.9852898987467378 5.429257912324355 11.385824438022814 0.8896477165515065 0.020509175696945325 1.0999968652651573
Ni 1.1362783521491666 3.191032583557111 3.5765541644977232 -0.9609045551149645 -0.15769424152209618 0.9394875228917692
Ni 3.588717254374789 2.7479947902217106 2.673166237064283 -0.5459459883849178 -0.7313353818294372 -0.24155282800996464
Ni 1.248153638504391 3.26697333118319 8.169988369304876 -1.0636545791906973 0.8241570910478645 0.6171411204725049
Ni 3.5296552647373303 2.6568604277413317 6.856156049418324 1.0391673926826104 0.2050400777959114 1.1085429550629553
Ni 3.9230496522238485 6.736865222383911 5.988630700547752 1.3101714360741565 1.780458857283495 -0.07384131146118252
Ni 0.7618495674732831 7.696504138529129 11.40534203907096 0.6188470474200182 -0.037015143771768504 0.7444827178446727
P 0.28408507313636383 5.6224299688082535 7.986596519217299 -0.2808426267485228 -0.0837166615933655 0.372880406613074
P 8.639847265121384 1.4372175892932713 8.007820213827921 0.3414036761610314 0.08891311819264042 0.019364520569540845
P 1.9625723475197447 3.33922498167738 10.62026026854858 -1.052482621734278 -0.28951624326312075 -0.11966634021509713
P 3.856381746277432 6.272795020955838 3.732615725611175 0.3937400236709025 -0.09931554447288701 -0.2466631526533365
P 7.057215486659019 3.800334796518135 10.2131488159487 1.5805866968417681 0.6220737818874319 0.858003093063032
P 6.538564865442597 7.753106730078662 10.365156924657978 0.12409120875567016 0.7099600014774546 -0.34005796076641437
P 2.5388184284026774 8.694482338200576 5.764417396641503 0.5738316590515925 -0.08553160331491722 1.6425870498039647
P 6.776024305272783 4.034952265224494 1.6539397488013345 1.488111315219166 -1.735148820492786 1.2455632131754677
Ni 5.242279895469309 2.977611482815953 0.2759900098743635 0.7780734093159245 -0.5284601728953285 0.11161647332742712
Ni 1.6564319388637665 1.1339009339975046 7.141162030505389 -0.8270632089510659 -0.4590606992555836 -0.8411981056905513
Ni 7.070140989943344 0.7188219424809226 9.394510835737018 -0.039409612145874066 -0.1857262079586479 -1.5306409610512608
Ni 2.9459763362997755 1.973311719170356 9.224530903222265 0.041604820024979956 -1.49683635379699 0.3512695132115176
Ni 6.153860351200085 2.1066748577086103 2.6069473989909584 0.7884796922509131 0.6491822080684498 0.1678542127742335
Ni 4.420485687711455 6.874937652816453 10.581212314017757 -0.7031512060857374 0.23904651664834314 -1.1180753200334228
Ni 8.026528035283414 7.194076435811214 0.22441916463509173 -0.6909860314781132 -0.13052282331362683 0.2591384023022118
Ni 7.794151351501609 3.6577625784728673 8.144897954367126 -0.051445717374801726 0.08271907356678657 -0.8026775810178498
Ni 3.3337869792385204 8.508378773999013 12.633451583158752 -1.3314542567123326 -0.9208277416987367 -0.5306219564333378
Ni 0.0713689998470783 4.710967928540969 10.03150313850355 -0.4751601759206075 0.36218821700655046 0.6535926784313195
Ni 8.414511746976494 2.408515874151621 5.896788577950959 1.2267535366681324 0.4055480720494241 0.007831323118960707
Ni 3.876038713217228 2.526220844863411 11.527314520909394 -0.6602124977406822 0.2649786631330727 -0.9397993977052331
Ni 0.9488084556765348 3.5977259384820455 12.581563748832592 -0.19381592694531782 0.16645913219891975 1.2578592569340015
Ni 3.3222551348706886 8.552884770508673 8.22719487971822 -0.07872357925414829 -0.02005049089297192 0.5136855856893153
Ni 5.648299193140515 7.78986106817045 3.565342041881321 -0.9964904226393742 0.8461559639164588 0.03621090270291829
Ni 2.878388433290839 8.451256976186475 3.700939589126865 1.0342506721072835 -0.8635433061549708 -1.2503853171544597
Ni 3.366925091252875 4.438457511516931 9.38936522840417 0.7746206748806337 0.8227985201374409 -0.2570282979377444
Ni 7.051850355274618 5.889684561029576 11.257252571315114 1.563722831206894 0.47954904901692247 1.5245680153843035
Ni -0.02113716023345525 9.115440202035483 0.4004747213152036 2.0937477774861812 1.5335275385704363 0.5339731322937578
Ni 4.776825144006551 0.6239939284277506 1.3922233567187503 -1.2677173806750037 -1.7854036028832798 1.3825886134943028
Ni 5.989800280971789 5.451173881952321 0.5118827220337216 -0.5651421016973945 2.199367666910541 -1.4384831106690774
Ni 8.129285330949696 9.10988378413313 11.466188458654438 -0.7301966402393036 0.21022624998254116 0.012936505556009977
Ni -0.08889357755582408 4.923733189792013 5.933690479928022 0.4071727521370407 -1.0158521149954376 -0.09621016607468591
Ni 7.654002096017041 9.221376497452455 2.5206380112038183 0.39343817615976756 -0.5500299286463044 -0.06706979706530385
P 8.772700306278438 1.4219784300299354 3.9517362536990563 -0.2817265720153729 1.3073072271524842 -1.656932005671727
P 1.8245818970234666 3.407040606731495 1.4231261491376346 -1.0037766718881422 -0.2692245828936202 0.025592760867439796
P 4.7579333231385545 1.176976836063443 8.269950149144549 0.7974014202205751 -0.34460675647936134 0.10454234008946511
P 8.392859934920937 1.953436139067189 12.726853146320927 1.755296241974938 -0.642982507015641 -0.04159273584012191
P 6.353117140731149 7.779422289619474 1.354014330202364 -1.1181231425522227 0.025163386639505052 1.0169759441872355
P 1.5972970781718503 3.2386538176448094 6.020840617505961 -0.14503284400434377 -0.35512153996775614 -1.0043227741995995
P 6.674533144177691 4.0510203327322785 6.080366249227403 1.4622948683766948 -0.6613093303492869 -0.20167527508873656
P 2.495542130936982 8.517095973888441 10.478610780230378 1.025576541372053 0.3615220441774613 -0.36369436923843174
