# total energy = -340864.18228608434 ev
CRYSTAL
PRIMVEC
9.26579609655027 0.00000000000000 0.00000000000000
0.00000000000000 9.26579609655027 0.00000000000000
0.00000000000000 0.00000000000000 13.56142918832679
PRIMCOORD
 96 1
Ni 6.555022575403783 4.751490963433781 6.826592866098937 -1.5392269029480588 0.09547997277688074 0.7460896573204764
Ni 1.6504050659710692 0.4634009934950152 4.664901172497401 -0.1780488939190482 0.6212618275090978 0.49601722187527475
Ni 5.193941991994536 8.720003626613309 11.502519409350551 -0.5569531381286988 0.4051266682412894 1.4139640424817908
Ni 5.435315979848355 2.1047997056774506 12.997680694918673 -2.825987673407759 -0.3688391466641648 -0.982117955967786
Ni 0.24723645703290092 8.023818038229562 3.817732216747757 1.3477892464269305 -1.2727958236391759 -0.27582306204674434
Ni 3.1320521879582004 7.266922953937246 7.29570992919499 0.18762162520914785 -1.149007233725589 0.5607946233619762
Ni 1.481350616512608 4.504594561116974 2.15534462328753 0.752652912360291 -2.6936895033612642 1.237063660344889
Ni 6.843244428232223 7.542274616012175 8.180471146216101 2.304865171824424 -0.7790028631087295 -1.0323596257321574
Ni 0.8475414407520133 6.442257837124284 1.511949981483374 -0.818455669787713 2.421206047210714 0.6767871142699118
Ni 4.661825854778833 6.383003071200093 5.76999468105689 -0.19357038659341502 -2.0035403659621496 1.7389026311082632
Ni 4.273561201687143 4.1251880090766555 4.2998677233345814 1.7308327096159353 -0.1246761347248627 -0.2657692773551681
Ni 6.025213621411711 6.6512941966629455 2.1204246176052006 0.5778176402825339 -0.46722240913076957 -0.6251300522152524
Ni 0.785676500072413 2.3264375478833363 9.481581644243871 0.7310656731078184 -0.5176065180102764 -0.8016092876543355
Ni 3.754528368534764 5.947936882114175 1.8287586683742554 -0.5536834662384916 0.8309121503835109 0.955506781138161
Ni 9.1301633558393 1.3314485675491121 13.330505310331832 -1.1981510424400914 -1.8272807027330402 0.5462635196253366
Ni 2.2489291636838282 4.026062522625211 8.475716472472303 -0.09288367280461422 -0.310922991073671 -0.3486156205284383
Ni 1.7993342063462867 2.7560925120592112 5.594442128808336 -1.3918939500556287 0.6625496305142912 -1.585543012405779
Ni 3.999182448200492 2.574371719360974 6.43266032554582 1.3588730150449178 -0.2916957674129428 -0.3695338587383442
Ni 0.8964444592969224 2.8117428833087326 11.908127779542617 -0.4670128642231247 2.380386699201507 0.24260363787198216
Ni 8.239081012733205 3.3634376476390275 5.670996136011724 0.7952530064190046 -0.3800072474658423 -1.0396451036499772
Ni 7.683068387430169 4.962241495247029 1.5071086030321792 0.6364735022525296 -0.7691491102431012 1.2732758485993878
Ni 1.2274400065641178 6.7679320377034005 5.93629904223915 1.8530315864448992 1.3316632873993453 -0.9574178821179447
Ni 3.1488047472687453 8.162527005529817 1.8089187458102403 0.4272633522393287 1.598013376958648 0.5756157475352087
Ni 7.06855152568533 1.1358105491404553 11.136903141614374 -1.396505223575395 3.045184759430343 0.2587805047421608
P 1.0001129655658234 8.598983064027562 1.2164072231730412 0.3229012464814697 0.5685848088303563 -0.8027259177572821
P 6.199290132344904 0.5914163055406799 3.59124280371499 2.107983718579905 1.1710500724582413 -0.02325562809383092
P 1.3763691469393353 8.523791128847764 7.298734285035124 -0.5480180404225982 0.6512146651174462 0.19347602710739584
P 0.545006712720587 3.1279011113148796 0.7612991171685892 1.7706153888305118 0.6254822933483486 -1.6418036346707208
P 6.159178501119601 3.3117345055190923 5.331133221897077 -2.348435343105891 -0.49454475109480633 -0.28155302255198605
P 6.957241517390209 1.4446487982443175 0.47356464521389624 0.03126487155155261 -3.905416227603262 -0.12579919258571237
P 8.98287426137004 3.353171145583671 3.5075689588046206 1.972260067791629 3.924484814198938 -0.014377351767594592
P 8.338966294463114 3.196847899937538 10.282560606540489 -1.6714571958710955 1.2469122710041944 0.4381987682049099
Ni 8.554479445460887 3.7035016295285845 7.948597379081919 1.7051520170203793 0.6139611800826265 0.8533385977078272
Ni 3.306017509338447 5.489678405442916 10.169512334900979 -0.3566392621638632 1.13844025684302 0.6306682084246623
Ni 8.701370110698758 8.667661144563933 5.9900017431529 0.24129237525972635 0.4457709241252129 0.8102127130526304
Ni 5.943581957957119 8.84962284796022 1.5826461524057178 -2.010787534442866 1.8174930272186571 -0.5309711122426405
Ni 8.081108455385039 2.4818527455137427 1.7154667062978697 2.4126273044027675 -0.28610078982366854 -0.39404855605025685
Ni 7.164545173062128 7.944475026406443 10.550343966378222 1.0854130539137112 -1.7049399010095736 0.9049272684183963
Ni 5.133797709646776 8.389010859084937 7.03352681650731 1.5185300367203396 0.45211974916137615 0.4051312962269797
Ni 4.978252790871267 7.224133507645156 -0.08222374782403054 -0.14884450444095013 0.7459688154718959 -0.15080265660858544
Ni 2.6495173255603772 5.763983032560938 3.951719334366235 -0.6368105738769742 0.31510463325518634 0.42209697754704084
Ni 3.559557487443784 4.207977897041104 0.5605241414138227 0.5639866479367126 0.41923996771421984 -0.9351189615104282
Ni 3.8816272933482314 3.538894762187968 11.984248147489515 -0.7169374612365523 -0.21538799668913872 -1.4833288062288583
Ni 2.044599828553218 0.8203157521335537 12.598676057591998 1.3019621607904865 -0.9420413996618743 0.43858134835530915
Ni 1.8668262649845673 1.4559623352565827 7.411497170155407 -0.6425235651013516 -1.0861491607487874 0.6133531141849824
Ni 6.883986133590889 2.2094846697762005 8.2860196825094 -0.7987638477857405 -0.6147811048807607 0.19943687267652105
Ni 0.9224452096737591 4.891172839322315 10.291252849842053 1.554719599267019 -0.6063437727466847 -0.809145962351013
Ni 0.14572317493193843 5.258237350985617 4.463066189671215 0.22887677520419292 -0.1716059665071819 -1.0760773783350823
Ni 4.9183216218333214 7.32110932940631 9.554474735416509 -0.7399514056332225 -0.9351410729976153 -0.5463527369050333
Ni 8.597046512647085 0.11803512308914459 8.528660304687195 0.7248052940204034 0.03404577673079943 -0.213437043610355
Ni 0.6929017902534058 7.221001668570508 11.786048136465059 -1.1610685357654973 0.16650284095266166 -1.2226084041515073
Ni 8.167956762032018 9.007558342124073 2.1277612749404273 0.8075120262920158 2.561224468719602 -1.591996995561239
Ni 6.610691478245462 1.0537063300858418 5.889877403884154 0.06056002097124409 0.35803871361455114 -0.45971195968633727
Ni 5.918805219242298 4.972646984243568 13.315289020011157 -1.7887699482523516 -0.09429983642585049 0.6749960838077601
Ni 7.3240095235789875 8.677779393882028 12.976335080491847 -0.3913098169628551 1.777916036256983 0.1271834745277487
Ni 1.2353437306193695 1.119706595555429 2.4249329602014202 -0.002008802899912669 -0.9224735048322759 -0.45506829026673884
P 2.5981940810796753 7.890603688004059 3.9711256176737604 0.11534251602876264 0.5976405885457321 0.4777297364199966
P 4.356582734553562 5.596846602890796 8.172252385094168 0.08366626797140428 -0.7808165192787004 -0.11770484561335211
P 8.878596992298757 1.598423949968769 6.772564009163213 -0.07228296583512712 -0.5233678459740857 0.8832541543203369
P 8.75630701565021 6.835155388255394 9.642623959832957 0.17212738622829066 -0.08894962785753067 -0.6107976947529804
P 5.466597307410522 4.60396095826647 1.92579101149149 -0.15790275798847642 -1.5222830760048687 0.5036407998588036
P 6.702293138280888 6.880270549363273 6.106250420758043 0.0659336265783316 1.2396694733988523 -0.33681322857687157
P 3.316117227064384 7.905438227526283 10.952874239112898 -1.9740487842609358 -0.5800105341687947 -0.2168491546156975
P 2.5241974335940482 2.1060876513324094 10.767082982197225 1.0494878007720119 -1.0252317564381246 -0.3927169817230269
Ni 8.310631490054018 5.410631899094321 11.195162761039697 -2.7959551316014104 -0.5843323014726001 2.119740602005517
Ni 6.134262775463596 0.057987205020605136 9.240594966666148 -1.9909969820795002 3.250534655157189 -1.5610005471797244
Ni 7.138656538817844 7.996567331961689 4.197302773378671 -0.4664613625950289 0.4842942770113917 0.6353728129891831
Ni 2.3231018612949534 7.354086297650906 13.366605778434606 0.8226478534921897 -0.2028757231547409 -0.7035029329982013
Ni 4.745996346359029 7.298334002644518 3.8984224753207393 -0.8074158670337835 1.243344608257594 -1.5952448130745753
Ni 3.1923076598589057 9.18119009484548 8.728854315027817 1.39747118703309 0.21285546007527212 0.18950495827478975
Ni 1.424755134063045 0.04579712369928141 10.236939532966707 -0.32157430013993005 0.593689574317784 1.6732747086958086
Ni 7.30599681600172 5.491059009058664 8.998034956914239 -0.8710398716423322 -1.8663671272115405 0.5329338923959661
Ni 2.7134883816886983 2.2951932835054834 1.2678435103659056 -0.03920778054771312 -0.6083831717742167 -0.4342757790014198
Ni 0.2547723289838226 5.103035266665024 13.305687802114264 1.426301481001221 -1.5211317360092447 -1.0200985489766172
Ni 6.775474395711577 5.596540831620194 4.270114325545814 -0.1887894202650039 -0.8852950960097656 0.22038365013151723
Ni 6.070856932896085 3.771494041155123 11.238044865292574 1.9584655851106982 0.41763225690746786 -0.8036605137564095
Ni 7.848944668833588 6.637376970952526 13.553848059016225 -0.4325351421612293 0.15404327503307017 -0.11198208419696197
Ni 7.3877396690092585 3.3651054909332188 13.195555476500763 2.886892479312931 -0.14687786763288255 -1.0283029391642806
Ni 3.594118906817862 0.13198570566544818 5.934047453791992 -0.897990432089247 0.6476619147691813 0.03293737415796909
Ni 5.069029795055676 2.321980699969414 1.9238377816780705 -0.14797778556528063 -0.5201637372144913 0.03244140835815703
Ni 4.672778025744024 3.6772979582176215 9.43017037470042 -0.3349142117819458 -0.2279933441579751 -1.9617401420969118
Ni 2.983984766618315 4.702345181031607 6.323694563658646 1.6606814454118302 1.60781107977536 -0.1298129417307958
Ni 1.395141649795068 7.2620862083840905 9.16461080592161 1.7009032690463546 -0.38230272836823836 -0.4922616114875844
Ni 8.579663879203178 5.944712385078739 6.637763354649013 -1.8403678749343015 0.15689385710798787 1.0809509043772996
Ni 8.701462768659548 1.459798374833223 3.7542513212320068 -1.6261880396206512 -3.4790051960618986 3.0871014542687867
Ni 4.220690569261274 0.43452784633373753 3.6371752080370223 -2.6679275639058115 0.4084102240885676 -0.365024658014081
Ni 6.860089645503557 3.2442053836964964 3.223484283925383 -2.86055666963188 1.2854160835063475 3.152212842056139
Ni 4.7578750969321035 1.641824938802062 10.680086422812982 -1.3121326735655854 0.24591444741277005 -1.138058448023569
P 6.406908825083504 6.318559459471751 11.783200757330032 -1.1222955287623575 0.5028262743773083 0.41287520183845666
P 2.750190199956989 2.8250207690897122 3.5644998630722378 -0.17754932857481034 -0.9474507436029038 -0.9813098582441938
P 8.661147289920509 9.276729718214414 11.325311985922319 4.3643763967252385 -1.0519079801777302 0.45369609250956056
P 2.2284054253691945 4.880350389502229 12.09150622315936 -0.9206547064559822 1.0254937518502596 0.41066662422291206
P 8.099037770797596 7.027402125299195 2.4337206412025933 0.563107587765869 -3.0478638489244023 0.34485023994873515
P 0.9840646067572701 4.649780319876339 6.620174093952548 -0.6619320515349503 -0.7111943881051881 0.36292046718688464
P 4.664485138253461 1.5763898868932842 8.196799332066236 0.6203871382136283 -0.4911940894550186 0.8982691396719304
P 4.105896621640508 0.2773678993016852 13.629371709695645 -0.13839862651727777 -0.36981179499007927 0.10488301125833549
