# total energy = -340886.0360034375 ev
CRYSTAL
PRIMVEC
9.14887230753419 0.00000000000000 0.00000000000000

0.00000000000000 9.14887230753419 0.00000000000000

0.00000000000000 0.00000000000000 13.39029940425928

PRIMCOORD
 96 1
Ni 0.08063084098373702 7.582640220619881 11.702706757774624 -0.2618825407062522 1.3830257010317213 0.5348452504860659
Ni 4.854254386982719 5.807923682278839 11.131945213090354 -0.3264894780533603 -0.5373428200969391 0.9049095278065834
Ni 2.215097504477313 2.83092639390423 8.444364264610861 -0.8051268138892907 -1.8661346994857604 -0.6170503605309116
Ni 2.218299609767594 2.3742238396597823 12.684389899924579 -0.906780005356419 2.2009288407500742 1.2047358947464606
Ni 2.8562504723142266 7.047202471723542 8.284739315890334 1.6907476686695917 -1.6063126408529627 -0.2610947546976342
Ni 8.81454501902468 5.173906834803124 5.992024608951052 -1.3537115254486365 -0.5389384467188332 1.4594275741312284
Ni 4.717240876047708 5.6457965169957625 7.138622577761076 0.20589214138356152 0.10797707680262696 -1.263696946661701
Ni 2.91211348632125 7.064045545550423 13.07744832430662 1.398736684009075 -1.714438584528628 -2.038330219947825
Ni 1.445567561116889 8.501443163740966 9.372084613521766 -0.06333552683385221 0.7016661368997786 1.784623787294462
Ni 5.626867500294071 0.3797953042696952 0.9434829409241217 1.1692778110491668 0.21886772770762306 1.2041018607068876
Ni 2.6886339836763833 1.4876889689924762 6.1879650912122734 0.10380211948933091 0.18890049192157143 -0.611836934650772
Ni 3.752986335549143 4.649374541638258 0.33942041610815005 -0.9442188669291675 -0.05560267696596876 0.06507462101214599
Ni 0.45530826611233677 1.0891366468195385 7.503923323712506 -0.21053915323726966 -0.6028511862123941 -0.7741290799561958
Ni 8.430823018781874 4.9286072718230525 1.8718565193142442 0.3002765671034183 -0.09102913609437871 -1.37608500804783
Ni 5.826688019279888 0.354432800596215 5.578265031310954 0.2911260109524018 0.8919357412547348 0.47206379638347085
Ni 1.6720753404791366 8.794563882013325 0.24651910765205473 -2.145462432251654 0.9119162981417197 0.6652055800798995
Ni 6.71948071857163 1.8974852551704307 3.610814690435101 -0.6462886885707386 -0.7990808648055271 0.7345088944614124
Ni 4.64793816869376 3.216386679876046 7.098586197873075 0.011189440957916214 -0.8738835117387143 -0.447758643979203
Ni 4.23135341930041 0.36891272071886744 3.4191997949774366 -1.5403119084821215 2.1465065572454516 0.08659655424432182
Ni 7.381538859517952 6.0700571702135315 12.722109785356865 -1.3692350750055322 -0.37335734624949246 -0.5766657860662778
Ni 6.094722529820956 4.00213757374981 0.5222414155514757 0.31984137660922335 0.7908163108038897 0.5996409068052124
Ni 0.6156815925835641 5.302155726115022 12.607395735663376 0.8916657754227999 -0.09747129217529664 0.1989257373680574
Ni 5.632539801093999 7.933847128857944 3.6920539314239917 2.1967631394081586 -1.3667565315580525 0.2390956247187237
Ni 6.778829452908931 1.983942098008028 12.657006410369318 -1.376784605218016 -1.3233617095121855 -0.07831631651340061
P 5.132682016408816 6.445398803468058 9.037220335798073 -0.16100685083509692 0.023143270885682722 0.9534900078184482
P 2.8192432840308315 4.590803461442882 11.607434976516496 0.7543097312374235 -0.1463523341467157 1.2627212130119931
P 0.5919466732847727 1.6877656564015155 0.5786872127213303 -0.6179435617691421 -0.18888557952323598 -0.4993396013802884
P 6.833292689460488 4.215535019166419 6.8948124511846 0.8795576793053561 -2.013820664842235 2.122157953197758
P 4.682639841168153 2.302185619500709 0.69491814543519 -0.4237360558123605 0.44855285774572423 -0.2506859006594844
P 2.608242843145804 8.70149240453323 11.547713883078297 -2.1193361674782465 -1.4888636200041585 -1.0192817095022768
P 2.7456954999491976 4.601699768302097 2.75972712533121 1.731028370566509 0.8284289789503411 0.49064670159198076
P 7.19666759780162 9.123932432171667 11.239576205881745 0.39655512452219444 1.0983176777905215 1.6398272276706405
Ni 8.743458281580432 3.1782450314326653 12.247638291413036 0.45861718396026185 0.8103872909572817 1.799413801119443
Ni 1.6319758333725558 6.015026703581981 1.432454482509574 0.5243188970334454 0.07040991718213035 0.28609924716177176
Ni 4.556449446114292 3.017920193984405 3.068226182981952 -0.42923230304024146 0.4934582028988469 -1.4445516854606604
Ni 0.7844673070959736 3.341460912514437 6.448768333120659 1.7914125280815214 -0.5917265370541422 -0.10735615538917638
Ni 1.3454514519981768 3.48234439641456 1.7132214785720268 -1.4604997241494846 -0.05302951692215383 -1.0625196942553055
Ni 7.736231488086292 2.2251795617055703 1.392256167582607 0.6284930551502144 0.1592926963574676 0.5396668402444255
Ni 2.024389262260411 8.606243495455747 4.61085595965785 -1.681981235330871 1.2497381704887638 0.6428197561855317
Ni 2.7307553915519702 1.4699950500456072 1.5543723542189734 0.3940732386406052 -0.34214698208495914 0.8928250858382236
Ni 2.7377634277015575 1.5656648072469572 10.70930665492392 0.030149527000186787 -0.682172289841225 -2.1534500784428205
Ni 1.1830864160363945 3.771055358258588 10.5468693428713 -0.3779017710870653 -0.3229228437480245 -0.4923582849664488
Ni 7.131994219810195 6.968997911662613 5.711498228228982 -2.5655683475105944 1.13438511293704 2.35397221376372
Ni 6.637168314866882 1.9078417785664266 7.909703254969222 -0.5114692947642869 -0.529776577713907 0.934134743220288
Ni 8.01362529494724 4.8627902847993845 10.504971167478807 2.838586593118692 1.8650810614102655 -1.7651895898292504
Ni 3.6378386293106244 4.408411544108454 4.883455757455635 -0.21207667292771865 0.5532309520821053 0.888874842941224
Ni 3.35298849155945 4.583877765143617 9.221457580666929 1.526984852355912 1.9298751750675147 1.2944594246555385
Ni 8.120694546981992 8.960332298455063 4.6948663940536735 0.8629272698375268 0.25238334296656534 0.4538791550546441
Ni 0.10430263306394864 1.0378480689414884 11.49357726126635 0.6699446374267817 -1.0925064704253828 0.542613324467259
Ni 6.99998514200028 7.185771290942405 1.4923484896334485 -0.7142861396566343 0.03863339610148185 0.8198790324978009
Ni 7.57386645212451 5.91317230873426 3.7918114047501925 -0.21663909548742044 0.062173902425583245 -1.1277097577993933
Ni 8.037265980861775 9.062241586536333 0.26973711566827224 0.6980876755199009 0.343218360772267 -0.3715506320580569
Ni 4.089802067725456 0.5696627651260916 7.882722315793312 -0.009542135162480342 2.3139972160326794 1.2691461427017303
Ni 3.9934918894660494 8.070988724004566 5.918565568930319 -0.19433580400452985 -0.4330642751918219 0.21277395610505936
Ni 1.9053807319290388 2.8106250463638456 3.967706707894252 1.1985212812953165 0.3697387756602987 -0.23950802966579393
Ni 7.425032598232232 2.408834023411595 10.42240625489974 -0.0806400795505708 -0.7131404560879654 -1.1438817395735654
P 6.706498468837603 3.9366773927442 2.8169844274703446 0.7974307307966138 0.2796457782269442 -1.498922546902057
P 4.284480920502307 2.5345212304912685 9.30317805233659 0.6395518840675373 -1.0354948289270294 0.1244233952841083
P 9.135652137534098 6.962346681531086 5.08005221385775 1.3727109493692746 1.9412299379587021 -1.6647301615599073
P 5.230309632273366 6.36050641778657 0.2510386505474805 0.24034158131068287 -0.504889070443608 -0.3887160880937499
P 8.987275727254715 6.995822405122913 0.48978396144195785 0.3034107418570258 -0.5332514236363849 -0.11544998814090439
P 2.2650777936224764 8.812166312237613 7.409896703968684 -0.7445079146556532 0.13941575492788247 -1.7046141422390386
P 2.2933752555163056 8.536931639229541 2.5145108170886874 0.45789573241320486 0.4575154662556508 -1.0134972416100156
P 4.995055531032521 6.249768467976382 4.949616742076202 0.5336985384761325 0.3897033917076837 0.21117730104190083
Ni 7.255558888526023 5.851216145803443 8.048079032983441 0.3526730784272636 1.1618324105147153 1.1165072042153545
Ni 5.737184601980394 8.310606837312452 7.961443787136815 1.6912960849738938 -1.4390261276567409 -0.008169166074353673
Ni 0.2354645253027776 7.646124245217774 2.530699746549124 -0.5024570639633475 0.5232372339334924 0.9946520838790548
Ni 1.0182786311817402 5.375429044028919 3.956846996524069 0.17940669349852328 -0.5366882172320756 -1.1229735286659885
Ni 3.251289627540113 6.828233363101843 3.625691671613749 -1.2940130811467392 -0.5431198317900323 0.3936757460918704
Ni 1.9794682994738921 6.511325576958823 5.859073197298567 0.4513959836214742 -0.5317069619674004 1.406676764791758
Ni 5.054998942066589 5.727093395879879 2.773573028606387 1.0789811822454385 -2.214430989001567 -1.081275891816886
Ni 8.285657862665031 9.127052197611627 9.40669845682248 -0.6066533335673037 -0.020206042634229718 -1.0248597178106866
Ni 6.2689810997180695 4.1843373647668205 4.954062179106338 -2.0563096872443816 0.059329233887936525 -0.945623717696494
Ni 4.59152622235126 3.035733048270628 11.826339128145163 -0.21986762972704715 1.2167357474208143 -0.030138214146277126
Ni 4.228608757623025 7.738198495621751 1.557332014394419 -0.4768450198221982 0.4960642730631264 0.41463692172456973
Ni 5.38375451778365 1.0523215848535603 10.71274846066736 -0.4925727149701001 0.0017740611812872673 -0.7385977198188054
Ni 8.543518827255264 3.506351037219413 4.150430729291644 1.0717610103479156 0.5809656989932124 -1.9208356905730664
Ni 9.06515092791436 7.632556467659239 7.276060596368857 0.7026673244707834 -0.10111685934768391 0.42462668594743
Ni 7.744465473118445 2.346365523634334 5.846472455537699 0.045344489573070294 -1.61500888307538 1.3376945811950898
Ni 5.532945177693989 8.15024540437516 12.252833935968322 0.30381569060492836 -0.8798566986030136 0.42365917982783813
Ni 0.2205902887858076 1.11947430722689 3.0519704667540317 0.23076627891742194 0.04962871877072098 -0.7974844668526846
Ni 3.8167722729315483 0.6071594180752867 12.81552068599773 1.3341207478009023 0.5652423747206845 0.6907633739443458
Ni 4.158766266805859 8.178561164013505 10.19048600270969 -0.08408587200732616 -0.44522687869628486 -0.9231394205510488
Ni 8.54767241526037 3.472536805354041 8.507861097629915 -0.6351344717261319 1.1457234207679945 -1.3079466605086958
Ni 6.860318458110463 7.232787345475995 10.184554788824862 0.04886381558023843 -0.5029610001829596 0.3779454798408071
Ni 1.7884489956002203 6.253821418386652 10.634013266015469 1.4897935880175956 0.5521024949046169 0.18254678178940176
Ni 1.0300806763944916 5.4168459887406435 8.457848787431848 -0.3881491598466864 -0.8070325155524358 -1.2206998742748847
Ni 5.919457583975469 4.077002795436588 9.447900403036146 -0.6033785194707737 0.09033648090272829 -0.7253418832501637
P 7.55051853012223 0.020668217317927687 6.9861209409805864 -0.5981540378470408 0.7196062663179671 0.20876663471787918
P 2.751569075938799 4.556248170924618 7.097795735309989 -1.4058187876668369 0.5246544259959932 -0.8093634776784576
P 7.276436615018659 0.03493496871696997 2.618566430601671 0.29476180793277623 -0.30400158136348937 -1.0114745547530324
P 0.7771774856808417 1.5170751466850014 5.1553190710366525 -1.6857538149994258 -0.3230043477182373 0.20775696250644218
P 9.051098260126153 6.794794234999048 9.699785324267486 -1.189948194914325 0.126882141237246 -1.5261042495231718
P 0.3146525891314364 1.8984092912684831 9.5137274538193 1.1736024065664499 -0.23259844703015425 0.8384087158708721
P 4.534922149691343 2.08138673642742 5.004864951867491 -0.1618874536678373 -0.11980852221991627 0.2969775846371724
P 6.621606083156115 4.13964512378675 11.661557875020058 -1.8852781051834309 -1.4742142455221 2.0982541499969667
