# total energy = -340869.8797361131 ev
CRYSTAL
PRIMVEC
9.21533689485680 0.00000000000000 0.00000000000000

0.00000000000000 9.21533689485680 0.00000000000000

0.00000000000000 0.00000000000000 13.48757704615348

PRIMCOORD
 96 1
Ni 0.3780527462149997 6.876954388391508 4.51387383700024 1.1199005461676195 -0.38409555860260297 0.6965915505903486
Ni 5.951541040018556 1.6883418762550513 13.200278059387882 0.20002077020444908 -0.5529818121857767 0.7810723440432484
Ni 8.793873481494058 3.9334099015750903 4.0891232925005685 0.6322738623488853 0.18795612573043113 1.9858696881552635
Ni 6.898564353457925 4.186665790681806 13.540987495820946 -0.7030735587702664 -0.38261048941664433 -2.0589710361266285
Ni 5.046475155554623 8.885870189919657 0.9779665717336161 0.45384675915481193 0.9276193106992733 -2.7587489548647586
Ni 3.272154185879672 6.912829695002833 0.5046871415041981 -0.49961265253601694 1.588302320318471 -0.8097483718217022
Ni 7.308342740071282 4.328148858342653 9.218691297953212 0.28040708187300095 -0.7946665377879153 -0.29927023732609104
Ni 9.036955638646265 4.417749579170271 11.049279271765698 -0.895971087666373 -0.06167305152976475 -0.26794520196056437
Ni 3.61338889651691 3.221571201551503 7.584914353107438 0.15118909341372672 -0.8399788885714695 -1.5919417168432712
Ni 3.8478823596640415 2.923832881154557 0.31015045768818506 -1.0709655110298137 -0.5225582055885969 -0.9290670988893935
Ni 6.8749638756178 1.0436829823441176 9.261851328396096 0.1419449491076394 -0.4428064421802503 -0.6452615328578049
Ni 5.064269971138097 8.54394432901377 8.116607960975662 -0.832741747393082 -0.38119458290572417 -0.28053589414138136
Ni 7.4673441632081445 5.95076695171767 4.442551736944152 -0.28987696903664917 -2.16095538568093 -0.9072561736618892
Ni 6.304838626677943 2.5721664091291814 3.410833026517189 -0.6625077215327623 1.3135372672225958 -0.22640311685271977
Ni 0.19456340829306748 0.2506396549564571 8.115259757184951 -0.6129180835300929 -1.3595376452121102 -1.1478607788259716
Ni 5.884858862099329 6.40244747528497 11.283275106719405 0.7400876741007706 0.8822388256819451 -0.6697170947970078
Ni 2.6972553924176816 8.458398356428892 11.007184534270225 -0.3883857013375247 -0.9952812328226215 0.5900861732372419
Ni 8.678580401346538 1.2685556337516597 13.477002647016832 -3.038799938949921 1.221415926505303 -1.2442828038011473
Ni 0.7933151798266624 5.284682399478627 6.122658788131676 0.5961938287968764 -0.26303208092966307 0.26265001499989604
Ni 0.7304868558054207 0.6234368945286521 5.8189719677558935 -0.35925818784394903 0.18906941339926792 -1.4505567540041597
Ni 0.7642490856620642 0.9221419037680145 1.666147658828204 1.752285994393705 -2.5053387132955756 2.921617798609258
Ni 1.0752915879636518 0.02702028936939815 12.710598094050276 2.4909567335422906 -0.8613393565251165 -0.8216782904900687
Ni 1.4558665718923736 2.7381069809632774 0.6946078630593294 0.8360785250757987 1.026621951917432 -0.09531439373329391
Ni 8.07951899449259 3.7895308463162607 1.9506674999538205 0.8730674435953223 -1.1479476821128232 -1.07402538090206
P 5.417687357177383 3.4373298847497975 1.5363431876401368 2.036300848222622 -0.6700004303653816 0.5706733159282688
P 0.15335979387730644 4.320536990050601 8.508503064771158 0.31115541879945124 -0.9713614887822303 -0.2507887447859358
P 5.585544719089865 0.48523725141073204 3.379892532824015 0.5252264964493794 0.32603464990412884 -0.26917907436766547
P 5.355188942217709 2.4235414553589645 8.802910040873217 -0.7442790864742989 0.6850866352745427 1.5419499583061769
P 1.591442608590503 0.7636795778406976 9.611665517701493 -0.4046098765058709 0.6703848102879938 2.9266944418012173
P 3.688023910194054 5.938436830924976 2.477937746102692 0.3518043026690651 0.5964216285369663 0.4486683002776661
P 8.978152573789632 3.652332910321036 13.22872303984439 -0.9578781095838149 -1.517105645568987 -1.053034894693322
P 1.9740173206298484 9.460557030632597 3.6585458904693415 -0.6521968265250574 0.15358407600846452 0.8471607510318894
Ni 2.3005996455717335 5.094892535707693 8.187283144380295 -1.1372660340292606 0.8113439984435963 0.30488064153433303
Ni 7.4992660902827994 7.989208692722492 5.173281877644137 -0.7297461829654465 0.3364458179351238 1.1003676183410147
Ni 7.309798763303902 7.8850108782210135 7.655683532948609 1.4150097101374857 1.0520082532010204 0.25578311267673365
Ni 8.799946388521251 7.326008540937943 11.78522897929452 -0.7785848017347043 0.29409126422831283 -0.6206892428350795
Ni 7.854591051063555 5.588926747737786 6.84216649153619 -1.202695210167348 -0.7207146688907974 0.16714253141918956
Ni 8.931863936464 2.1891309302440702 9.251034365924896 0.806392825085908 1.661057083583694 1.2493543047867839
Ni 1.966276437620983 5.160183197752707 1.5587594946866432 -0.7275486610934954 -0.4406341171192799 0.2863985235697455
Ni 1.5970178874242693 4.647948695314865 12.931282374829808 2.2265961636091913 0.27872789439836515 -3.0512499917878158
Ni 4.761076171287284 5.209623480303377 0.4744562287535038 -0.6458641994388102 -0.4182945730818151 0.39001963739652185
Ni 3.1620585557523917 7.033550608593473 4.750310814702813 -0.4986047800967929 0.6859417841859864 0.47923074644555536
Ni 9.00037075109246 8.563480843274242 3.2769148289301246 -0.3922526404920986 1.3700398302950145 -0.2774770527103995
Ni 7.691617817716192 0.9068075831409287 4.429347080678196 -0.359340206034794 1.2771139913985554 1.7980614008566067
Ni 5.107379317227946 2.8577128387871644 11.247209964167622 0.39444502015772714 -1.2850160198544514 0.3606445266685144
Ni 6.077063144142076 6.157549896760447 8.562965705940675 -0.41914149446314264 1.0348319985320502 0.8209280425876057
Ni 2.198410774517794 3.068522886061934 9.380771565153482 -1.019116387569006 -0.6262363979055537 0.987934562649563
Ni 5.6420347343807515 4.083767338685386 7.278112748854279 1.835579966627355 0.763784503497078 -0.8763054909166457
Ni 1.7611061765383866 7.715743569760489 2.4560743592711045 1.6893818986703162 -1.462061669319966 0.5972340971359327
Ni 7.708021117425454 2.705668995021365 7.2272099923351485 0.43798819485600055 0.8741902443458557 -0.6429655377347765
Ni 2.9258694706128416 1.0296572395590067 8.10722029726003 1.138881972366129 0.01724156068926708 -0.853188188172892
Ni 6.730872867609918 7.944182556554257 2.6445095685154874 0.28374360244540164 -0.02224364188954879 -0.1429386804794764
Ni 4.219776496218536 8.060341878371817 2.749469491379862 -1.137324655181338 -0.9079555137217589 2.1426815270724067
Ni 2.5937395128479364 8.657375911104397 6.4307145997390105 0.4275849972448056 -0.9618831169781499 -0.20088337531506048
Ni 3.6339114518273186 1.4012472699952954 2.5036043024792303 0.10465469729761331 -0.9318842566232144 0.03722340312783267
Ni 1.163565300275464 2.430812356185149 11.58955143676839 -0.7456014048301481 -0.9272734973240804 0.049331756355592456
P 3.0225660008652526 3.5020399805691462 11.295063365701475 -0.7316786241014689 -1.0865872767274705 0.5625236902379409
P 5.53438116853603 7.096684881800304 6.241605749366118 2.794329680182846 -0.3708782885813806 -0.9104422846993546
P 7.786554218617778 0.657843276435676 6.614361519922195 -0.36930143101256396 -0.5269131401231829 -0.018248404687226636
P 3.6250739437255306 1.3753429579263419 5.886437449312923 -0.5662679877717216 0.5962313669030311 0.1990571207395991
P 9.234044049254129 5.878325188226371 2.463007057232497 -0.3181632175758521 0.5728078457727683 0.48904850386692555
P 4.747492764674108 8.453578735222182 11.80171060936756 -2.031927915965907 -0.6488032274624761 1.5111082903349717
P 6.621238004328403 4.316362442427963 11.255072489623771 0.4801882252628182 0.7069703227215115 0.4847475624987265
P 0.5271559759711216 7.45247982476374 6.938279690961862 0.3209073559798925 0.12480211877976569 -0.5488629049213968
Ni 4.759997976868193 3.5367172933814808 4.926904316011013 -0.7475808971540222 0.0058315190801125375 2.0962656588120283
Ni 5.603874024214427 1.3792410454415205 7.025841057730119 -0.062452610008266636 0.32347305982453967 -0.9720929676316161
Ni 3.8474861001766834 5.295934325852227 11.637473031795416 -0.03823564644243092 1.805840016360761 0.8947140753308204
Ni 9.12111009535693 6.4336598214171445 8.858734708838819 1.0675788539457678 -0.08295561505762487 -0.2479150227825666
Ni 9.338269509766352 8.082219088208777 0.9379950478634327 -2.0394041697382943 -1.9548994650259943 -0.571389625269003
Ni 2.0631849206224464 5.151106090891121 3.909131174937998 -0.49945324414001724 -0.9018563428025564 0.9942515060065263
Ni 6.6072675535647845 5.441379988386661 2.1545595938062623 -0.7511760707044481 0.621488341697607 0.7748093938526721
Ni 5.0041306824287455 8.943936027823064 5.364441140480687 -0.37544251091329534 -0.009604870079615715 -0.6879109920972153
Ni 5.138001881797541 5.9710222622575335 4.117177542671865 0.20538537695047213 -0.19520920774841866 0.13236836116279782
Ni 8.96672555601464 0.09221050424203532 10.686328619687519 0.08329731466775976 1.187498962042884 -1.0322598669294998
Ni 6.576903018428817 8.97076187358355 11.185504068182667 1.9154818824603204 -0.022214845534142384 0.440502476637422
Ni 2.0767038198772148 2.4417693917774597 4.486696886903282 0.16788635156374956 -0.10724148418818305 0.07363433765669898
Ni 6.46847536428321 6.628730073240556 0.13406287837663464 0.7660059366284291 2.1393655753252965 -0.3863373034489282
Ni 4.7035908996095435 4.394886328283371 9.52939098972155 -0.614968024080586 0.9463976197480412 -0.2779249388810955
Ni 2.0529098199618687 7.897663535805743 8.841498342672411 -0.8628655633616559 -0.18847497434837862 -1.905497003333467
Ni 7.674597090433602 1.192492242852641 2.2465581452992454 -0.23344691107337862 -0.5366378236101146 -2.2665783604290834
Ni 7.652102453023317 2.232995933960975 11.58286110216787 0.024619341210576955 0.7818290197036148 -1.0195064239185732
Ni 4.393504027746074 0.6257877269757491 10.030441759278965 1.0349852362804626 0.7683505256012058 -0.7144056959536341
Ni 3.7827944350311644 3.6733254478141255 2.9007595205859884 -0.19678992197197723 1.117229684203676 -0.621618182407252
Ni 8.84511997008013 5.82583462915673 -0.09617954985146195 -1.0995052703407193 -0.7132304446986104 2.39619332721646
Ni 1.1711403072198538 2.935785173133722 7.1016408899933605 -0.12869014098026224 -0.419519960848484 -0.4200670916012056
Ni 1.6667134805148043 5.814637994804621 10.593696053014762 0.5766588440877424 0.8229067635805313 -0.020135594407610487
Ni 3.3728133110056695 1.3382420115052795 12.026468069063663 -0.13611008759341722 -0.3190954995821343 0.9426229831969573
Ni 4.011860064735176 6.435069767965189 7.334841441371274 -1.8864479571218156 -1.0500035640661658 -0.04943485759236002
P 7.590737524504227 7.307209253630698 9.973294690466014 -1.668281112135959 1.11841753386419 0.06254722660460196
P 3.670136941241426 6.745672698695916 9.498504866516177 1.0253536267279695 -1.465225668870244 0.9236137890843061
P 2.714174750994202 0.845905264534988 0.5857664402862232 0.9215522785695872 -0.2570768917874927 -0.588648926570083
P 7.226860731066057 8.731043314405433 0.4126268472538824 0.08313045007259232 0.5408271791011138 0.11025096043846819
P 0.6040671778663493 2.73904694532864 2.685161184250021 0.7346495338043347 0.021449428123027574 1.1406853441234548
P 2.7726092023742206 4.431250047751209 5.934304673852148 0.38847800394101484 0.3518868350805424 -0.4176793080953194
P 1.482913585738826 6.810834346024115 12.660802099494674 0.9261003029515856 0.9015519241882601 -0.250789001896252
P 6.96011358871532 3.734957621103759 5.310126866235506 -0.5052353980394331 0.6948437146613066 0.615833714514991
