# total energy = -381165.0667066726 ev
CRYSTAL
PRIMVEC
9.34379307384642 0.00000000000000 0.00000000000000

0.00000000000000 9.34379307384642 0.00000000000000

0.00000000000000 0.00000000000000 13.67558564865744

PRIMCOORD
 96 1
Ni 6.393976302571491 6.335755127795847 3.646061125609244 0.8625169217729856 -0.7020541163668167 2.715531024716388
Ni 8.905083321710523 7.5015988798591895 13.266097857302613 0.6965010477590714 0.7361531149330547 -1.1404876262903518
Ni 2.328613396198395 1.086384135582509 7.334640247318486 1.935183474654306 -0.5971199401555717 -0.0580087153043001
Ni 9.553841563890357 2.194660778386866 0.8177519528566515 -0.06979105265120883 1.243868084861232 0.7549548210205901
Ni 4.263133631024242 2.3880492640764044 5.2918366630720035 0.8770128013963154 1.0083342093518377 0.3708615764108322
Ni 5.412420181723046 -0.07506709934682217 1.181057315980805 0.20884556758493064 1.279404844315261 -1.1301011408497053
Ni 0.6178031900350353 9.004660124725135 8.64539034583876 1.052634831041426 1.1091746751096834 -0.5424850264195108
Ni 1.3606711818895287 0.4191036923502356 4.503958685499045 0.568496105771292 1.167598623574531 0.08496287529564077
Ni 2.494680630877825 5.340874757993771 9.08868511851224 1.0926404249000858 -0.9936616949413274 -0.43006302647165284
Ni 7.293531295217231 9.19713291869135 10.794345025921574 0.07656565237088105 0.13206805631355964 2.4171442184365146
Ni 0.2739609479280002 9.015059766439993 11.278378736489744 0.742190065155754 -0.1904218136621043 -0.2480700603031921
Ni 7.530555294660943 4.118781371497852 5.554516849596275 0.20928908288025244 0.3604990022295856 1.0871871150949985
Ni 5.035500912059314 -0.05399123964148701 9.791651376333366 -0.5352658829632523 -0.9641729414535912 0.24627543029661456
Ni 3.4765544406915034 -0.009799770198153708 2.498912434770601 -0.8380793575559116 -0.7061028325148936 1.744886359495524
Ni 4.550810332836557 2.9310918311781364 12.116131078466482 0.5698855299196508 -0.6638560080305407 -1.31210979074745
Ni 0.40067119171150767 1.825412762854221 12.293080094584482 0.5470433352141546 0.35380770625233904 -1.0049483235987402
Ni 3.52079730099686 1.5461267872413162 9.879667104151396 -0.908937418019054 0.20597415957440657 -0.3231416446270499
Ni 8.083932096925869 5.367915695211026 12.64272296344496 -0.00521136899761038 0.012547240537391292 0.20716843699282383
Ni 1.39616825185786 3.0901605648293273 7.776074670786731 -0.18259357586693717 1.7708665856093695 -0.5557033248819978
Ni 6.354666965020354 7.017730554428804 11.492128281712843 0.5481098288054561 -0.5477334193026439 -0.44101592593873085
Ni 1.1163216486592487 4.600584718654219 2.971978401003729 -1.5159512202495697 1.515459625325132 -1.7369560489048539
Ni 3.4326666445237612 4.539597781122422 5.858606858359464 0.13338240424960898 -2.4374060540093443 -1.4055153974938053
Ni 9.03470041952592 1.8471744569727373 8.984340177881194 0.3329475749738782 0.6401915745340652 1.2703923564040056
Ni 4.945127745243388 1.317147793652496 7.2710903073407 -0.18779131801779272 -0.6330961011398645 1.0621183450518288
P 4.7079916202825345 7.65059500455385 4.527904024063889 0.17419326761838388 -0.1631933169634544 0.4656890032053786
Ni 8.713320656019535 6.2052036506709385 3.7235473329883906 0.9590258500350128 -0.9024584951629296 -2.591310746582021
P 7.697669034167025 3.6864347211939146 8.87563262025404 -1.8387195406976011 -1.4815269771334292 0.5333362700407073
Ni 4.719073358893338 7.327608108635105 13.332806933725857 0.6365637479734909 -0.6213451312515235 -1.3137982341934664
P 8.902513778609366 4.339322919921787 0.9191059453179529 0.24879691116688762 -0.7911122447777537 0.35075143592451846
P 3.743992486659806 4.848484893260642 12.239936336976722 -0.9997816917961362 2.0020128735740292 -0.003382800429303851
P 5.662170427362301 4.176740920066834 4.052842223625645 0.0012837518084300472 -0.36846402271293316 0.9044626700771521
Ni 8.848030121071767 8.28962635812167 4.497955298435436 -0.19510045008469623 1.902532007167872 0.09606489874607325
Ni 1.955048548255808 6.678448083352183 12.723696274407205 0.5602009556420352 0.3941316026823664 -0.9364605631399873
Ni 4.876329396684077 2.5438757015235907 0.6323701634703153 0.05570552109242019 -2.6001090615999414 -0.5371055072751523
Ni 1.7992221108086213 1.6543185674896208 2.487767158366751 -0.21574203759444782 -0.05340104132895965 -0.37416235864929115
Ni 3.2926312174073145 5.524087853002732 0.8022945159394073 0.452877196152691 0.13080204511694246 -0.8432873841194122
Ni 3.0747526500154874 3.44671970933881 1.7246558387716973 -0.9175968934662649 0.6979200395937851 -0.6955132299245054
Ni 0.3312066307045147 2.734143360319361 4.1674298302475545 -1.0977471499990321 -0.7938095891042587 1.3563291655771414
Ni 4.666579929284998 3.5302438758160184 9.686964452875038 -2.3360505962882927 2.145731883862956 -1.2374524111428753
Ni 8.381316999764007 0.19543664513598646 1.1463815654255343 -0.8363780585940886 -0.5588603824537407 0.37191907114106915
Ni 5.693901948713302 5.210874564661475 13.268791672851934 -0.7711139472789559 -0.2951148203968208 -0.6876186576677771
Ni 5.776800081053137 9.23829232727532 3.378197937055114 0.7900665771220587 -0.1677256576161692 1.713479048828836
Ni 6.910192839697157 1.9915360602922212 1.9524360237064147 -0.05746852653011393 -0.6526534544465018 1.1356099864830764
Ni 0.6784621604291943 6.661302223022652 7.50796480609489 0.40559718011980467 -1.1038051832676539 -0.22640208841145523
Ni 0.12202152840838017 4.730099034745571 9.04068325024472 0.7884899766635582 0.8318773425102577 -0.5356674892770451
Ni 1.801857060461443 3.876412722403736 13.105300521928825 -0.42401990560136654 0.8159429306681883 1.090538805176051
Ni 0.6337408979173682 6.1784336834534415 1.0384579520390593 0.7949925536687663 -0.02143451572469212 1.1187826305130923
Ni 7.401265229603874 5.566461954689067 7.949508551942347 -0.21902250811793245 0.15361312947418707 -0.8241066974259034
Ni 7.9097824812191675 4.0206808877922695 3.2704210212202325 -0.4727803628345212 -0.22986510725939122 -1.7903547762409682
Ni 2.8325521891970826 1.826590080784205 13.54388976039961 -0.5981527522954603 -0.9079642554725074 -0.02293655419151534
Ni 2.726145073429945 9.157113452864985 11.684625369541108 0.14102192307273778 0.05845480170278321 -0.5506994439095032
Ni 5.0615794385877715 8.057591944190747 7.397780929158708 0.7181942164617889 -0.32679286822639203 0.08669168506128941
Ni 8.106123605526761 3.2835023315533896 11.334558292474107 2.075711231699444 -1.520908050034213 0.359969869198993
Ni 7.47581001091668 2.0773868312501125 7.240907986884868 -0.6535188877705906 0.7167765101786558 -1.0867369149314574
Ni 1.233576908209812 9.331842383743584 13.64113715579561 -1.607577366497999 -0.15277674961582077 -0.0210215965569896
Ni 1.4907648131527762 6.4151119625526345 4.743281258044155 0.07471034432969713 -0.7112859193777298 0.7870954103088768
P 2.5664035866759063 7.081726193337227 2.092214496512746 -0.9888033384077616 1.3922695882274925 -0.05692910908687615
Ni 6.464419158715542 4.505735874945736 10.809634274563106 -1.668572418124133 2.492412749262527 -0.5073946104742809
P 8.41100223042718 1.0538957669908038 3.468115126767998 0.4906503011364066 -0.7143401328230214 -0.630911691894036
Ni 6.217827115142435 2.2303540680101945 10.308710723596212 1.323888785660249 -2.391719864826139 -0.6059236544901306
P 7.061889320596304 7.755142705495061 1.7978607201546635 0.12823068484534045 1.2257353798162631 -0.10375738229432453
P 3.5816440816322306 3.137673752717973 7.790297792636111 0.03235630484351847 -0.34391101596391743 -0.42014319625477964
P 6.248680319942496 7.598550077014075 9.322359368131355 -1.6738879167997753 -1.1185661436269123 -0.2145225633650499
Ni 0.15811006047963214 1.1928660016944082 6.608165940449368 -0.17784886209310016 -0.5200017577153302 -0.5572441870065564
Ni 3.2705144591511837 6.164343243466013 7.037715993479938 -0.7431912527267588 3.4405204097231388 1.5260790527121912
Ni 6.9055115993565055 8.514045580680076 13.292915477864893 0.26307347569055983 -0.17285757952609587 -0.25060799623369745
Ni 3.4906168492996477 5.545298263328637 3.289812195030519 0.37328741224350553 -0.5743103984602238 1.2861215942138042
Ni 6.733782026061437 2.08635687262142 4.413453771200478 -0.410526499100622 -0.3177217591630592 0.7233135399662253
Ni 6.567892323450814 -0.028705066767494288 6.039494283267052 0.18819986631012106 0.3512052356324855 -0.7909039854216895
Ni 0.7431725995093941 8.773746965965627 2.4616054720797464 1.1072990553535254 -1.1476556047937008 -0.3042903162485018
Ni 2.377855185809637 3.6115909385020655 10.828588158856542 1.0427466253934363 -0.9724917457319318 -0.6112113852516312
Ni 5.4863202413122885 6.063402246659516 6.005291328642394 0.28436143853505863 -0.33509855987861 -0.4274214750837478
Ni 8.288701322605254 7.564146230837871 8.9170564581826 0.11599686178330991 -0.7790488858553163 0.39609823949043393
Ni 5.174499178142203 5.6837078704465345 8.582017937929779 -0.7105230730697762 1.01634473836114 0.5647474373621371
Ni 6.9863634410085105 3.299209247746273 0.10388055411421976 1.9431747203898986 0.13992920422919125 -1.4988592977642896
Ni 1.6234092999309895 7.20100905598943 9.935558871308428 -0.8514794330119013 0.26428960748584807 1.1170203964063472
Ni 5.5873920512221185 4.152110681468118 1.844070448906541 -1.350409714768913 0.9471540382980912 2.1466145435782256
Ni 1.6577757709348122 8.361414720471418 6.285271548082265 0.11835790581631875 0.04038251758210464 0.04747799097630533
Ni 4.380482328505756 2.128151659135857 2.9845327214063215 1.2123743851283248 -0.6570544117276749 0.39531353880560954
Ni 5.7407236959129095 3.5839519985267234 7.429453584613209 -0.2440984772499538 1.0825578438531034 -0.3942365036913469
Ni 5.016645137593377 6.990568147901312 2.1511149650464048 -2.125688592058836 1.1720759426195944 -2.096796077394202
Ni 3.27727002155895 8.708181569817222 0.3977447157141185 -0.8081283197197758 0.18522587128346166 -0.17566908083296198
Ni 0.6394621024295054 4.898913344594963 11.218903624680737 -0.7167965647833139 1.6749261282563024 0.779249946122529
Ni 7.093200371258025 0.4064549996373821 8.71837751684261 -0.22618945818001693 -0.5255010902670046 -2.5381945834833317
Ni 8.085838230717272 6.499916228683873 5.78882087087 -0.42682189382653596 -0.09812949458458584 1.5459544514798793
Ni 3.039507862460724 8.26252001435275 8.298673952975667 -0.8093981875711351 0.4309444006353417 0.7596771661969239
Ni 5.201801741566121 0.3730771019430222 12.336089574201281 -1.9477823943652393 -0.36033985094390203 -0.2742585457731019
Ni 2.4932510305342723 3.3706892649238815 3.9952405423322075 1.896983566545817 -1.168984191068148 1.676014733334791
P 8.4815011493298 8.536321183418824 6.662102986090902 0.8407995847005519 -0.24547607432377078 1.1386138063064069
Ni 4.039630100189157 6.843749126997814 10.73287314552814 -0.40088306247358707 -0.33751154019547686 0.2688057501886468
P 1.432982796652602 1.5731396930792858 10.338729527672879 -0.48753515254619256 -0.9020538035253433 0.29739590312151365
Ni 7.167231243950599 5.651098032544593 1.5020988341771475 2.0696868798822354 0.6706660889738384 -1.1168445329501153
P 8.942822902021682 6.9532864134518135 10.961091554359017 0.16853118423660007 -0.6754249438150626 1.29852973807017
P 6.79512402773085 1.6695863254070342 12.308505762605202 1.0833096344174633 0.4293572586538799 0.29257996979010903
P 0.588060027854674 4.423940310191123 5.840336939720592 0.0946461640216757 0.4122267696211804 -0.20997659586558032
Ni 3.7467115304504834 0.21230032291404505 5.30214753875246 0.1443270761865708 -1.5355358272497168 -0.19909003086006358
