# total energy = -340858.8766606633 ev
CRYSTAL
PRIMVEC
9.42251406086953 0.00000000000000 0.00000000000000

0.00000000000000 9.42251406086953 0.00000000000000

0.00000000000000 0.00000000000000 13.79080177039564

PRIMCOORD
 96 1
Ni 2.4791953553854236 7.833152627473554 12.360158032109426 0.7394035035495524 1.528252406214426 0.8103564377193463
Ni 6.384535321146429 8.235569356487595 9.523954927303116 -0.5657784497298126 0.2274071326372019 -0.3067094672129556
Ni 9.346728745494572 0.3590731644953432 10.349734634010563 -0.13620804662386218 -0.15805393885436006 -1.7352745474373727
Ni 2.385328270660363 6.251508268130126 2.6588940048743392 -1.556440181502552 1.1517639705351197 0.8120574795708532
Ni 7.862993729393275 4.831855769918324 9.993559834829556 2.262129837739427 0.5033422947817784 -0.017575804100234245
Ni 1.6792616046507576 8.959029983388834 4.063487441170102 2.686913360979695 0.624807121658195 -1.2841410734486658
Ni 4.51702130877413 5.276937642441206 12.538927621715398 1.0046523896248762 2.1198894688785552 -3.4926271577207073
Ni 5.889203181323932 7.604675507375855 12.657266859868276 1.6498625004194551 -2.1423020322458006 2.1873313045712974
Ni 0.748250319051728 6.694055484380068 6.956783442961565 -0.42918010964606734 1.1530418088062788 -0.41985394714913493
Ni 4.74621453993779 3.4933028499266174 4.888922283864203 -0.5451497177358676 0.06042452383464433 0.030002202789045102
Ni 7.4102042403972845 9.386510599711517 11.555781566011593 -2.8503028531143557 -1.6664954809904462 -0.6205725147515571
Ni 6.729729122481763 6.9811689092603455 7.338498908660915 -0.4370142609785054 0.7318465171379009 -0.3810233474351825
Ni 1.7851895073288473 7.934284470512509 10.108878214985763 0.23508521800774998 1.0686571746116111 -0.5714539028480352
Ni 9.069923550958524 2.019376670926183 7.548712369822397 0.3682303094355723 -0.9621895924749753 -0.4456598524686454
Ni 1.2540895042643985 3.282059507982115 13.02166091803399 0.14496239577772455 0.1900556885719372 0.012463679684649502
Ni 6.150253932408836 3.5495175686045646 10.858615406750763 -1.3491575875293669 1.078060727313698 0.6262070873295151
Ni 6.084013658807432 8.999886004204722 5.109726650790689 -0.2810100055643225 -0.6459554736010359 0.14637393141327049
Ni 5.879545104447484 1.7156796213604903 6.082005721068533 -1.0198733203396888 0.04397152048494363 -0.08828268369749312
Ni 5.7016103495841985 1.863283303574712 12.889958670489717 -0.29374545085311987 -0.7138626789659706 0.6215004258824651
Ni 3.061431342067911 1.4517738485257687 12.983185024261024 1.2359514011173167 -0.20352235559980436 -1.3132035380322609
Ni 7.1033035360628185 0.21924588310661786 7.377582554588548 1.0703389331894084 -0.41941274584665833 0.46458908527298054
Ni 5.942412118027649 6.709122084307329 1.6593367564917922 -2.290806893959145 -1.353642619883914 0.8154359091247828
Ni 0.4798509492781003 7.138543738519325 4.161608790977813 1.0766854442327263 -0.3423598694267136 0.7872627891246765
Ni 2.2586331470694008 3.5909766303181025 3.710332557734366 -0.6285496194197626 -0.7916925427612559 -0.11533480271927879
P 7.972605835055454 6.9125070495543115 5.35576827928389 -1.095078087807301 -1.611062239722806 2.334411260912657
P 6.909350507355666 3.677343393878623 3.6888605327723636 -0.06008899487209651 1.458077230750921 0.011605702559728402
P 0.7989830190694625 5.204252369246154 4.1481355381723155 0.8829463932719309 -3.0893858794275895 -0.5176587114044504
P 3.456611580310136 9.181439004453916 5.665592789720563 -0.22858906876044502 0.14693108946832112 0.781289602260377
P 7.426589992288157 1.9602880854703653 11.501514480982781 0.34669166403284807 2.3586688479084414 0.45440314587891417
P 0.4777902454606569 5.253673455311497 8.522549923920108 -1.3567166308235474 -0.7759836166664313 1.5352352652901624
P 0.9481027837904358 0.7326466358249963 12.189165785580354 0.9217867631778964 0.8538952415422456 -0.41864321467048543
P 2.5925293540877954 8.22039910890605 1.7139072464722367 -0.9744925782120444 0.19234602726801067 -0.38986331432431565
Ni 1.6810424598016347 4.75739906408642 10.70813031974745 0.28344021227236993 -1.1453166722478791 -0.3519410853572455
Ni 8.492521313971274 7.066480351249976 9.372863030396543 0.5978385634891511 0.8693537421891608 -0.6896146050518832
Ni 2.1743864491646865 1.1986756992786445 10.28373180776261 0.38790593348762875 0.4667403272880284 0.32320823619892725
Ni 0.5131067702807733 6.650589427179034 11.317959196503104 -1.6015722979544997 -0.7418990162778965 0.9710966651566179
Ni 8.036848535683387 5.639157926621169 2.9499488673716097 0.2721805801981506 -0.5819524883865139 0.31283923425977733
Ni 8.376247490892851 1.2199517359489103 13.300125417289983 0.20837377015483466 1.311150512157974 1.5207028760019423
Ni 6.317060698207645 3.2706676885249175 7.800959666052991 -1.1569041199751624 -0.11097241198552502 -0.7249711301743063
Ni 2.5258085322710766 5.300993320749084 8.66920098996632 1.004889702446663 0.8675454853358284 -0.8751644353336671
Ni 2.666383019022048 4.907612782685789 5.868909912866559 0.340415086995517 0.09472869643315299 -0.6614389139486156
Ni 2.312162449249994 2.330084070927074 6.235842396310825 -0.17783934901140339 -0.33973271621651163 -0.6337622739689537
Ni 5.699151073423464 2.915222191929509 2.076894523293899 -0.7778178416616928 -0.829370516928004 0.03588540104269949
Ni 0.14685647685197517 3.1210758558512515 10.521843448451692 -0.3108003494528776 -1.3279768396866938 0.3763218281944551
Ni 3.764991619346653 3.643167935507032 13.646122016820314 -0.9284194380030656 -3.4598306800159766 0.4025493944324164
Ni 2.5800162554615276 7.249371348490834 5.244945380569394 0.9824673688874048 -1.024480737204713 -0.7520343049396855
Ni 3.834020957099694 1.5960890733449848 8.081699702446215 -1.4205697207237664 0.25151559564963133 -0.16935830812358574
Ni 7.772650664913866 3.318986340449241 5.806851350989808 -1.2947389035691703 1.0685404465280888 0.4908806719796578
Ni 0.4514835285520144 4.148676390477397 1.839099479076083 1.2010589601155057 0.08780574406107458 0.11330954475913389
Ni 1.9809516587289537 -0.22787690595425442 8.180234700619659 -0.375005937596509 0.5811672734810571 -1.0986817459981595
Ni 0.4118920091183907 8.709879867518524 1.740495696550251 -0.5230346310043831 -1.3604365028772956 1.363759653713258
Ni 7.456619544488396 1.6643080748918067 4.265853832650894 -0.10058644076551064 -2.0917014364801134 -0.49306868076991217
Ni 4.697264579573738 5.563956842181226 6.8759005825640624 2.0918883556799392 -1.0225806919685227 0.06128172962861704
Ni 0.6313791085840691 4.1744940789081 6.567069205105709 0.28973838657625584 -1.1518516451529195 -1.4032343147691122
Ni 8.29843637006776 2.412116478035724 2.132816201785644 -0.35962174183095486 0.71417352533817 -0.561365922484414
Ni 5.837124946303313 9.317085516369392 1.6060628044412983 -1.0505936322416811 -0.5789607527480417 -1.9992702778318858
P 7.865603765778423 7.256391121440058 11.655516992471926 -1.0843655864858035 -1.7287619431298356 -1.1594574825246353
P 3.665960996935452 7.375567078838428 9.464682602823794 1.211570915390423 -0.09770166301854787 -0.0653921522525648
P 5.458462375148324 0.9118798131210369 3.430585654319463 0.2365515181406313 0.49691556531982806 0.507566874386087
P 6.221459870901837 5.112486505148848 8.79755259152302 -0.9136589918644394 1.5965745876295923 -0.6768768457702407
P 3.025720013910114 3.0934773122696715 11.404648210043307 -0.5034788203596425 -0.43892716173050217 0.7522741888646335
P 2.2140269656712444 5.764015659977099 12.427677883115534 1.6892911387287228 -0.6775815851467492 1.2249524789036517
P 2.3908969764496133 2.7428844103975516 1.2022458898430217 -1.8149124109756745 1.0532159003558765 0.9745943938972312
P 8.603499684167195 5.330306761883361 0.5395209038493101 -2.152598271965486 -1.007102908047898 0.9081735432698359
Ni 7.506605981395286 5.024338886437451 12.363743298696246 -0.15239776900984722 1.2468986441574397 -0.19725272054100865
Ni 5.119817221060923 6.02574483207186 10.481133476603206 0.5170830414066385 0.6126357764029836 -1.031074845482463
Ni 4.8249679121654605 8.78628703375377 11.28709575181158 -2.1725191792591296 0.8414166494592606 -2.696757086542994
Ni 6.14110467128978 5.438957771114909 4.897513732152932 1.1224099428530347 0.6813924742524071 0.1393535342313794
Ni 0.7664640386636072 6.44401965219133 0.0037972731523990577 1.5049669533239243 1.2906683330442226 0.9317996673292082
Ni 4.146989760466777 8.571246418656868 3.248312773998697 0.10702628285358343 -1.3128903776672163 0.7683561820281606
Ni 3.528882262888054 1.3474100831759623 4.229417913164512 -0.5688771432597944 0.8803071558768709 0.4165289965409601
Ni 8.1588512472895 5.153672313955638 7.230048598978117 -1.8654024493054262 0.6682153134405008 0.8145355087977004
Ni 7.264371990819914 3.38763877764125 0.23239311692682235 1.2981209326675256 -0.2970179509568046 -0.3991305985588545
Ni 4.014810733712798 4.7646826674283655 2.754161275183634 2.160468161631866 -2.6598054490193097 0.40346265027530515
Ni 9.11048747383961 8.52704540536182 12.769234594036908 2.0175701045823384 -1.2791263938428938 1.6445678276794193
Ni 0.5755846340316727 1.2357532919701837 3.335912002393793 -0.4950286327097604 1.8048162030819368 -0.3238458697829261
Ni 9.74542358146842 9.199728104178002 5.847465213195231 -0.9591500343177028 0.6154213095679207 0.6390389489868608
Ni 3.2402612357636476 0.9433161466653273 1.873783753205068 1.1665316157625973 -0.40714215600942133 -0.04228564814208847
Ni 7.939240712890083 7.387938839754309 1.090600405654074 1.1193361890237175 0.6093766460357377 -0.5226705627967451
Ni 1.6618111086749683 3.0460820667198765 8.519557333465514 -0.14853262962748615 -0.36058719106801773 0.4538778695030634
Ni 4.630958348374155 1.6953175685507278 10.732553476102334 -0.006388934245479319 -0.7974435863124202 -0.4632040319999958
Ni 4.7225734522470475 8.701371337353223 7.399123363902938 0.6153274643025338 0.5092997979167938 0.1512320308365202
Ni 3.866066927301454 3.6539755590946292 9.517736068046085 1.6216456716656071 0.23143733684251752 0.4968399748868863
Ni 8.140175824490354 8.159755808635976 3.8244241265644128 -2.625213312866737 3.718184381633364 -3.0170738601267395
Ni 3.6954628883502445 5.655609636110222 0.7847079103203691 -1.4200164193234575 2.866185071562251 -0.11062299906590625
Ni 3.1594349104503 7.009097240832828 7.400061846299909 -1.0423640452430372 1.9984963757803387 0.06910251122461647
Ni 7.630257632955914 2.393045309647497 9.44741584587151 -0.013635588505563614 -1.5345850333006734 -0.7932755709776597
Ni 1.3389015530106614 0.8579971666644762 0.5094046645200349 -1.6692717581840024 0.5400105967370893 0.0880307155876871
P 9.181891285127154 9.018608539573995 7.9575957702123485 0.13374518690566645 0.03870795809315914 0.717764328013222
P 5.591988821407993 0.8757529520947015 8.786809041030798 1.8501213547766395 -0.5130014151380972 1.0918559813255777
P 7.805384478639509 0.3794163722770542 1.941883088823762 2.144169938692475 -0.8117209221670407 -0.05146860019293717
P 3.855730429415147 3.6510828472887074 7.340181769665924 -0.5974950641068033 -0.4380984951816197 -1.3043610000399664
P 4.513412485902248 6.463477143654616 3.759400299523741 0.40991560498950047 0.7851393150237704 0.54910973082488
P 5.598810721562676 4.591072846502925 0.40314132034262645 0.7401015580578415 1.0837734614277594 1.7380212569445745
P 0.04484645550581468 2.4237344378295407 5.066947494862137 2.2314820309465824 -1.2326994698389222 0.8292003098987268
P 4.38066810830672 9.155338640602437 13.338780338829443 0.1977206613163627 0.2639283674916874 0.6739339610918329
