# total energy = -381166.9692749309 ev
CRYSTAL
PRIMVEC
9.30789334817625 0.00000000000000 0.00000000000000
0.00000000000000 9.30789334817625 0.00000000000000
0.00000000000000 0.00000000000000 13.62304277133281
PRIMCOORD
 96 1
Ni 3.597882339283053 2.3339076764522497 10.166250339352166 1.3084382554331337 0.7452360510709295 0.08624148489774824
Ni 6.724468815081357 7.640896054310292 8.04471993089267 -0.37697154596331206 0.2975540259659327 0.47038126647472533
Ni 4.751186152154665 5.118391846161396 4.592627122552495 0.3540519610526612 -1.6039654807770247 -1.620903137072628
Ni 7.930883466461561 8.489599062731566 11.69689428032938 0.6148626088509733 0.5995470615398255 -1.6242013482079252
Ni 0.27567652638068363 7.18773196674821 7.923856007107549 0.0814558905836468 0.3398070210978728 0.9271112607146034
Ni 6.100560734949772 5.038371888457514 0.1769374646942168 0.8555919125183781 0.23645253066892177 -0.08210817945566505
Ni 6.960358752046519 3.942460544959187 4.345082772531495 -0.3449181170721931 -0.7935995299759816 -0.8836737583562588
Ni 1.272407614055616 4.474108787849772 11.882930210611072 -3.2784851176235277 -1.3696953024714025 -3.2765249085733634
Ni 1.666084956277985 9.15558812794856 7.5505713280622695 -0.2604272963169644 -0.29598308193438705 -0.8024127573922374
Ni 0.656975301457491 3.0878377164728117 7.94268308265107 0.7565702451368261 -0.7669775565130791 0.944634100089715
Ni 1.984954760979579 0.811896806403308 5.2914898049171635 -1.0226917636250903 -0.8905095503311696 -0.9214818303429678
Ni 7.741728461173867 9.110910240664783 2.8201743553343372 -1.1971215727343125 -0.6889530602084843 -1.2091396802411112
Ni 2.5800921432790482 8.249455418581263 3.6028992937092936 0.7402653373292154 1.264357205953519 1.5543750714434068
Ni 2.043538640680432 8.617731520304167 9.715640337679805 -1.2235777100433123 0.21217051819310556 1.6689020335494096
Ni 3.86333414500098 8.140106289454218 6.20727107635912 -0.772863840090527 0.31770093322745285 -0.3046456427053914
Ni 3.7629392091170586 7.319596889487642 11.000729025409466 -0.51121141311721 -1.5648399755304727 -0.0914058027075071
Ni 6.326965928760314 2.086745880841119 5.84730971561759 -0.11937529133723958 -1.7122076383155804 0.17151854899969815
Ni 4.123247754274356 8.71060567849532 8.840673247060899 1.6779404896025942 -0.0917708993564097 -2.1074088199130414
Ni 6.637654095353067 4.211709971096235 6.53066824030547 -1.6133245533944214 2.6853663282075493 2.1682910001103943
Ni 8.956966995292616 5.429228939045093 4.463780749572671 0.25476495582486447 -0.06255339725218904 -0.7545892101510553
Ni 6.435533194859894 1.4155537033342025 11.84958096012169 0.17776812945383577 -0.23769103106171324 0.4511370735331327
Ni 2.0406252701138023 3.1030188902561116 6.076121930605547 1.8018218963403032 -0.9704346060925867 -0.6599366183714763
Ni 5.366838131031936 4.739858446149591 11.382733338789631 -0.7899848160415297 1.075029139576226 -1.258810307993361
Ni 8.634495035928767 1.2433762952143448 4.311297912641095 0.23178906375498146 1.510320504326354 1.3763192355458231
P 3.14652398299869 8.383247075209809 13.011708655731848 -0.3069398380562069 -0.5789260428553642 0.29855289954409225
Ni 3.368703393303642 4.296895809517305 8.15600696338065 -1.1044608145737818 -2.6352984650168807 0.9655770208899694
P 3.203423134033218 5.456743071297354 9.868150167501618 -0.16048568822430423 0.21849440352860433 1.6027876584188396
Ni 0.8351777088354297 5.232255303482741 9.353022504223528 0.17514123335395 -0.17878988585013078 0.4127769856976956
P 7.440999740288123 5.038827975223535 2.6738356586935974 0.7954322123093461 1.6167001547348738 -0.9552116184952454
P 5.5491518348293 6.591449713587094 5.696897884919479 1.038952705568643 1.992068103656492 1.4829271999150655
P 8.521646138964494 4.871360361054843 7.416820626163735 -0.9473317015265361 -0.44845232761211795 1.5302043877344744
Ni 4.408087901494806 3.2140806717290356 12.699849556176533 -0.31495088128614146 0.501188224553253 0.9049532365603253
Ni 1.5073481459159972 1.6714649185384067 9.72504037900645 0.7455841784389676 -0.2251216790371349 -0.12423364787080539
Ni 1.1352837316671556 3.69573622032771 3.993581355905013 -0.1325784202910749 0.5049443491615756 1.519126789764074
Ni 7.915236898019054 9.466034289318525 7.195595274910154 -0.0358414351786415 -1.9214239589763682 -0.18652993480686586
Ni 5.831767395578746 3.40872733399536 2.359565814803596 -0.671058953536883 1.675329020121676 -0.08621217432170958
Ni 5.089295372067836 7.81973791394998 3.6373664221700914 -0.294323434843777 0.5509375280622382 0.40593450885456545
Ni 2.2091539841054852 1.1359632078695963 0.6060806723160395 -0.3242796148862351 -0.82655952984177 0.8826818267566345
Ni 4.144153282365891 1.334146869545886 4.912564542602307 0.7000635682993492 0.28421874230960725 -0.21019719651681862
Ni 4.155034209498127 8.756586670824873 1.4171099830745875 0.4831676196061163 -1.4128602678946505 0.09321457378147173
Ni 3.9656092753080943 6.095003922718853 2.462868536518237 0.024134431154358434 -0.5573845692391627 -0.37231913479296525
Ni 2.1433564871869386 4.136520809954912 0.14317028980086513 1.4283671052809983 -1.917594043707317 3.327631754551508
Ni 4.3746167176047095 0.9316084130122346 13.068843296463934 -0.46254197293596466 0.3213012489842015 0.4143630992378929
Ni 9.094826201242622 6.929084230947874 2.1882009857587117 -0.8354825433630128 0.3727425954836291 0.5007889322323053
Ni 0.5741806607954223 0.7501473122305353 11.858790189638057 -0.7097172893390293 -0.23208936860421964 -0.3489254384593733
Ni 7.675744806391638 6.5204211806990715 12.778468675956203 0.19045806621667843 -0.5041069408619447 -0.20247694505442548
Ni 6.1776021668347365 1.3845398032447136 3.4723774999563295 -0.2400590170732575 -0.7000486559010137 0.7492878525428
Ni 8.90888241910345 0.4023830147174767 9.51712531500616 0.4960915267566359 -1.2728575301150467 -0.14209201620846498
Ni 6.466239934474308 6.97294302363145 1.582738357550098 -0.07899328797576718 -0.6339422511902437 1.0020355208273193
Ni 1.6793393961721723 5.355696582890544 2.1601106949183553 -0.39441776646421756 -1.9495158321165782 0.5141231874473662
Ni 2.858491228416087 6.853541369865554 8.231982641496032 -1.15110114014014 0.16018178383064025 0.46398281914754924
Ni 6.6066495031567625 0.4763910042137358 9.689675038853384 -0.9484226205978699 -0.34352766448256966 -0.8580133774756771
Ni 8.090746531898827 6.6688169217335025 6.277865861424762 -1.582192093655675 0.2451420880231197 -0.4911316116481994
Ni 3.5310423583278845 5.604152175654267 6.426179692999172 -0.7352429444139595 0.7027182323133768 -2.496898295837706
Ni 0.6618489143286963 6.182069955563113 13.79482917956713 -0.25685834801878343 -1.6753884126047016 -0.5096129582818385
Ni 5.374051748249629 2.7968915913235786 8.279785188521718 0.26867308126552436 0.16099656642245178 -0.010878594585716748
P 8.980609043980282 2.6108268065730136 12.615795557566653 0.3737352984142015 0.5038958532924032 -0.12243721809201495
Ni 1.166111473892962 5.024186659244914 6.773295230357298 0.6882097542845567 2.274857055498108 -0.7971535658758271
P 5.588347373027632 0.6741939730587951 7.63378110076035 -0.006801596302865706 -1.0022471226174934 -0.2972969156498041
Ni 7.078652766523503 4.698475553052992 9.322274809879104 0.8646882183926914 0.43530704847941165 -0.557567117563614
P 8.598929576072244 6.447447298135569 10.398917883696985 -1.318965894437335 0.3595145268291292 0.6644620170456556
P 4.365457750711535 3.337903574757388 6.099526628017017 -0.42327042902985174 -0.2658716072609873 -0.1216365765675905
P 4.317093937726846 4.244780915579415 1.104604915732295 -1.7966184977624928 0.35741342132572634 -0.08626025395082564
Ni 7.551382045558607 4.113697855867449 11.790512139185942 1.1072556037100996 0.47519797113707835 0.2904675514327965
Ni 0.7745805318388512 8.312907326417411 0.014804204109343369 -0.31326372339170566 2.6731672150381964 -0.38824171956049264
Ni -0.1829475713232033 8.31717034149574 4.661082953764425 1.715214543462704 -0.6342834365797463 0.6465267727234737
Ni 3.3051304828561006 1.5354393675456721 7.742301827394009 0.38268453718768936 0.35685677749130795 -0.3174055134742211
Ni 4.600519285183309 6.555484014323652 0.0817530874147656 -1.8669425400990365 1.3123033948154947 -0.05668691116908302
Ni 7.897738058832908 2.5169101643452394 2.361350137926992 1.0264388893723484 0.6291492006769746 0.38599508961816104
Ni 5.138152503391283 5.883798518477978 7.980909669168934 1.1826799433876858 0.3842385119383705 0.8709205724556485
Ni 7.8933726569295555 2.1890768585073377 7.991985131268718 -1.5218477882396628 1.3860966266475612 0.7089189618074501
Ni 2.0408393516570373 6.035405482660931 4.457132121471254 0.5119583185855635 -0.7171472632545132 -0.5054048337377619
Ni 3.546986779352283 3.4318016011987944 3.4499678163262417 -0.7070852510328209 0.14120087185276325 -0.16580967154037896
Ni 1.0401291396458934 7.231050901627106 11.578645874528995 -1.250500759686401 0.45113578798155207 -1.3840145473075518
Ni 8.580611642285895 3.3047116276628152 5.813769653317931 2.2987976254741054 -1.0124433464242049 0.0623371674763249
Ni 2.345924166552949 2.1984033674778263 12.235835257529722 -0.2872017361973312 0.48511445891984195 -1.1011865146978843
Ni 8.422628771271821 4.644126764750914 0.7604492884067198 0.2813627609180509 -0.9627552351704581 0.40229279833692005
Ni 5.632401631468073 8.313614726299404 12.55906953334535 0.8187598312916933 -0.5209759487031415 -0.1773600953821397
Ni 0.9679371201098563 2.7543359036857806 2.110073322739161 0.480847713223688 -0.4098253592685393 -1.6402110933726204
Ni 6.204259972914057 8.701316401097568 5.734374255246703 0.1551971861318553 0.45962994149549224 -0.3798064443089459
Ni 7.322175175899644 7.124354522057535 3.9391571736681428 -1.137106625633261 -1.3718105490421921 0.308117660414392
Ni 0.6650843379994965 0.1442751367218202 2.421768603374435 1.6278533431382158 -0.5435792879249541 1.048934242261387
Ni 4.343919285883481 1.710492914659423 1.9163667576844332 -0.48018565415965686 0.6338905720167018 -0.3825014746426058
Ni 8.77641248330705 2.72598406104695 10.19889032838092 -0.3347424620907719 0.18667005992915592 0.6795831889578102
Ni 2.133536659877692 7.448892833708258 1.663018936263136 0.044966023187729014 0.2957948771829809 -1.649951460588836
Ni 4.33302905085806 0.13963608275885464 10.87106541940808 0.2959799966105935 1.9151597232342112 0.8367189868732751
Ni 8.964869396605934 1.2691963909070947 0.7919732610426985 -0.5475045911212894 0.5735424099459477 -2.495444336999999
Ni 2.5766575306941077 5.968770275355813 12.625590253564303 2.964715401129681 1.7026097102145 0.22930589232181156
P 1.5209935173239175 7.2068783030279455 6.10207419838151 0.28837493056982594 1.236872370269689 0.567564595095958
Ni 6.682964919373365 2.985106499399676 0.07555216897550464 0.877625752389966 -3.5481668426592243 0.7255069480731183
P 2.5241144736697483 1.3850145057971037 3.0101335625931385 -0.5295804025427008 -0.5565404760713124 0.8687634169033297
Ni 7.577993312172007 8.648847807218681 0.472632476945988 0.4083834846156902 0.2289006864635929 -0.32880681333262723
P 6.04979548552358 0.7819709990270428 0.9517972333285917 0.7054546574079334 0.10254844958788789 -0.08387324177588781
P 6.320887874511085 2.871810823562563 10.305191122490166 -0.0902295230112188 0.26461510914606684 -0.2635272753985268
P 0.24166641547522635 1.1859559021615065 6.488750143350783 0.5869879939278922 1.8346471704004403 -0.5325124885878313
Ni 6.065981911770765 6.91786821966101 10.305695610300745 0.9205228088638081 0.3578811049907643 0.24079435257738527
