# total energy = -340860.86538955075 ev
CRYSTAL
PRIMVEC
9.35465710169174 0.00000000000000 0.00000000000000
0.00000000000000 9.35465710169174 0.00000000000000
0.00000000000000 0.00000000000000 13.69148625155807
PRIMCOORD
 96 1
Ni 5.813984872238356 4.688077052611441 0.823422175797819 -0.40575890250864954 -0.450769662891385 -0.013950291532505007
Ni 3.9062335212402153 2.808539347436552 0.2594766723314232 -0.8280343146150836 0.0894965014999362 -0.9251754771444711
Ni 0.7350870842380143 8.989685156318393 7.2968636005262395 -1.069448560164655 0.5630854762786819 0.6184081601103866
Ni 8.31193089453447 1.2312319039518391 0.17907526546084213 0.19995109330877822 -1.6008374766710043 -0.17998442037886422
Ni 6.966796685694071 3.9055319219574747 7.443485689564661 0.42355016505379955 0.14086071490452515 1.252003826594489
Ni 7.700800500639534 3.8071583478602267 3.4640968788460036 -1.0133080084173454 -1.3628091168745302 4.955104831532169
Ni 3.4782860227401367 7.9639470049525425 1.657779010283568 -1.6773038844598598 0.2586036128446643 1.031916624657468
Ni 5.262322033548461 8.98047081907174 3.1124309962282575 0.04072036053749761 0.6878708828878992 1.7315094239679858
Ni 7.269101784641073 8.63054116081235 9.614586540934948 -0.3140016299989947 0.8905427175619501 0.28242102697923616
Ni 5.1604217537233055 8.791731257357585 8.252666335388568 -0.5851303718938633 0.5771946619865543 -1.060077146252084
Ni 5.4738401853089105 0.07872598778339797 5.568847953780427 -0.7075678470961944 0.44042225821878994 0.13100079139130988
Ni 3.17368903280285 7.956276186127919 6.271590375618418 2.8645686190047503 1.1888192235162043 0.7248456603400355
Ni 3.787925172856048 6.814643187910527 8.287757525114092 -0.8235225427876591 -0.7589698557172542 0.9839385541162924
Ni 1.3253116904387185 7.667862752979168 5.391926130384741 -3.5210802708550784 0.6832637231331911 -1.845515480573512
Ni 3.27686154599404 3.1042681224400055 9.918386514087043 -0.5447789646600102 0.8090662581530131 -0.813004931085787
Ni 5.148457147288314 7.636356267855592 10.52820538505611 -0.2415962796533904 0.5539297779213428 0.5197155939334792
Ni 8.321098458495605 1.3071449463443048 3.136240469487321 -1.3594222026801683 -0.7100697875824417 -0.2561847189905265
Ni 8.78543557312713 0.3751395236868053 5.340939507309462 0.018949287408993168 0.18615763906911167 -0.16947272221426296
Ni 5.306896974645207 2.2628634892927053 7.9604352666760025 -1.043353662849816 -1.083085177111483 2.641455228646896
Ni 8.680223744687442 5.039727967777823 10.620814619446366 2.7271349275039034 -0.8076799193284476 -0.4571287723401934
Ni 6.924298478474235 2.3226771668105646 1.5811886907168307 -2.158160339434296 0.8081488885450662 0.4032587617946152
Ni 2.9509078738901486 2.8071548581852785 3.832384116204715 0.9108114951133153 0.7638120143009038 0.012113238323766236
Ni 2.442631934844895 6.253840849230806 3.8810984930696275 -0.04735792045867328 0.23047651559114501 -0.11232995445468397
Ni 1.2641696516122054 6.603443094491587 8.051538401272643 -0.8557839739245262 0.47353266761951357 1.4411349464696277
P 8.463092798665073 4.820810282248742 12.980966542612348 -0.3775431021960659 1.2175240476500644 0.10424949143939465
P 2.505691678377564 4.576700505140746 0.43825258876496287 -0.7473286719339 0.0036373396422711554 -1.75168461336428
P 5.266129378989463 0.773911717613424 9.85213309061934 0.7128725471385594 0.035475824309106646 -0.12257400078019536
P 8.629156671561075 7.295884167927533 8.317495980045162 -1.343993269719608 0.670761219790806 0.07063643137063964
P 3.318920084330026 9.39020480019189 13.478720363347925 -0.9745350014142055 0.0036694784317872283 0.44880585429679476
P 7.5133238176343085 7.05999713441325 4.842870434629509 0.08749669746108803 0.04725456211158959 1.7999984699783194
P 2.3332666386513865 4.644072745597991 8.505547974462235 -0.35666265920263096 0.3750193073329477 0.7946739939870829
P 5.715929356482616 7.300318275394451 12.75821999593093 -0.32991367324356086 0.3495970106051012 -0.3516500364793879
Ni 2.807257759413414 1.4852763269034341 8.198298003770482 -0.2540183074668271 -0.8434653044581732 -0.2787626042910425
Ni 5.718062218302146 7.464080902643066 1.5856106371295131 -0.3630842464582586 -3.198081322453479 -1.051409700385073
Ni 4.534922606517856 4.532724262098604 12.220706076109623 -0.14716608829726266 -0.17107863324880213 0.42096286394259763
Ni 2.070821733621118 6.234177359999881 10.3324994101972 -0.35269004770812806 -0.3756304585543853 0.04915306468588309
Ni 3.6508607369799653 0.9561395025180445 1.9290621953449398 -2.828246901755581 1.8828388996143186 1.8868919866377696
Ni 7.57837610312996 6.744174555952124 0.26273396393475734 -0.9878923965577181 -1.698806791528642 0.14793999034880972
Ni 5.440528251364416 2.8062193924749583 10.555930717778574 -1.985764530035967 -1.684192641159893 -1.810824871169862
Ni 2.1680446848946726 3.8664481645803064 11.918644198247305 0.3986649717763457 -0.28421642831676214 0.4250331773572293
Ni 8.208580642858319 4.444781130671423 1.6224548895961755 1.704783063716735 2.0732396302305003 -5.304016128924155
Ni 8.818682024471903 3.5540961639044673 5.8778509872133196 -0.19346162892969263 -0.4354733988539468 0.8318050945114254
Ni -0.011244297838046076 7.575934537626025 10.35317320239527 0.3640458390405795 -0.8754971360827373 -0.20373138628681686
Ni 6.629374203981657 5.067623555259565 5.495775920750203 0.21691111820188447 0.07250690892047512 -1.7005826524821421
Ni 1.1780600329772517 1.3554804595965377 3.4965313459542178 -0.526867374486912 1.0308832982969474 -0.4983348142648579
Ni 6.3887911326015665 6.65926233342638 8.87269955644862 0.51585431120586 -1.3149074080972452 -1.2367371302434054
Ni 3.95138845107736 6.371513080931956 0.17044278788600942 0.25854370614100636 -0.6672588630645025 -1.871728391523454
Ni 1.4257245797844644 5.966643521505472 12.658518060525028 -0.11436523971715788 0.6090105209455706 0.4679526024285748
Ni 0.13589697466960313 3.8903680227931883 8.77365525343707 1.4789476464420273 0.42103254083826847 -1.7322799835854232
Ni 1.6913687775440274 1.7149144494727813 5.863282979706507 -2.6269722045393724 0.7470849313542101 0.6569379407544685
Ni 5.341434368670221 6.7239030140094895 6.653309029645904 -0.6818429315262644 -0.14025367744814554 -1.731334074732386
Ni 9.066019158280504 0.6124512714779071 10.121266575478396 0.05228569677759382 1.749350823024781 -0.15163363715031306
Ni 1.1780880969485612 1.9082377931675067 13.434195937399535 2.417609330998391 0.3827256748382699 1.2149586009157334
Ni 3.1541752180855758 7.951580148262113 11.833427949365706 1.3664783381960015 -1.7670379558918985 0.06093488781215958
Ni 7.021455947148067 6.107384337623111 11.394848883067842 -1.9013816956135126 2.7336498458042855 1.5658637888092968
Ni 7.691155849166135 2.690418092194449 9.42230249964439 -0.5318275467056647 -0.8159308464833303 0.2320189203776004
P 6.46390902914026 4.70876955412372 9.759880268664716 0.030008116326316062 -0.8939702551862604 -0.9976093667351659
P 4.28768837393739 7.362096430903982 4.452471594275964 0.39562592783970574 0.19162020484557965 0.04630453949349445
P 3.759505724576527 1.3862385721518586 6.166385095438702 0.4144556589516991 0.28042970758082025 2.033864470866988
P 6.813660948914691 5.737566678362317 2.5341438679569457 -0.9239693726515119 -0.30513672340919706 0.36896307383653876
P 7.03362635603933 9.062389551324461 1.5606786050180652 2.615131760261019 2.2899262911264047 0.6236686371783775
P 5.934847042011695 2.3861391605986713 13.322446139110422 0.9700414844192262 -0.008947181890958784 -1.4145343131629637
P 4.632444906818713 3.050525617382123 2.2672555008026576 0.2210819617501225 0.048620846331496916 1.0650308907129336
P 2.551529498183243 8.544749600518903 8.283622766674478 1.8387907602551687 -0.3277560034706098 -0.6482136735075933
Ni 0.5666508703006412 6.878376466754626 1.9588960677784641 2.9672957602623478 -0.2731228895067619 0.952257678073244
Ni 7.412920282945666 1.4188676161278193 11.639995156182872 -0.17209499032845846 0.5187257192163841 0.023729739516772038
Ni 1.8080961888777538 9.216198823415272 10.035640592615678 0.9643932849945135 -0.6634914256022701 -0.0724832547713913
Ni 7.0205017721235405 8.182864690481622 6.784062813840167 2.5658020607879557 -1.1007383714168721 -0.06718755359009075
Ni 3.4999981818766632 5.15081452087832 2.157791980709566 1.21209644887659 -0.7010174475721862 0.9314353420112539
Ni 1.3032066357038576 9.290091259873448 0.9341710257768902 -0.4480172969572284 -0.8935527080328676 0.4013646300956959
Ni 8.513233760738224 5.8475306726104295 6.710539886337569 0.470216458762087 0.6299907227416633 -0.1093598160827665
Ni 8.053087532488933 8.391585799768215 12.132765751079573 -0.19366088942469228 0.3589136600203367 0.5796868322807888
Ni 9.271756131951175 6.053707315164951 4.007429395385499 -0.061172200633946267 -1.3134781318498863 1.6343070691833597
Ni 1.1386862812298841 4.4795991644095325 2.5859247014202875 0.4339885867783042 -0.7180507489053892 -0.5599867827487001
Ni 6.8303683665010055 3.8160733360795756 11.668405249805291 3.0482387157653177 0.365224432729713 3.735368349611819
Ni 2.2510017840858483 5.765088079559931 6.331504147967281 0.33690527407004556 -1.392074441497551 -1.9596565200950056
Ni 4.276266337614383 5.4523057646573445 10.079603739137875 0.6748359040808121 -1.2610448537508347 0.05858464241242814
Ni 5.290198911715996 0.3466302706990938 0.7218811148054272 1.066299473012712 0.9055031955265244 -1.6805704710262737
Ni 5.523251484128011 0.15612080786101062 12.02209735115159 1.8528960893082993 -1.8497966244473691 0.9889149242849613
Ni 7.987614287423638 7.565476030984647 2.7423635676228066 -1.441481274065453 0.9610886461013125 0.939049406913086
Ni 5.308328237181997 2.730091192969119 5.821770753345349 0.8197584477595365 0.6375880754729472 -1.9135355573672272
Ni 7.354472385364874 1.0148212665264165 7.262306561721309 0.4123653520815737 1.5496334429933634 0.584499937398716
Ni 3.718607163721338 1.0961880740100476 11.405090361664426 -1.8659331249979156 1.085228448706731 -0.039169214000293835
Ni 3.067597866595462 0.37323585096630413 4.5640155901088075 0.8458826556504142 -2.2314897442560664 -2.202416223928878
Ni 9.249117861761432 3.0691133210461805 12.206152100588465 -1.1950322943054514 0.017872252294730512 -2.446208482792323
Ni 4.242552153414452 4.556513155112041 4.764979817725426 0.06775011096178009 2.2536619094777315 -0.7109066816614402
Ni 3.0468960104260816 3.632665928914242 6.6499684815943505 0.4611445783678058 -1.2204134533827176 0.7645918298897219
Ni 1.4024314835974971 9.183233011783596 12.253387506165362 -2.4590493433107325 0.48223045250382757 0.7172994725616615
P 4.941635033393671 4.65012520874376 7.009177959700117 0.04984571987753351 -0.15548643523749997 -0.5915673857684586
P 0.051660158386710196 2.6390610246978823 1.5732615542875792 0.3464957459719581 -1.1401788368006815 0.5112278681774421
P 7.260663883933987 2.1601399996424693 5.287446771596234 0.915683478493636 -1.0765041814598557 -1.1715013010630468
P 0.14943222803222284 7.412920282945666 0.09895356283764677 1.4279343886189537 2.20504003470497 -3.6919699280215257
P 1.8263284155718897 1.8466654401142462 10.875270647310503 -2.2402888306049356 0.8703122494476883 0.544196609793979
P 9.413778536091954 1.6796286828795115 7.960791679111633 -0.5160818538356337 0.8603119437018667 0.1939174855201886
P 1.7270942130211473 8.825061900616284 2.9629744460875664 0.53100633635595 -2.219673211237113 0.4418047403886133
P 1.1044388815750699 3.806793516233202 4.670864483541554 1.6217991665243359 0.529508668764501 -0.14072778887108667
