# total energy = -340893.7093807581 ev
CRYSTAL
PRIMVEC
9.03015755317745 0.00000000000000 0.00000000000000
0.00000000000000 9.03015755317745 0.00000000000000
0.00000000000000 0.00000000000000 13.21654836139201
PRIMCOORD
 96 1
Ni 6.479851533197995 2.097100613464399 11.513543176867055 0.22976020625041074 -0.043059035973003264 -0.5792757128852992
Ni 4.5494476309010565 0.37755992365236635 6.095089155763009 0.11369161068890098 0.15499818274717175 0.15582350686194457
Ni 2.7364538390374507 1.5396057674543508 4.722048259173679 -0.3115451980387022 -0.06083692878171458 1.2501428621263502
Ni 3.6822635265222083 4.190399530536518 5.070568098674181 -0.8101255526554628 -0.10062192198913639 -0.4246721944733847
Ni 4.979075443859576 4.261683595431205 3.1221580619206906 1.262977294886857 0.6012460465088032 -1.4363056434017845
Ni 7.186885790742885 6.11250471790589 2.6640861552185973 -0.28302677888403516 -0.9583234246513496 -0.994424541249281
Ni 4.773937351357344 4.679030393915848 11.301431093572047 1.1892959060423065 -0.0673418197797679 -0.29872310657336937
Ni 5.5401823529501755 7.8928183690482046 12.24152378821606 0.4529342746428716 0.03304536049074309 0.5034060581401782
Ni 1.9591107736296236 6.546358644668654 0.1447453008111776 0.11397597469853918 0.6003217349223209 1.2436994204938516
Ni 2.823405227544031 1.5902017410551785 0.3914203127082133 -0.7523798612045624 0.5590205621806887 0.33588197501185385
Ni 0.5332976354334329 -0.15386756612111085 4.659494550744685 0.46278005708869974 0.7527719544366585 0.4891503195521124
Ni 8.694398377726532 2.5122079328391003 1.197753796400548 0.21619686574367927 -0.10415693172558838 1.696271426701298
Ni 6.766206864066432 0.5322916758654992 4.6574456079622415 1.1820363962664158 0.38886495496678836 0.1292295584235
Ni 0.8949256518532559 7.351948043366394 2.320085909647637 0.22246881479532007 -0.8455561255489308 0.37683039239975746
Ni 7.559235313401555 3.9690974557488174 3.788841059776966 0.9177272483965421 -0.6599134784430247 -0.771822029089574
Ni 7.690028117548331 4.005046513558008 12.752713791564977 0.18356956662696128 -0.35439108955963483 -0.9627066413207096
Ni 8.212783946881174 9.121091389432104 6.868983603944679 -0.6824923921848053 -1.0986640053863466 0.1639348231151693
Ni 6.721326980290577 0.7777133018735836 0.35397586078367427 0.49169494035083705 -0.611630732177237 0.41104329083604046
Ni 1.9249858076761115 6.432370964004144 9.14719938137833 -1.2379663746648164 -0.25601194085808815 0.7124128338933214
Ni 0.38874919206014535 5.004061890219292 1.1238564038670813 -0.865593246705464 0.24838424910950127 0.9636654056895532
Ni 6.361655799044643 1.999719392812726 7.049125316913724 1.083520979097321 -0.683031552517727 0.7048735880934829
Ni 3.5150069455772623 4.433988034531223 0.4251389215651633 -0.6307036896482879 -0.22067572745063932 0.3249074782782211
Ni 5.956264929356626 5.611339995637044 4.928768435305192 0.06651495300309836 0.659942017688115 -0.16676586480606118
Ni 5.263155174987264 3.031622603822433 9.134591475195666 0.051024827787299214 0.8692113030740256 1.151603019477223
P -0.023779114275041886 5.73047486619134 12.234096483506677 1.0353760439609783 -0.27471748768739135 0.3519863367728841
P 4.012902750758208 6.243487155364395 12.588960911808167 -0.5870599848164082 0.9426787761355572 -0.56081030709126
P 2.486192048501427 8.565565117800956 1.3249589188925668 0.22786915987528494 -0.8472800502185732 0.7198227532041475
P 6.338665017536932 7.8256881766961515 5.8690597934186375 0.2510916207383353 -0.37621589874421013 -1.2316118932016982
P 4.730764167387051 1.1383055592050584 12.678529240016607 0.7732489913440876 -0.9698458234686521 -0.4186928369614983
P 3.9848099301492175 6.183824903431383 8.05627957471126 0.6110002976820896 -0.017596630035840662 0.7928497962941506
P 4.651298779614913 0.9736586938358112 3.8919166978751294 -0.05519875665933074 -0.5497231960391629 -0.9907344939922035
P 0.2540409115340508 5.599817514410084 3.5514183474607632 -0.034383362575876264 -0.843642967686618 -0.2202746353574787
Ni 1.4694414421146342 0.8973439280856852 2.7351381450603593 -0.8542919627600319 0.6854923553533936 -1.481358569876365
Ni 1.7794106353721773 6.2437670902531375 5.039615427121162 0.3398011075606019 0.24536603110846772 -2.3352674382653653
Ni 6.0801316025464445 5.64588937900252 9.043450093515645 -0.8441520461125526 0.745353293375084 0.8150988375003382
Ni 8.816368717799062 2.264303013463137 10.337534903227196 -0.5281899499530774 0.549869234698724 0.8485450329739257
Ni 2.4354877130081825 5.104802329535878 6.978826442224256 -0.9573939708585446 0.05274541002283174 1.034947955284624
Ni 0.4198851758145009 9.189449683231546 9.21719484276903 0.6840067719468026 -7.944708768373415e-05 -0.004158502253063806
Ni 1.6917368342494863 0.8393694126270606 11.443680458794564 -1.6091938190554997 2.708540195220851 0.05648070869554789
Ni 4.184927254969482 6.562405234904004 1.7952305686492234 0.664814772399384 1.1623324900795853 -0.45523386931032567
Ni 5.690615750097453 7.999491621974597 7.87020324210087 -0.7810214362006549 0.5133194605991481 1.19763707891815
Ni 5.521327383669696 2.6195674777507976 4.967876242278326 -1.2457231357920997 0.7497925600933603 -0.8457870106128144
Ni 0.8812666353141496 7.2638678851471425 6.935000377852152 -1.3079479460602763 0.9265417613643785 0.3613286972197326
Ni 5.1221853831110336 4.67158051381221 7.020154764976159 0.6438057742478848 -0.5292150487834821 -0.15808350654071485
Ni 8.206390595228598 7.308332381668733 9.170210029232987 -0.246468263033711 -1.0908838472202955 -0.2751273215313004
Ni 4.339261680243754 0.34340515817843975 10.534223477168247 1.4781647455294156 0.30047479915715347 -1.145393805342718
Ni 8.115538178595022 7.147080855595204 4.5925124529789345 -0.5037981513722742 -0.1311339745350645 1.0029960849683757
Ni 7.1974781657266025 6.2079625149671696 6.96261008502412 1.2855472097675733 -0.5654424065466327 0.19225680998831404
Ni 2.418520046687291 5.211006014261799 2.5817997461805495 -0.7567628207636063 0.17851786313566675 0.6639182287270438
Ni 2.24226039851407 5.224975668225833 11.425006092668111 0.27356691902271596 0.05216845447343919 -0.9138536243737486
Ni 1.297561420426582 3.217363917582102 3.59264101736756 -1.3360771001963248 0.4839975717065793 0.6906849552979266
Ni 3.6088212539368913 2.4965676997003117 2.600487657543554 -0.16783467239020775 0.021049107360815365 -0.18388041299916072
Ni 1.1700104428946008 3.2837536370026417 8.39071056216607 -0.600545935117985 1.2945753814081125 -0.42432406710534665
Ni 3.704315171628976 2.78175814022527 7.115829285822271 -0.39456714755788824 -0.547463967691341 0.17408142463086795
Ni 3.8593178285731504 7.033942009754625 5.991207124582113 1.2213655328833417 -0.27016792064349604 -0.11729706865197219
Ni 0.884425384478092 7.532478956132368 11.389810150011217 -0.4753141849999686 -0.7038739431843748 -0.40811249034249064
P 0.1926855050320297 5.57248322704801 8.003069370455885 -0.48123183603598413 -0.7876867640359725 0.32189131715971664
P 8.541129511061024 1.8663891143518618 8.086439398418097 -0.7410040152674529 -0.6966756256637228 -0.11162290108533035
P 1.8165155533671444 3.039903258434598 10.509178334783472 0.6643517167200366 0.8866950616810858 -0.2604720335119708
P 3.9277844842650076 6.066487034259661 3.982714030546727 0.10553478590972147 0.2744619200331596 -0.4664387368872096
P 6.900322766247316 3.9898397279888855 10.512020125412095 -0.46647910320684177 -0.09853650021501739 -0.5638598925508612
P 6.280294078155216 7.841770887562308 10.025835531754069 -0.14687812474319864 -0.2205199185990654 1.156998993681814
P 2.299005909509537 8.594506773233876 5.942081260655069 -0.042028537825959875 0.6412961204521537 -1.1831910786961495
P 6.788556504377346 3.9140857350320153 1.5674430346003925 -0.018855956364238494 0.9250070698874068 0.7806167445630686
Ni 5.348932642992666 3.1086227585420936 0.18463421642547997 0.17388550656997798 -0.6703544712706907 0.4884262969018944
Ni 1.4836910309674105 1.3357228668726107 7.068778552135004 0.014003256257627496 -0.43253488505091314 -1.1193523869736335
Ni 6.868012861991781 0.9383959280119253 9.43990652517392 -0.4868946907487163 -0.7531568485799028 -1.0674970928652388
Ni 2.582011051870762 1.4302505576906483 9.173130382233612 1.2443308834302633 0.20037429688912586 0.14233061458183227
Ni 6.199085869946713 1.9326795020376863 2.5255499908428884 1.0066961595277824 0.5794531190034279 0.0018437380769581152
Ni 4.1725378786031895 6.761493121746312 10.217277584070619 0.11897317080281446 1.0816577006363373 0.10489149589876773
Ni 8.040100241157699 7.214770917724743 0.3866307170634018 -0.4404500261329318 -0.7222658154280012 -0.5695309747937095
Ni 7.433878664191008 3.909362962554194 8.301301164733173 1.4916252419096958 -0.4154887282019038 -0.8140994497015464
Ni 3.1900928413239367 8.472708006157673 12.407841232760063 0.6475814392402331 -1.4553829717482096 1.067293204384549
Ni 0.04743632142111515 4.838773883653247 10.077935929627946 -0.20178428986277505 0.13501351209512877 0.8370408889890681
Ni 8.544253945625702 2.0694773610558803 5.57026000222193 0.5886286148551089 0.986420697108198 -0.7906864700942446
Ni 3.788981930237108 2.6348013537930246 11.378153119434504 -0.7185464575948851 -0.37424849060519416 -0.18287973964878826
Ni 1.216542845529808 3.450965067159081 12.584493692793295 -0.8208583656919346 -1.0617275373713133 -0.06378932654181917
Ni 2.915223871051655 8.185765715038647 8.006399692616153 1.2316717999053561 1.235860126955091 -0.08925250380993016
Ni 5.368609356623971 7.898633790607892 3.6877213538369213 0.12660266232361422 -0.8571510294753819 0.10853860573305177
Ni 2.872457044177923 8.168789018560055 3.6967478994752203 0.5094769469246064 -0.16929865853024392 0.10879005962222553
Ni 3.208415031300035 4.419323058424182 9.28828656530468 0.7426346088923403 -0.6584176106237886 0.1565218184805498
Ni 6.988718979986118 6.02608610870369 11.31755534316363 0.7356082981731783 0.6530645738419913 -0.14305052346699235
Ni 0.6434041543178899 -0.176895371275398 0.2653024212034408 0.0156850148354246 0.9179864155951996 0.13543748700642483
Ni 4.523883254448452 0.30427387279528306 1.6747483985658818 0.2850605214846123 -0.8491394720248151 -0.27342730812105814
Ni 5.904197040050474 5.575219364831527 0.21517601580308476 0.27456219305644974 0.5845631865364835 1.297851481056223
Ni 7.832812971122539 -0.3629735099173285 11.471515016893294 -0.14034212339689378 0.6882169533734083 -0.21450790807703055
Ni 9.087589504359986 4.767101521977399 5.875469399355076 -0.565995193726309 -0.5514520058048116 -0.10051187877383334
Ni 8.029218901127537 8.63702075569197 2.399609993444833 -0.3482860051031615 1.3251576250703436 0.7376682660260006
P 8.37853249148999 1.6315327728543911 3.2703294045637716 0.3519292582827036 -0.347399231622834 1.1770515414573148
P 1.9130298788794855 3.362758486732009 1.4905620779623898 -0.33895958549591304 -0.6109252214697801 -0.18271750303931114
P 4.746061254533187 1.1919176054781468 8.277339641272563 -0.7307576549490964 -1.5160885171583824 0.16691601723068028
P 8.701803107041664 1.5453670080678308 12.525256761288016 -1.0138093735337959 -0.43129407066527653 -1.1932284083274933
P 6.276203416716491 7.771019601972001 1.5384327499689414 -1.3024041334239118 -0.12170933878705492 -0.7019841823608297
P 1.8338263656806884 3.31444714302963 5.955733956083785 -0.4578525378800954 -1.3081124966625988 -0.4994411599551592
P 7.053013702819938 3.734313355512958 5.902484019134522 0.06889168076539103 1.7476927185960676 1.0423010532155856
P 2.423396331846036 8.365980572285071 10.180244907337263 0.19561389938600504 -0.45247893227300784 -0.9516812367444837
