# total energy = -340885.8321103069 ev
CRYSTAL
PRIMVEC
9.14495190520318 0.00000000000000 0.00000000000000
0.00000000000000 9.14495190520318 0.00000000000000
0.00000000000000 0.00000000000000 13.38456149917485
PRIMCOORD
 96 1
Ni 6.67886945663257 2.3255521774314296 11.230932151119186 -0.08431932817437092 -0.9368212889135156 1.731102161227238
Ni 4.997990678420281 0.5598859757017257 5.651135961277081 0.051315362444524525 -0.5916997975812648 0.8072078647880356
Ni 3.0389133119727223 1.4936724635032295 4.559839561763672 -1.0467814575844423 1.9378291398072691 1.1073250234954544
Ni 3.9014926301448924 4.710683717880276 5.1113231554638014 -0.5160214329113436 0.1054234571428378 0.5545126470080063
Ni 4.108095388286021 2.7022876246862957 2.041868446918668 0.0650702501367718 0.2058803143090196 1.5348891948046532
Ni 5.418082343643769 4.6643919702833205 2.9803270907547983 0.1476196308949135 -0.40077790435429045 -0.9439802685558002
Ni 5.726148345480711 3.2088539570920824 0.2718300435836487 -0.49596065760572644 -0.5489042996822934 -0.07084571916796831
Ni 6.338046236326191 8.193072337629905 12.505276655615788 -1.6691516876663706 0.13576581688012102 -0.2033583192181143
Ni 2.0777422650682786 6.85486406005086 -0.12959220190076662 0.770660404681305 0.210043958768406 0.8997115285454117
Ni 0.8292258488249534 0.1662835787692969 13.083234885683593 0.619674685527636 0.4421366698067353 0.5814686067715599
Ni 7.903616313343298 0.14406866109594219 6.980771760745223 -0.9887822553618392 -1.493867500976653 -0.6221699411456639
Ni 9.065839132456166 2.5057900386302387 1.1631482882667217 0.003839428350748227 -0.22222096045057213 1.1588080218660946
Ni 7.2308221863761055 1.2263472233305368 4.758988269437342 0.04453664895979426 -0.2277408618275368 0.4437626354459325
Ni 0.5913071166674262 7.723140683389546 1.9586429812221835 0.7877343294444563 -1.642310141993494 0.6536279025446291
Ni 7.997791030204901 4.074185905850323 3.8616334418643543 -0.2622923745501612 0.3467831953053898 -0.3179739843831814
Ni 7.785774460412766 4.159928976863567 12.941425942254822 0.7921882514507518 0.04179662432081189 -1.3778739816274528
Ni 8.411380634475913 7.364667705504715 9.303086625128586 0.4039671007155495 0.26627064247161886 -0.8957800547014895
Ni 7.572495887229011 0.7262756359155355 0.501606110379594 -0.05714842418653384 0.6962778760046718 -1.0546536612436677
Ni 1.9494843116808265 6.851233514061925 9.105918714082632 0.03301836390754959 -0.31271530708740336 0.43281796350897067
Ni 0.16401654514043773 5.0331530192954865 1.405847086893812 0.2514250928183541 0.10955084904765003 -0.2210912177215031
Ni 6.646423166534981 2.409109604889623 6.916365692002468 0.4474812219481003 -1.2651282797915888 0.505333099959562
Ni 3.8752374726279317 4.7675104503116215 0.6170849076840786 0.0014452170869588012 0.3484942644592256 -0.5607041205306988
Ni 6.334251081199217 5.842435556552002 4.845010261490039 -0.05953646480273618 0.17600178158203236 0.416522825893373
Ni 5.614470190274467 2.6335267297472402 9.144720745898885 0.6386432562103389 1.3091121415717069 -0.42685480394700037
P 0.300648531177936 5.8237524193847605 12.524482884043904 -0.43254054147786797 -0.4096135003680494 -0.050157851801313616
P 4.427446261030636 6.247547790214089 12.449208039714625 -0.9181573939554253 0.1741045645593195 0.5691211409498005
P 2.6057077854189243 8.749917616753995 1.0726361247264498 -0.1372783968699055 0.3487506034444058 0.6307605110281524
P 6.447456443408364 7.959354796473176 5.666795777275703 1.154534334191405 -0.34064880027287786 0.0037959767073224944
P 4.904986515429166 1.692282533497432 12.357122944410886 -1.1617095117836058 -1.371366262415922 -0.05722015796473371
P 4.244574653623229 6.253007326625661 8.271405253945833 1.6744108791827808 1.1986423802542132 0.550637223213
P 5.143029618935433 1.2288803750658897 3.5498134371849486 -0.2695508558847874 0.48534817219720283 -0.45577945740115056
P 0.6024630437503034 5.8601859086036985 3.486718754575224 -1.0440864272507824 0.6429696514998346 -0.17941954901432972
Ni 0.46695405783230454 0.2199790795970877 4.836284148183635 0.8352295468119423 0.16321774244348666 0.9468966708716465
Ni 1.9990225172779623 6.971453054541886 4.8882155877487925 0.31142152797664435 0.13172661381374087 -1.4095772262680044
Ni 6.390986364109431 6.015933588043392 9.316725406710193 -0.49993943974781646 -0.8374142131680867 0.12017439019976722
Ni -0.20303531232177421 2.7141211927207602 9.932375471407711 1.1685015950047746 -0.7996426508462681 -0.23472834888896352
Ni 2.7221413157240253 5.81792708488866 7.022183761894581 -2.2384713177802222 -1.601646345725545 -0.5838448203132204
Ni 0.5471406559415765 0.20581446326897185 9.09998912713244 1.0758282384387536 0.09455411852850167 0.23124193300225981
Ni 1.7478838423456111 1.7628084041943328 11.169390281378282 -0.7169667718125909 -1.5719711872586153 0.5796544363809566
Ni 4.228909350653339 7.249011496129235 1.5122678091301844 0.4507925457095204 0.10833600280394244 -0.7275466042109663
Ni 5.905965538882314 7.975111548964198 8.046209893663383 -0.2666316253554634 0.9345448341745131 -0.3374794014059607
Ni 5.498064094825706 3.1165356655094563 4.977973292739726 0.5490346546125705 -0.6797868203281842 -0.9582989991713172
Ni 0.8026012352426198 7.868956944834318 6.953346963852986 0.2891357199952504 -0.03339811584447151 0.03277847998260161
Ni 5.62248116832562 4.859398929144928 7.209232783427292 -0.891661918768058 -0.2565953241653839 -0.22369703077546635
Ni 1.1630458648030537 7.737589707728382 11.090956770589107 -0.47428471529418964 -0.022518749927806378 1.009810536787048
Ni 4.735466538107013 0.35543411029761873 10.088586799919545 0.8531534782802145 -0.7948886811010504 0.7507410400495587
Ni 8.530630810031877 7.310529588994646 4.402101940744149 -0.652941932221198 0.5215284787725019 1.8220945305464105
Ni 7.575403982001005 6.352202622197405 6.979981636882644 0.9372686608635793 0.5855062671760431 -0.0936848285496709
Ni 2.356489550430343 5.928297511942718 2.2580157915803296 0.5122545096697435 -0.3985094200350879 0.33401483989612796
Ni 2.0795712554909165 5.401493400510447 11.271152565008197 1.7807077400695073 0.5761657065014077 0.7664347966357317
Ni 1.3225978443218336 3.8334999111833445 3.517784156903721 0.951022263004246 -1.2259845197125918 -0.45180427480348645
Ni 1.1075360054760066 0.615826562273304 2.51461125943862 2.1373081785756356 0.9233605354229195 -0.9616612307753308
Ni 1.1162694347441007 3.6566548272185275 7.89732001381337 0.6617762426833764 -0.34413778726274286 -0.3790744512389278
Ni 3.8945150316825305 3.159471215680871 7.005132084184332 -0.3675037156821929 -1.2638812947583653 -0.3016158547401322
Ni 4.176792268560285 7.281064553285956 5.923752470742463 2.9099902416726593 -1.0217479116545822 -0.9683964926166354
Ni 8.437388878285818 7.522729057829045 13.545444542359578 -0.4312845575835798 -0.8093416233015868 -0.7387931236590631
P 0.4948626226913297 5.843258602242188 7.879250502932922 -0.5452150237561643 0.44997544912486376 -0.23378989623509414
P 9.095441342446552 1.6779523935360676 7.600718123945518 0.10248854288422994 1.1690330420282125 0.9492325180936748
P 1.8647837652084853 3.6196452060164583 10.13697182705521 0.6752279973129081 -0.18310291140318788 -0.990353456503701
P 4.094076176696505 6.2224997663760675 3.7563375487379034 -0.3386330553944297 1.938924686864293 -1.5517731150441856
P 7.438083381069384 4.084117323845244 10.468079450236536 -1.8474654052110313 2.9940586301784884 -0.09866402693181717
P 6.597287338830825 8.121833160668174 10.302873146826173 -0.6273843954670678 -0.5862444308936484 -0.8962585369998048
P 2.766988160887096 8.76568351419713 5.861474432356447 -2.2024079963987617 2.0214889800207705 -0.6094645777638535
P 7.160442634913015 4.210866360134021 1.6495801796049039 0.5052150863244589 0.5683513526633115 0.5248873679424058
Ni 2.8829095738738593 1.845067248452453 0.1561399978853495 -0.41649840041334074 -1.218252955396289 -0.40243729433458436
Ni 2.109767887368661 1.18521322872542 7.427253928776947 -0.26001540559052644 0.42159561243059 -1.446232158486877
Ni 7.459528293774807 1.0287522430208977 9.39667149257889 -1.7325844021997194 -1.0113454853743358 -1.9957542942588273
Ni 3.402845826269126 2.103503595171128 9.253523728160744 -1.6885226359938146 -1.12082100109936 0.42713068331620635
Ni 6.866002611724722 2.193883156905758 2.56535202623864 -0.4975593695514141 0.8545225907135993 -0.6788745929265598
Ni 4.251771730936308 6.859866348856773 10.426359264200965 -0.2566693719364289 1.0323462559957188 -0.48941102941266673
Ni 7.50822516377753 6.327511251491798 11.452500623393545 0.5470718744592449 -0.9569519982251197 0.22130204818072854
Ni 7.662683404969265 4.136371580219996 8.254741322205184 0.9507337852295498 -0.11150565878117571 0.4028383864277449
Ni 3.8297047560563717 8.621531634036959 12.591861062223446 -0.2982687926447702 0.2548490308982385 -1.0675207470143229
Ni 0.17087068674927164 5.145279277155278 9.970788842759156 -0.636270385102788 0.22123185706442544 -0.3399044659076856
Ni 0.1509630404940741 2.704893936038554 5.5946265586840624 -0.29247866832555436 -0.41869977894003374 0.5335339878738101
Ni 3.556325557584749 3.356224860396097 11.628347078587604 -1.0125042815691272 -0.7846063253384359 0.6512876844472266
Ni 1.0533155843969189 3.5978802199870725 12.874141957082044 0.9069424990762123 0.3491010448052891 -1.5954641281742328
Ni 3.3811357099524186 8.321778393670902 7.967468197987995 0.5195718692667632 0.9108973699589022 0.6852609560688779
Ni 5.708352268668449 7.7749102573023 3.3916350294735698 0.33554696026993824 0.6652935118080155 0.8510161202222375
Ni 3.4671622744811725 8.840059409733684 3.335191470535766 -0.20767725830844233 -1.1211282479271338 -1.0173688087502801
Ni 3.8371853268849594 4.346138491792288 9.092293649929193 -0.7116787839407743 1.0596215467719041 0.7066777311817571
Ni 5.266888850356442 4.52813218379683 11.036896386172002 2.150056736490555 1.2613703554110536 0.4491691511734845
Ni 7.843277919300489 9.16699144778013 2.774191639666654 0.3788415092925153 -1.2022313831570521 0.11645528947696719
Ni 4.982197346120808 0.6367090604237673 1.1674939695109083 0.2739037335368444 -0.20975316700086455 -0.005325525977971473
Ni 6.079701339128648 5.79724120320863 0.3959416756829821 0.6921779949036854 0.8210959356240375 0.07725702201095082
Ni 8.277974073048735 -0.08269505847391925 11.287723218237293 0.4873351207202446 -0.5369748952345591 0.7282521149184231
Ni 0.577491837510034 5.188809249214049 5.749258553965947 -0.782801153808897 -0.4633665257197891 -0.26392271106473253
Ni 7.565079331065216 6.467520468344697 2.4757955101941964 -0.4511825820590875 -1.00162902941752 -0.7670963414791305
P 9.040443600437845 1.9162332657972772 3.5173689760777824 -1.737466412882369 1.137630359347215 0.29235345560159975
P 2.2683962267240085 3.619782380298156 1.3076961448533948 -1.5042570717410935 0.14935126887403954 1.1332746534816804
P 5.044026367358067 0.9873713347087248 7.865986664387956 0.07761980466700825 0.6523647195614893 0.40497882980951544
P 8.69432545285793 1.848761809106181 12.047443773021177 1.115801950618214 0.508506355481221 1.8057304873660902
P 6.527182135931131 8.09158165907775 1.2760884468645854 -0.2100547574016834 -0.902875013875058 0.8522291666937323
P 2.1752183096427427 3.5148440547993314 5.649784337354752 0.4850332120599453 -0.19263450504270696 0.632628931695459
P 7.438906426759569 4.246540818327564 6.042260076186836 -0.1539491726573671 0.5457230737408344 -1.1891082155115327
P 2.5267502688736645 9.012834990008132 10.048219152301513 0.579989194012556 0.23994717408574162 -0.17395364080375203
