# total energy = -340869.9380154141 ev
CRYSTAL
PRIMVEC
9.26690879762909 0.00000000000000 0.00000000000000
0.00000000000000 9.26690879762909 0.00000000000000
0.00000000000000 0.00000000000000 13.56305773882890
PRIMCOORD
 96 1
Ni 7.523080548279509 1.9681617218145009 6.304068718726715 -0.6971271113788445 1.3114186782176962 -1.3352690024727327
Ni 4.314126054143138 9.387193416532414 7.31705306861318 -1.5942199713544867 -2.177151535824818 -2.0905069019513802
Ni 4.197715144057569 5.700149823349345 11.250881860355936 -0.19231080315470106 -0.21151360133539704 -0.7981418979310254
Ni 2.1246705468770055 1.0904464417034745 10.945727182465252 -0.16783030151483352 0.6019803535716665 0.7214610601385189
Ni 7.975685647745302 6.651490694976838 4.964526838065183 -1.1440678874424426 -1.5550402158312315 -0.247369948912374
Ni 8.961184345720145 8.505965977933691 5.643167600286445 2.670917499772071 -0.17468923341819595 1.2380260242581582
Ni 3.578259349153893 7.125798895176624 3.1580902843546736 0.4099449155655392 -0.499872591065623 -1.0849201734376928
Ni 2.486033660934224 3.70700451503662 0.9594142026947231 0.35403987686780314 -0.9038854574174433 -0.5281822366435935
Ni 4.8343981226779364 5.844797004970556 8.750342706860259 -1.9600414142382505 0.22261048257950694 0.29189322813572954
Ni 5.252622989981855 8.254462069342516 9.073116558715732 -0.24549767159032557 0.2027656799394379 0.9077248857681914
Ni 2.0762972822179804 8.692731260680432 6.405479283313517 -1.0959833732303899 -0.9371156802254829 0.5574604167824205
Ni 2.384366402969825 5.395407522906426 9.231221145497448 -0.13969831916530778 1.0074075837725103 -0.4555660558387638
Ni 1.9074078668136258 8.57715437239933 2.5580736843313114 -0.8531527069492663 0.07147821054564464 0.10980821647409474
Ni 9.004451543554051 1.2507917670665225 2.4002276443089796 1.320978039771357 -0.4005058816398263 0.3698634741636211
Ni 6.441780545698345 4.635771196489901 11.000196219824028 -0.12500189349539764 0.6416077381553015 0.5161705568946983
Ni 2.5084039791117885 1.1295064628792963 8.531773392636548 -0.6163541057948354 1.2157289034228547 -0.047361262892782946
Ni 0.5084141318570795 1.4020647885787685 6.63571285581813 1.6574467405246163 0.47596981630609636 1.5169804328450327
Ni 7.601728804440648 8.128469175414526 0.21284143780881637 2.0109901373719756 0.05003161063609448 0.23260564611900586
Ni 1.5658388702490658 3.227831187644117 12.12356984236782 1.0338446949181164 -1.5858919111047654 -1.1590301651792296
Ni 7.042405981638966 1.0777785771845307 1.360090324541785 -0.5281706666793677 -0.5824111731904873 -0.07350706805021534
Ni 5.591513849863186 3.889080741860475 5.003141120921062 0.5820653598152944 -0.12383692665301899 -0.31549312694285664
Ni 8.91137471017565 1.3356581191254022 10.774873182365932 0.38130771144482073 -0.1161578128412064 0.2946085701843636
Ni 6.445385373275425 1.6025543634634443 10.62622176939239 -1.0339591090087936 1.7530557826801936 1.0389377931703074
Ni 5.032218827788321 1.5972351577327395 5.381753659276424 -0.45304354652722617 -0.620072435186687 0.3589727953930463
P 7.238280635872265 0.5421336334116379 12.421157162419314 0.4765069197564891 0.16270712135565527 0.08955049466632319
P 7.748405439119393 3.3273114550990273 9.84741776852745 -1.4013432683939866 0.15381007597634155 1.033278538002001
P 6.234433458199171 6.9174880491478445 10.490957333071421 -0.05373425629866229 -2.5167235580937497 0.4685259584335415
P 0.47482436702766034 2.368575590138603 0.3642154686284923 0.37025376762350426 0.3864355195896893 0.13166002224186357
P 7.629918741431598 5.467031462092174 0.4612659525597256 0.029362769432833304 0.509709888871019 -0.6531201096702752
P 1.4665995424265563 7.276599304333006 4.722276864740003 0.30152303791600976 0.4356641747085142 -0.7568695215447998
P 2.1471428010528935 3.2832102354606554 9.579045305595503 -0.3750252208702186 -1.2772016660163552 1.153892329732032
P 4.821118642169051 5.315730639853113 6.505791719191106 -0.6059617068169177 -0.5566816296348671 -0.35364469831191353
Ni 0.33963777274177465 4.580772091939841 13.33095355458457 -1.4470351140041466 1.6800094563164807 0.8549385952050953
Ni 3.151981537982408 0.1328485531606995 4.4422948182898905 0.5077100848321707 0.6962159124184849 -0.6147404814508123
Ni 1.3281982574299012 0.30603225416715996 0.35035031947469286 0.26219133019592267 0.8273969381414009 -0.5742980571650497
Ni 0.494169966127695 8.506373721926986 11.73017380418285 -0.39892928118132587 0.6325389430848138 -1.9693182115544858
Ni 7.157046912117281 5.521567221195308 8.80622216775948 1.3472305457099831 -0.1406038616987127 0.43409554466981365
Ni 1.143601431374771 6.4132755338034855 6.985083663018022 0.44656436656078574 0.5375194548841193 -0.03171944259046795
Ni 7.728954197257459 8.506142049203524 8.23361708437623 -0.1410751449081764 -0.03783301168737355 -1.1440660876702298
Ni 2.001504060175262 8.288110215698246 9.590370395009257 -0.24156774040830006 -0.5482597241197591 -0.8755958664441306
Ni 1.7100041726054742 5.935835118382484 1.6912321951687335 0.41806265957666716 0.22805890728858788 0.9264828831019851
Ni 6.047946182720584 6.983885451692273 7.257212930833642 1.1260485680468866 1.1315851815943996 -2.468089856246446
Ni 7.95311145757109 4.474619650049203 6.101083565264898 -0.4902934320176201 0.050373567356545496 0.45197499605339575
Ni 7.8794580653278095 3.086362555788815 12.150614389413969 0.42422713651616617 -0.9120749352067713 0.33301339521480716
Ni 3.3759812608440845 1.7470718083595163 13.158702104617324 -0.615475559844624 -0.15477038300708185 0.07278921604758432
Ni 5.096809183089738 8.427512326860262 11.673615078858438 0.8380256214998406 0.939141709516576 0.2301232460167843
Ni 7.260539751142567 8.75222481606567 10.443839734573565 1.616030896581991 -0.5902594655903125 1.2314319159804081
Ni 7.646006095348851 3.283071231826578 0.8779803137066677 -0.6388558864417772 0.5474649961326055 0.8115710268527376
Ni 0.3853199270450562 3.7679622420341423 2.159252797653739 0.9959970279427234 -0.033364691503374795 -0.08273861395081235
Ni 4.727013181898475 3.7168367054203797 9.57556002114373 -0.7820550196714918 -0.6067641481135551 0.42604207823771784
Ni 4.522372031809347 7.531559769958246 5.307007698469293 0.18272650190037562 0.6144756578251998 1.5837324415596017
Ni -0.17614355172142074 3.7511242684928687 8.26449998510471 1.0107271350640463 0.2770057695009358 -0.1848273502934623
Ni 5.27991403680577 8.881609398665155 3.304028346391019 -0.4275847401344894 2.27026249414889 -0.2971331363784302
Ni 1.6397888035783796 2.075213053872175 3.7489919527461173 -0.8954766645284578 -1.1109919308240803 -0.45478726869121033
Ni 3.440664285234888 8.037523731091984 0.49655063503399827 -1.7707408586647828 -3.1744354008997653 -1.4338389270288467
Ni 2.8604445827768656 7.915756547639955 11.790732127405123 -1.04381363320537 -0.4374377216691692 -0.13799444910032366
P 4.617904596056452 3.203811359675497 11.603792626770339 0.11528209510447242 -0.03114120148949475 2.0234766998747604
P 8.921976054001307 1.1399132016172437 4.733399008848004 -0.3950849677345712 1.1093829344657473 -2.1631541931044613
P 2.4040585844641598 4.114489034880806 3.0691983870529054 0.19543675037819244 -0.2063156020742253 1.1743104883770679
P 5.967018266960571 6.967733229412448 3.8354698202694038 0.19474898028254847 -1.9668779775441096 0.14538379958585929
P -0.06302424769081022 8.299304641695967 1.673545372768692 0.22006380489825325 0.04300015771060982 0.8803729761177999
P 6.252587332809713 3.424215521869032 2.708732309780934 0.09532107860151326 -1.3516862674884913 -0.42007069114563134
P 3.348310270753692 7.358796786617594 7.473637882328981 0.42939145432592507 -1.2981487005816674 1.4471423290059722
P 2.917083930209042 1.3524590250309216 6.332225294845485 -0.23687470580800493 2.267614772113398 -0.9705515912864253
Ni 7.951823357228638 1.6695355812709984 8.609531098848699 -1.7626048598212098 -0.43764572391491724 -1.3281622162246223
Ni 4.878110132140891 3.9591478403445532 0.4497351377675369 0.4339219952064269 -0.0007638747492180393 -0.18758023044825115
Ni 5.602467336228505 8.843828210922847 0.416317737444374 -2.05453922560752 0.4993681406253787 0.23322142532613382
Ni 0.6476531454217759 4.976515438158934 4.502351801738589 1.259421716325115 1.255930929563037 -0.6952520058433187
Ni -0.09918650644155994 6.930776796565668 9.53675576665461 0.13283450216593895 -0.10159534164599922 -0.04414352728643365
Ni 3.1158313262132777 5.670282575840526 5.076096714921275 -0.5277865438670717 -0.5947542681368726 0.06665764922854972
Ni 4.1004589347479 2.3286722802493767 3.045408378425961 0.19754145542602108 0.053473032217475645 -0.4350270553451475
Ni 5.675870521930448 1.8597574210518046 13.15364329902779 0.5884355250076962 0.7485998253368398 -1.1057620498837084
Ni 8.075267851198538 6.630186071327202 12.113017613159537 0.7561773805737816 -1.2184499018984436 -1.7388920895853017
Ni 2.590777532666209 5.567216014626412 12.98067366361781 -0.17484684204198275 0.5429272561632521 -0.31091810597766456
Ni 6.90376375700991 1.5799616394713556 3.6999746379158656 -0.21122280956785558 0.11078652122696404 0.17283881047301847
Ni 8.393623240872127 5.904485165443503 2.5599187259009692 0.31683241457957045 0.1277275199566768 -0.5536305015133691
Ni 8.109045734279407 3.7495303601554446 3.7871178695009373 -1.6632247806589742 -0.6805908042867183 0.5337363336926033
Ni -0.006357099531818235 4.5042644917434975 10.757810949628347 0.8770215431470638 0.974042120938187 -0.046080853518462576
Ni 5.187560022324573 1.5704815916272594 8.71654350988883 0.20309092448934055 0.5600268919580161 0.2466119877004269
Ni 7.520939892314712 8.200667662954462 3.1091276442871596 1.8128370165038843 0.9721258777520806 -1.7221832614710533
Ni 6.101555250929868 6.711493930353694 1.548602419623436 0.5837813140651366 0.2863730696484488 0.8693768821176123
Ni 0.6709140135483312 7.289989987749153 -0.05530491254503094 0.9723827309578932 -1.5449548065707714 1.2519773442319277
Ni 3.1898183271783465 3.7163455592466383 7.744262204132984 0.3929509521107039 -0.4587369973675776 -1.227890478486053
Ni 6.018894423198354 3.8061419068608053 7.489778057627183 -0.07124655415081278 -0.9713679165401337 0.05075948994105452
Ni 4.958611770089731 5.046814209366475 2.8942484132027646 -0.8333143320671003 0.06276757014552416 1.1073867299713251
Ni 2.6971987149160643 3.263193712153473 5.320570746391697 0.13630549143367493 0.822936331266886 0.6495485902689331
Ni 5.851645250676116 6.581683069943038 12.74671108695634 -0.6815415982357617 -1.5558544842024107 0.985831143153315
Ni 6.864713002743027 8.98530610968709 5.208173334567396 -1.6181129759220005 -0.43260121951247427 0.14491431614860847
P 8.243610518975519 6.716210787003395 7.220185142788035 0.3493810379395531 -1.4091792194986377 -0.07725239402526049
P 0.224552957325306 0.2906742059833665 8.745310775306647 2.7532303390393746 -0.46046709268480696 1.1424601766356905
P 3.934516396385992 0.19573194383564438 1.749431163375261 -0.42172982401560916 3.2502999134385635 1.8493279123410666
P 4.1673196827392545 5.8864610275581 1.1009903306937119 -1.9322279915704075 0.9582090105606722 -1.2879709887177175
P 1.4604185141645698 6.115325877612495 10.987270735236594 0.4307893631147161 1.7822136351910727 1.6278376594089319
P 6.3238869301826135 0.4143689064946052 7.089518946682355 0.09276643050045959 0.8423700145114653 1.180297302088122
P 0.8039367845970746 4.33800687847768 6.495687081684554 1.691830360210809 -1.1854081409521262 -0.41879748086016255
P 3.9813976887059175 0.23115562994399477 10.314380090011678 -1.2467163529433045 0.9874805058312799 -1.2696356807436393
