# total energy = -381162.4816804445 ev
CRYSTAL
PRIMVEC
9.36429515322469 0.00000000000000 0.00000000000000
0.00000000000000 9.36429515322469 0.00000000000000
0.00000000000000 0.00000000000000 13.70559251420869
PRIMCOORD
 96 1
Ni 8.664370141640283 2.7908033839634516 11.177348939167924 -1.4437777834091134 -0.5846691159867287 0.5686184902817691
Ni 5.116959813940061 5.19904722397752 10.814836477971014 -0.6304401515742561 0.2942560719409513 1.117345383845934
Ni 6.12806956739598 1.9102599957998307 5.408843016470928 -2.062505788752764 -3.007449192552782 -1.0973573707597812
Ni 7.734242811410916 3.150476590914027 5.727238411027582 3.9106000857970455 1.585238850901799 -1.212020601333332
Ni 1.0814262446687042 6.195988799086796 2.453835783118035 0.3151542555461992 -0.45512716852913226 0.7630309131605052
Ni 8.048639651999284 0.6143080532293316 6.354954261848931 0.8939944235559764 1.714580252312815 2.078176148300169
Ni 2.258649227266133 8.241965522433157 2.7174350690076583 -1.4377927694702721 0.9414695863188044 2.96098113089823
Ni 1.6417950222242093 1.1414513756680322 7.288647515617231 -0.1334680219848798 -0.36217433304947944 0.27968897276005383
Ni 5.287258882950011 6.721484942033642 4.416764319759149 -0.07296765060697756 -0.18323480899536185 -0.3490732768911472
Ni 1.134905733457653 2.558194295972296 9.975436992782706 0.2099316015602578 -1.6079321787342564 0.4052477672001859
Ni 0.9146724977486679 4.017488572791528 3.806659898558771 0.034520145264056674 -0.02961268066011029 -4.175810662435267
Ni 0.33230511836108473 4.677633913654028 5.680748432032377 -1.9068640588843224 -0.5369052183388883 1.6625238979372077
Ni 5.184176723505299 9.5092542944146 3.7015925085724284 1.8621908843466637 -0.20213678810618738 -0.737461292221517
Ni 7.56632227333292 1.6133743868758534 8.94620170990989 -0.36099933890477187 -0.662597195922775 1.2100027995723548
Ni 3.737159037441156 7.072187154366846 12.425832333914911 0.12971961068604113 0.36455723145935925 0.13272368761968753
Ni 4.416566733134486 9.282928648373609 12.967326438452906 -0.20611094226258694 0.6671033113232446 1.231691083179066
Ni 2.1488060468258654 7.386780645150375 6.783925124715455 1.0770232871881193 0.19860614924510955 0.23895704225833042
Ni 1.5116406859122495 -0.11246518304242265 5.351362164425191 -0.6939553985190822 -0.33765346508997973 -0.8458662005901819
Ni 7.888294828582514 8.700291577289804 4.647854519100056 -0.8551949341902756 0.2887053173260512 -0.9040705768450559
Ni 9.36626150964709 1.6333109709472369 4.38477495158336 -0.608973497060048 0.16344194263915077 0.17571484646923285
Ni 8.251114438655675 5.900779398969196 11.723818293643504 0.3968397456421488 2.6075290082130964 2.4814019999743198
Ni 0.4197039565269081 8.073782784094945 0.9912115629940668 -0.004277801439747471 -1.6002718339755215 -1.5485492087902493
Ni 6.2382498624565255 4.038558236558843 3.9423588339447875 -0.5507403244497676 -0.5966581700278047 -0.29364414938856526
Ni 5.246365006651405 2.012031153943465 10.244285902453642 -0.3319227332537896 -0.8264284035805445 0.14086354311800256
P 6.12221688301617 7.683984640104614 0.6973225284725519 -0.8720549431704079 0.4671627595374277 0.3010666671048815
Ni 6.850637298779779 5.501757424396283 8.428801936426696 -0.5687192775256914 0.4011355448040253 -0.42726283801869647
P 4.763101834189265 8.770476968372481 9.279234433993073 0.35329245717881735 0.8229630707397634 -0.15884712417961674
Ni 7.0156642697003955 8.728524926738006 8.0574214878575 -1.3195274233677599 0.3492537683330695 1.3340065908205412
P 9.480880480541284 7.8606514297197965 3.670591073519951 1.5063774605182056 -2.04039533000697 0.2177611249070056
P 2.578833202169257 8.21907918543435 0.6784403640190348 -0.21126394721843614 -0.0474957315881182 -2.9110816749646253
P 3.086359262996336 4.9176501589962704 12.194400337806224 2.6451486183380832 -0.23006950996071343 -1.0387071652167401
Ni 3.834042033590774 8.397506462510979 4.909987356391474 -2.957407297504042 -0.8878384312569098 0.545676536773615
Ni 4.673288880770458 6.0733071701909775 6.631862083803491 0.48858853351137144 -1.9183463484923091 -0.19872364865958034
Ni 1.6346687937233528 2.78475404938848 5.408390721022056 1.819312082705267 -1.7042086792705036 2.0101293320335767
Ni 5.103559507784049 5.836821264066636 13.822501015011179 0.8782680139596551 -0.8693365157979802 -1.2737921261141738
Ni 2.6691518275184793 9.222435302623897 11.459506384903795 -1.0169564038032097 -2.151543862559043 -0.5872564170979305
Ni 7.198511494020658 1.5797565677982264 3.0588685021422446 -0.936194196852478 -0.46484259604468325 0.7156087151227999
Ni 4.184781703104007 7.484085034575339 1.9049953891465043 2.301099534134405 -0.7241375785294174 -0.2539586578734852
Ni 2.895730309524679 3.247368951358652 7.703762967590367 -0.25664571778734513 -0.5811916989610894 -0.8981107597171952
Ni 7.849807576100885 8.96939332292595 13.385128506663753 2.4572698828128066 0.15341978251645835 1.7255231244775637
Ni 2.574619269415794 5.019580510155036 5.685888493562101 0.02579562090686525 2.0624867625893706 2.0642140296931224
Ni 6.317031676356268 3.5504911807577546 1.3174373810361555 -0.16648432900990037 0.5618426050105162 0.36625313110454344
Ni 7.673946115856365 9.252916082873945 10.519782525150543 -0.06095211420334019 -0.20320688124191458 1.2106800281450376
Ni 6.808441785475103 4.274669570882876 12.310377131476532 -0.023113703199327935 0.4361161746442683 -0.4187779404761368
Ni 0.023866778686113456 0.1869132012126032 2.5055332465670195 -0.3037005051833027 1.902890676058871 0.3908781287420752
Ni -0.0937890330790748 2.7684882689601134 7.7596266058882755 0.5753930900014413 0.4028281020150998 -0.6429575673149766
Ni 0.18670625029293314 6.855516096478788 5.840446182664114 -1.1278863925865736 1.7616707780427143 -0.8717145291118535
Ni 3.116886864721423 5.931419372234375 8.339551777137853 -0.8502705003054646 -1.555415082672147 -0.06303702175682692
Ni 9.055039165066331 2.4246969063425894 2.0918430402940538 0.7901907614047488 1.4698287148598945 -0.7224401362223365
Ni 7.2870134461383875 8.197007542101211 2.45855070565441 -0.3894995032269937 -0.2546564552714582 -0.9035154756725342
Ni 7.601550751151871 6.171229603086449 0.48230520508285313 1.2025118905119485 -0.6387568989700677 -0.40882520013879914
Ni 7.097985787113046 7.204055156665213 6.332216817140747 -0.4730289885102176 -1.0979988609985218 1.0209027900454677
Ni 3.7222698083789205 1.2233983212803754 5.87880795359264 -0.7774221488851708 0.5206368201961679 -0.9045274618768164
Ni 2.652211817849558 2.0054386902580474 11.732987811315041 0.8039299653677123 1.603518108826961 1.1713051258918408
Ni 3.8416552054320303 4.753728174886562 1.6398060459645747 -0.09909854336607449 -0.4140165145317515 1.0782371049905624
Ni 1.7301377813268082 6.201710383336497 13.224032666787366 -0.8176023206484823 2.560420741871384 2.5386702375681702
P 6.689037659831977 3.6321759261098827 10.161558911067157 0.5630841907271013 0.1452794127975111 -0.4021159064394236
Ni 8.685093326492314 4.926461960598512 9.98904705914689 0.07622883785675258 -2.1603156952144023 -1.9979556727855203
P 9.222847331604234 0.7617750981515184 11.96637975436884 0.20023262910493902 -0.29162197675221385 -0.4012574150938702
Ni 7.448594356496174 6.285801752505602 4.240578854907361 2.314968835917329 -0.7193874654389417 -0.5406178913037851
P 0.2623688175256118 4.693843508312349 1.1860656863731958 0.8142547443324879 -0.9782602727845927 -2.19777384006086
P 3.2996029889115777 1.8033384754019637 0.3113496989928638 0.9056438348694468 0.8604487263900471 -0.38596217949769657
P 1.2899316373100518 4.1978542589347505 8.83801039110898 0.018627128182884048 2.486382741018363 -0.9829211685953717
Ni 1.4272309307128825 5.880234135722312 10.66700797126153 0.43168179302199844 0.021939480385568665 -0.24889332753543586
Ni 0.2730609695653985 0.5039732473011597 9.269996556967982 0.0095912432328609 -0.3262261970896446 0.0610672996249658
Ni 6.54725286912046 1.1527540797423206 12.27737361015141 -0.30376606831391556 1.3457097381900824 0.064000928331993
Ni 1.1771387039423598 4.246923164775075 12.533640653050007 -2.3901224384320323 -3.198043527237008 -0.25783125345501406
Ni 2.863198748667945 0.8811342751786064 9.356191146795815 0.9568725511374359 0.049022709755605895 -0.2872025075282796
Ni 8.097043692894061 4.799098184198846 2.5259539646903013 0.37765854472800764 -0.970422779018045 0.8376278718407898
Ni 1.699853651271921 7.890570352269384 9.216339146573885 0.44251770729523787 0.037157582886903746 0.7601227383747748
Ni 8.524711045895513 7.320144321875614 9.259634964541966 2.1056488997991414 -0.18070690036718556 -0.4936464076502531
Ni 4.727901449255337 2.224282264587891 3.095668308663486 -0.3759569886558687 1.483739925624348 0.08441291632944171
Ni 3.139108336774685 3.7788488788154164 10.02692937817102 -1.871105156117158 0.46333772936438267 2.783843693049857
Ni 5.018831366554421 3.221635868677505 13.020408881133529 -2.4768164374861663 -0.7011514020468893 0.24729050182469026
Ni 9.153963577527627 5.393037959356939 7.8007573988505765 0.4247614117530814 0.5316771371707295 -0.47954724924470954
Ni 4.833006296421711 3.6327846052853827 6.1557157755472 -0.9092490357222018 0.2161197326488407 0.5182297534165721
Ni 0.5023944271628622 7.857486298007196 12.023326841599138 -0.4281349562110046 0.8866441538384923 -0.5273047191346466
Ni 3.6973233264784198 7.081542085079533 10.155912241177518 0.9905802278025264 0.8822244275042419 0.18832327926186274
Ni 4.83642426409952 3.998582061170991 8.865613523503164 2.716209795950967 0.0923275431908281 -2.8664519520703924
Ni 5.06536254844766 1.3651550191068693 7.707997501792847 0.4068387658363896 -0.18443834238515977 0.958812448472626
Ni 6.065422433794498 5.723831680503782 2.3300332481097956 -1.055380512107363 1.4079309489138332 -0.49067935460212914
Ni 6.287309404001842 7.998559402298128 12.256499660149757 -1.6535600038757006 -0.960779856611642 -0.320928439025815
Ni 2.535776173723873 1.2212726263136284 3.5501868411700044 -0.18926224613636436 0.49234902899506816 0.13359503448104734
Ni 4.423018732394788 8.157134373958444 7.160761211556134 0.2561464095534234 1.7587176089516612 1.696773563148697
Ni 3.436958468084455 3.9920364189606117 4.054923278514291 0.877619838852695 -0.8699602654249082 -2.307270953052439
Ni 1.9169648310253407 3.324671206647178 1.5509931992525892 0.6536335589715839 -0.7569996193647608 -0.2649886904354017
Ni 5.515532302352604 1.3305164918734038 1.1004647928488498 -3.4946940675520652 -1.080709477790455 -0.05783593717186169
Ni 1.3871142908999154 0.8513773549326525 13.797008594711729 -0.43361371993738873 -0.31733583657855025 -0.40581238145440435
P 6.559557552760573 5.001984999835576 5.849464935186026 -0.19848762138937429 0.9376049611570755 1.0781638285504658
Ni 8.275779991705944 3.1402788736506464 13.53214793828457 1.572124167896712 0.584885859983225 0.5318154625208067
P 0.326834497217589 8.330476838845893 7.6496120588493675 -0.5926796449960309 0.4543177852539595 -1.2429643421000398
Ni 6.629021893127657 7.026554944794346 10.30851091976392 -1.7437219068737775 -0.019005337457909204 -0.5424582869466335
P 5.932683552060414 9.065433532524873 5.884413420584246 -0.13796513852428496 0.8351423864147747 -0.10943412096412766
P 3.26428086814255 6.420741243566495 3.8088932829181066 -0.5440755108350823 -0.7041665347241292 -0.4741098802792222
P 7.433630213073875 1.4772269017589688 0.8247930578353059 3.060094843772956 -0.10950225519790174 -0.08854262222709912
Ni 6.903583022753288 3.227423002992261 7.7194828096197865 -1.5257607501408237 1.0307192619152572 0.13993614620772676
