# total energy = -340881.1245089248 ev
CRYSTAL
PRIMVEC
9.17278159525315 0.00000000000000 0.00000000000000

0.00000000000000 9.17278159525315 0.00000000000000

0.00000000000000 0.00000000000000 13.42529306362704

PRIMCOORD
 96 1
Ni 5.754076688875543 2.9643678111138536 9.65075867775145 -0.3490200550557086 0.3811094793910856 -0.7182736635494726
Ni 4.887468979859259 1.0850758470157844 6.325380455300948 -1.9288487906855296 -3.0709112176621693 1.3724070449756105
Ni 2.839287761999305 1.9126258522237851 5.02798682030996 -0.7774602012119578 -1.6372275852642644 -0.2045626239388606
Ni 3.897945998172475 2.850983058466088 2.7754507061319114 -0.7901223700606586 0.42648019421640093 -1.0984544604787017
Ni 5.876579186376627 2.9600107398811306 13.963916136117492 0.03165773611459709 0.6250243798753237 -1.8872583688382532
Ni 4.968648096511044 5.135179945416487 3.3799782873045228 0.5992763243769421 0.3766961808147384 -1.1399176127194948
Ni 4.987067041848534 5.034205966195826 11.835147446015249 0.9914536315464151 0.6168966085618667 -0.9163828185535057
Ni 5.794436927662871 8.11960862976395 12.8017283837859 -0.7914135780682564 0.37126832493094764 1.082200717624001
Ni 2.7129051779057116 5.764331858640141 11.946429797133458 -1.4379238957314977 -0.6959138077970337 -1.3239409790544232
Ni 1.0792786490808772 7.579340969687847 11.593411630354854 -0.5470361361253031 -0.20067434462804795 0.13362717327056342
Ni 8.090916169098778 0.12616335461472614 7.25783405934245 -0.9915927282274406 0.32406209955879034 -0.04052469958692376
Ni 8.732304572900226 2.549189372933839 1.4263033203995616 -0.05471513215469287 -0.7775615026765125 0.6306121583757461
Ni 1.3926116937936852 1.4228176634133833 2.801643583826733 0.5037708976787647 -0.29349733939805583 -0.7193594404144836
Ni 1.7578443364743803 6.547907549133038 0.6210404225055547 1.9250872667605685 0.5085616341991887 1.1614315755318707
Ni 7.258284442916191 4.069183484009258 4.059445659123661 0.5314369961354654 0.4759515614736513 1.0570848963929795
Ni 7.9251640066244535 3.8922313552714503 12.99874413759178 0.40129392475876047 0.7040585483913553 -1.1030515929310811
Ni 6.884933888570317 0.6270962928799625 9.479934884362237 1.942545828556648 1.5047178134275956 0.6227132152436436
Ni 7.421670027752531 0.5144279344706721 0.4916354068936826 -0.37191110072126915 0.5311819427018658 -0.6243412377653699
Ni 1.7699524081105789 7.1148221395903235 9.108497772246144 1.6673064069275156 0.09708896913521343 0.8573099236507493
Ni 0.08130203192445626 4.848695632278795 1.3345186337282513 -0.5074249494915841 0.08792658590965502 1.2191577265987454
Ni 6.627600675174927 2.3214200344501674 7.062469406214232 0.17499545180470508 0.835083251042065 1.2383366135200415
Ni 4.012669976925456 4.355117430254396 0.7784040762591943 -0.5527488702393641 1.415360151498369 0.3068765889184392
Ni 5.786869382890247 6.1769877818959475 5.29951399586433 1.1560296877900091 1.7562465217033494 -0.6877801229463059
Ni 6.800984591892673 2.1203985269446437 11.738686475313534 0.14259312421459958 -0.7858612807914596 0.0951441867040168
P 0.4030914639413637 5.631555845811373 12.822806518492582 -0.74079832701455 -0.19969501143391413 -2.1462327347587746
P 4.141171473555384 6.581067154409446 13.228612208492393 0.6358325262344211 -0.7651649287843725 0.3486001939094706
P 2.444674700037743 8.864649464996493 1.699696239719691 1.0052131472243526 0.5125622707181495 0.18347520714094206
P 6.219136713084078 8.360641810358185 6.2917906465701945 0.22480980422367092 -1.6902858985418243 0.5721403873920985
P 5.2269719703130315 1.2044687715739362 12.950883315337089 -0.9779522546258705 -0.7352061776387532 -1.1914152663781545
P 3.901642629134132 6.402968427978816 8.757304988994512 -1.3411167195027611 1.451666956349203 -1.112685002255787
P 4.74111725034748 1.2643762078284912 3.8620272202080606 0.06265547004769209 -1.2703023677933605 0.7690238975191466
P 0.04539976496681902 6.012235452609763 3.5987032631872156 -0.10599141383116585 -0.1692536642249214 -0.04371955237513761
Ni 0.518706119782129 0.31578584649729236 4.859029687964661 -0.0628480456744724 0.22171316757621817 0.43069911739375505
Ni 1.5567311011534308 7.035963736668808 5.028121660198637 -0.1510332845621528 0.20683882156754702 0.18414677928666995
Ni 7.96027741436943 7.453976564345479 9.341896446762494 0.6725334811998804 -0.40805875428641986 0.3594985859895293
Ni 8.890424981131128 2.850469382699704 10.618547670851257 -0.46566843438008826 0.1571316841504068 -0.26416645164442243
Ni 3.396653486870769 4.275497686464847 4.624382597880366 -3.0553059070247444 1.1426859194932513 1.3057650794763447
Ni 0.9478051712311546 1.5779385720798635 7.0551256773112465 0.72396274351445 -0.41251858982998635 0.6653917279487765
Ni 1.565830500443665 1.5799198928930598 11.39302579661023 -0.9050527382526671 0.14477856190169258 3.3783421364221815
Ni 4.397202151971729 7.09168838453995 1.9113994513315429 -0.3838849852536937 0.46832412683538055 -0.07943166106476643
Ni 5.648855711800669 8.211850120956083 8.607075924724688 -1.5539881204176333 -1.3295159020390392 -1.0614380311553526
Ni 6.7741450330991 0.7524010751423036 4.992490907574659 1.8225488444750095 1.8965030273649723 -0.6487374072215472
Ni 0.4717589065690776 7.682452207007929 7.206952640125789 0.8431560007478704 -0.44009238568319686 -0.5688311205132074
Ni 4.671349073934657 5.126915269246627 6.919610671913866 0.17020240129143593 0.14571907143809099 0.9365682923624452
Ni 0.5910197430730163 -0.07857863308446583 9.586290534513926 -0.8121397548720142 1.3288322457084534 -0.4383224382669677
Ni 4.826543364853478 0.7503482066330754 10.596516484142303 -1.1247666160106695 -0.768482937414012 0.8697895441749989
Ni 8.187661496028312 7.540439203165787 4.955248497233652 -0.009430806395596661 0.6179240213851164 0.8913783260893681
Ni 7.477523094565267 6.492311320203493 7.191902857448886 -0.15202264505861557 -0.5286010693485671 -0.2060296954026903
Ni 1.9276783867351504 5.300418432124427 2.738168852830271 1.5399815217258963 0.7254334145227055 0.47933796144738094
Ni 3.5428859702224944 4.363602253181278 9.326456820870032 -0.2616647682684913 -0.9412839526705596 0.7899398217362072
Ni 0.9440810219248693 3.4673481142193925 3.9692286008179765 -0.09586049604475103 0.13123090512424496 -0.304604762165127
Ni 0.7043155197398187 -0.5596635066478791 0.41336222743458456 -1.0740644616701116 2.2970587884061278 -0.9443466507562834
Ni 2.483906686695335 5.49391825876504 7.2775555396589855 -1.993975347981534 -0.575644543890615 -0.6564702570894307
Ni 5.072337219068309 3.0131670089203504 5.229876990227566 2.6403504256184913 0.900989623926887 -0.9728874385084536
Ni 3.8190142129986193 7.491337303568385 6.633370354765207 0.9539222102598606 0.27005350655281873 -0.4756921371646775
Ni 0.7519011585482333 7.986364805076511 2.6857564963741534 0.16130561302243832 -1.2559016189869983 1.1308848130932654
P 9.698015013702488 5.630143237453816 8.160094535658413 -2.157146296347485 1.092314666129551 -0.38171677395778136
P 8.260640145981037 2.05575793541412 8.483563503975766 1.2826894286038037 -0.06477868703828199 -0.07891384088808344
P 1.8542135793606696 3.742430659899664 10.707960276215658 0.8643604027396274 -0.3525522365786831 -0.670245199386336
P 3.586630965399033 6.472681567702384 4.639606663406577 0.8947824666749106 -0.7416218513571099 -0.5859708655172876
P 6.90706781043255 4.218121937916043 10.887443175381064 0.6716922162455077 0.8774231494608568 0.828653179146005
P 6.381981103809406 7.715676021755134 10.813764642196642 -0.25739159481443413 1.2343832852992485 -2.026573336522213
P 2.286572637369926 9.070982013015167 6.266712261832795 -1.1208955630910373 0.39709222797258714 -1.8317896463469872
P 6.443493776833912 4.23314695408278 2.1348896872256033 -0.13330989914046074 1.8450742792710353 -1.50690582221785
Ni 2.8281520052066194 1.7160898348925806 0.5536700111879608 0.7845649305775392 -1.0828049268669029 0.36640611174263993
Ni 1.0648498637144073 3.5847413724012624 8.54925346171476 -0.05364786723244309 0.003334977910503934 -0.3863378176695605
Ni 8.15245636046791 8.731800069915385 11.723999934785718 -0.09515061446192 0.7260990731311624 -0.009499969070635252
Ni 2.382153021043554 1.799929058191713 9.340687474155182 1.4760633829156966 0.8928687945919656 -0.597902326847551
Ni 6.3368143274937685 2.1398723421595296 2.5395019983467257 1.631440289158526 -0.7607493162151802 2.7445348681479054
Ni 4.144501193255339 7.357212891852858 10.829593194026508 0.24618955545102764 0.6982666242999264 -0.517489789926754
Ni 7.535027262055669 6.217779141415776 11.70677528560507 0.8906147084504662 -1.0614573144290622 -0.46686065491597656
Ni 7.8867850886503215 4.313179473041744 8.845039892614777 -0.5020428592440644 0.3343082027668307 -0.8075032845412673
Ni 2.9650649425110887 8.501003713522664 12.972055012415506 1.3894537160452523 0.05705355047988238 -0.4586662920306423
Ni 0.5438899915072677 5.588067688518026 10.410093458461787 -0.8199530802688458 -1.4799609181978899 0.42591095197649237
Ni 8.59899653874199 3.048950029717934 5.911948514726641 -0.9534619827939903 -1.6507629007465379 0.0013320885478622219
Ni 4.267233010294988 2.906524250706377 11.866790790502668 -0.5879603851434906 -1.1994134540922827 -0.027294316939578796
Ni 2.159034282801968 3.6561331311471217 12.854315023091326 -1.1412815829465568 0.25229875367255905 -0.43921332551235326
Ni 2.921806104756307 9.046848424776654 8.24756067677948 1.003948164469 -0.10430219905420102 1.058007922427881
Ni 5.61918176351044 8.305247382622577 3.8387879781699477 -0.7007698503377544 -0.015721010279682604 -0.3202972331997193
Ni 3.133578112229728 8.48178673619097 3.944284138691099 -0.06475503288919815 1.3484505341600133 -0.42410372356442444
Ni 3.721195670628603 3.086090622183819 7.127152192539852 -1.5775484242360767 -0.8197247663081239 1.3228150929800961
Ni 5.693939933082423 5.593158582274155 9.182792716350226 2.1348712869993687 -0.36764641190764424 1.1624507608250043
Ni 8.063122641024776 9.359080735704353 2.8066115623101915 -0.1142873352913709 -0.3229213010861277 0.5828654871190865
Ni 5.032398928231938 0.547820528398261 1.5400559015871844 -1.5058017905203938 -1.0667794979729242 0.35568281178786487
Ni 6.387026133657821 5.7061855964417605 0.26519795628999304 -1.9335824487157731 -0.910707108324967 2.0460216750548117
Ni 8.19954942090749 6.966874346090136 0.5491038005360671 0.5721745830641436 1.4239769466331025 0.767505403992091
Ni 0.21766276778006263 5.1129634685203715 5.595769155901173 0.043394307825234936 1.808249911353834 0.934534549761868
Ni 7.142789950513634 6.622830828772789 3.0930399214804734 0.31395432170082704 -2.070096199505512 -0.9332225158186638
P 8.405276565344355 2.1241868857217274 3.6661525604260756 0.1668813073380029 -0.4134058775309461 0.9874648221019962
P 1.8606528720035571 3.404432005618873 1.559495777510363 -0.07075881588111685 -0.2288893736096832 1.525990863873759
P 4.625907114172742 1.5695454769684078 8.574465769062682 -0.8809298770625346 -0.7682456245922253 -1.2872636782380475
P 8.828361941214068 1.8271171826839043 12.772004902475341 0.4160983367614447 -0.8000722821845189 -0.9233649062982937
P 6.527030298342138 8.104436849092533 1.7653183188752704 -0.20479865120906662 -0.1778799724413517 -0.9922429602169299
P 1.7180803284873192 3.500168326578724 6.093968605266721 -0.0291316272586337 0.021404433817705074 0.32128839346839505
P 6.610135699117865 4.495020694341744 6.543460584641198 1.8240382845363425 -0.7210059748789711 -0.4116490427408394
P 2.46115818846975 8.984409300816347 10.729440178753904 1.1412543292530473 -0.5366049134896501 -0.8394626110566834
