# total energy = -340862.9255779813 ev
CRYSTAL
PRIMVEC
9.31528904195220 0.00000000000000 0.00000000000000
0.00000000000000 9.31528904195220 0.00000000000000
0.00000000000000 0.00000000000000 13.63386711674675
PRIMCOORD
 96 1
Ni 1.3762407916572283 8.269591886753448 9.205750481847373 2.28640208002323 -0.8463189718568843 -0.941081092631134
Ni 7.155436750120425 6.466040159703636 9.917656536518667 0.313464269438286 -0.9576518525056216 0.1871734819281357
Ni 1.5345075511689128 0.859789061573934 13.499341361620084 -0.04686786819613219 1.753662048805625 0.5853293752785468
Ni 4.534775820946631 3.5590924547751266 11.759850876781094 0.5157987753775762 -0.9760239272549062 1.1338644645468794
Ni 0.7484937151382773 5.880788499913134 9.90887594514046 -0.9608996700189579 3.3419548560423986 -0.6061514542302205
Ni 3.135544896124315 6.7545905506767925 1.552065939338635 1.0470599080568097 0.07944837323531478 0.5530530317433443
Ni 5.383808518352928 4.518138714855526 2.3421486935890883 -0.8793345075509567 0.7551548528465382 -1.2937636841400943
Ni 3.924587132597402 2.7328263235987618 0.45128103695676697 0.47625366609510233 -0.911892643992636 0.18736374356207086
Ni 8.00997478330491 2.185217746514953 0.8228995857444918 -0.5766555016536327 -1.5385005663049955 0.09389308790573507
Ni 6.5986991898511285 8.076178541977631 8.279056220341669 -0.8373864452539449 -0.6773262746028336 0.08718405131667566
Ni 6.162026389048936 1.1275039457195586 12.969583672779493 0.3508252265852474 1.8124194693504916 -0.5557130950740107
Ni 8.680675588769377 8.657312844045698 8.9070464259026 -0.46801585156634234 0.4338996266089237 -1.4290625886861261
Ni 2.3321757452233904 1.474954908817047 9.760185302684574 -1.0123114488320308 0.4499952466192056 -3.1856716359352166
Ni 7.654913229123193 5.952124982805452 2.829395129709991 -1.4515921372472098 1.4148999240324986 -1.0177375049436084
Ni 0.4043450219788049 7.207937718725949 5.037427881957494 -1.5104038080687794 -0.24184002023308027 1.1154358255280468
Ni 4.714095133518728 5.535573206167195 10.661520553041447 0.2501968768382078 1.192749926029178 -0.009247486740196976
Ni 3.8471118742772914 6.48680393880614 6.690983894567453 1.0302788319437288 1.1234661520316909 -0.7210903070626614
Ni 2.350452342172297 4.473704786493506 10.884475473711284 2.9606633425474946 -0.5546368312906964 0.5051729202326138
Ni 3.6959340496678075 0.302760864288936 7.983692627019669 -1.069482498726384 -1.3403363896933111 -0.41074864241375714
Ni 2.1452272109891344 0.009418688672293377 5.8528417014898855 0.10601095421519162 0.12907554934413898 0.1563130449038534
Ni 7.313107331138363 0.17008879273689248 10.407944414486572 -1.2866422426039648 1.3215133434495367 0.4370381722379053
Ni 8.032815871846562 6.036977949985672 12.225515651428385 -1.2663906914437804 0.12457380481904354 -0.05652981676592845
Ni 9.476722922543983 4.1459649748455005 11.093713631380474 -2.2093312058811563 -3.1468765174448903 -0.7222961544453044
Ni 2.928969048041259 6.186721220094579 8.877856036402553 -0.41599394997309647 0.6170279919334083 0.6083404914617394
P 7.370116899602843 1.6694488271127779 3.624168131954213 0.11194506031143947 1.066075272817048 1.2442630063068054
P 5.982828175233381 3.2875890426075243 0.6292999351893802 1.1377393741212536 -0.9881299664898208 -0.2520300733922046
P 0.7047370082839962 1.3714899942851881 7.42055918934715 -0.5384036572612856 -0.5560311405350618 1.3825119946200963
P 8.53398773344092 4.624547260700258 8.80165604114172 -0.19413731484047858 -0.4717274960899747 0.08465382869565422
P 2.6688675495665524 6.618065675608914 11.352988863724006 0.4714950683641944 -0.0014727278907845605 -1.4865398569669883
P 3.096178484959137 9.312485062805871 1.0966824491217768 1.0778846067471501 0.43491238414415423 2.2470225497843432
P 7.9459880634058075 8.613614823511895 6.491329306185232 0.16955602595668862 -2.0112822146910974 -0.08353359904828195
P 9.031694307540379 7.753226788857527 11.082779345193611 -0.5859194434540619 0.5079857070910607 -0.5077172839210223
Ni 6.6229934634712855 4.483541731640318 4.343491019699268 0.46722138068950503 0.35112964519954365 1.604543978988314
Ni 2.123159291431561 3.7989611456183217 13.416366356695166 -1.9936842991036758 -0.08779700231032622 -1.2611261006107313
Ni 5.205905129703479 1.6533147466257716 2.1377768428751 0.8612056591607298 -1.037665097105471 -1.6495526824885203
Ni 5.509499712354762 6.547446469966886 13.350514715945312 0.29030480060268715 -0.7268534347986837 0.20029664957365506
Ni 8.615086639168332 4.000385638903852 2.07985996526545 1.2555483494126376 0.28884749933087034 0.6977475185716628
Ni 3.412730634560436 5.632480157267844 13.096160750761879 -0.0068648454406333385 -0.006661728290891753 -0.34197986037947553
Ni 1.4688254486782193 4.004149015645624 8.79978832570428 -0.6871188352132231 -0.8668456310553264 -0.3871536287026365
Ni 8.601616731325253 0.33428287061686945 12.707459825070533 -0.02758716558964926 -1.3092630653272743 -0.9970565795554893
Ni 1.7634400927674512 2.700828306004728 1.8034334228799596 -0.2973547654709331 -0.18196879779874467 0.840253739499411
Ni 5.455107740089388 0.714271206539453 4.42157177180209 1.531477598019943 -1.0870727010043213 -1.1039201115789634
Ni 9.023329178050002 0.9731682381510127 5.597997752106902 -0.7108393187586146 -0.15431015554121166 -0.3510959637481308
Ni 9.302527018902516 2.094347102663483 9.541457660146957 0.046886380138893444 -0.653593706872584 -0.46199047130786886
Ni 5.103381059357062 2.5415648105738113 8.087187350476214 0.8298371721517772 -0.3331139253484134 -1.2446931518656885
Ni 2.7709258554647294 7.206680154715703 4.352134676329691 0.16335812467609287 0.04133125464861914 0.7314724216279338
Ni 2.5589750856489926 2.3274528937182444 7.308802736107737 -0.2554087600564504 -1.321809020313085 0.22415031626280105
Ni 7.146913260717648 0.09975184035049589 2.1804911688942217 -1.1598184654084798 0.8209205863884379 0.3774171181411629
Ni 3.5301498519615415 4.2988754432024345 7.635415397791003 0.9781581999890898 0.4107347584566861 -0.054107580477681
Ni 4.3305287951047715 8.562520463540054 2.835149183703538 0.00497431328613982 -0.2814524924183798 -0.8769343827498963
Ni 1.8253215573605133 9.123515110866258 11.230298124297725 -3.7131059386691923 -2.686675791047592 -0.6208198548756727
Ni 2.8596446675653344 8.278916491007196 12.907822375414076 3.020874464819752 -2.0158343528381537 -0.029477183523510524
Ni 1.164448381753893 7.869910098430414 0.6218980065779627 -1.717947369012835 -0.9949847846281251 1.0847959891550027
Ni 5.405121899504355 8.783451171917843 0.6639034391068643 -1.3478188141132852 -1.1483986536073125 0.42993035754853054
Ni 5.978831916267489 4.810508374304246 8.144490350543084 0.8549625064644952 0.5427879023719103 0.2675420529848747
Ni 0.13747969218676867 3.2426707192193347 4.569185566853648 0.9212555732647746 -2.9151969826845794 -1.3887518048822214
P 1.6794161863050971 6.307493941523008 6.543874056648891 0.4825796083131301 -0.6674257276596699 0.7556747299057501
P 5.279263030301155 0.5847439765419206 9.257845303854031 2.598084832081061 -0.36176141388177696 0.5612525368350012
P 1.3960823571522187 8.620414984456188 3.7844618983446345 -0.07548604615345711 1.9371979339811733 -0.2338037801921651
P 4.571720256980965 8.537080409377229 5.786022202216591 -0.7112432390652526 -0.30910522113864186 -0.24986906118514385
P 6.693510200934703 4.424901987607001 11.538327716025144 0.07840939044783915 -0.047708361819556545 -0.07848780909425837
P 8.887493634365518 5.146631946020556 4.356374995866461 -0.4635333903149565 1.6819364981358647 -0.302427294897834
P 3.0364767979838345 4.563867468383652 1.789335664560655 -0.46372879415521423 -0.24191843887949951 -0.14201796843741993
P 2.5948203175854827 2.8086993522169292 4.93940030159438 -0.3040864277678118 -1.4108373239273508 0.12268275844391774
Ni 8.615133215613156 6.418168889713609 7.589728563063219 0.8991047481993483 1.6663561271991043 0.4465013745333342
Ni 8.123816929743539 2.2857110838670462 11.657651910019549 -0.874936378483261 0.3669470718477745 0.39414265842595986
Ni 7.041045001632874 8.203378812791762 4.3838197002145085 0.37722248563185357 -0.1259506305619121 1.0458720583962955
Ni 3.1589635325817826 1.1734190050269802 3.5887197313276227 -1.4244770261979727 0.02882386621022778 0.012312241708449762
Ni 6.7813440605836535 7.93460478029084 12.084309843655701 -0.3995604870074215 1.6088616325270613 -0.4954052993228887
Ni 6.57315666750969 6.508704183162347 6.344751371266558 -0.5562607400473647 0.03192435951242244 -0.7203446871458884
Ni 1.383068898468415 5.703835270738092 3.0697472840504583 -0.7205966552556944 -0.5995745723436513 -0.8290452723781012
Ni 8.77390300072894 7.961488704243208 2.8496558832083965 2.457695143275683 -0.0695118308478932 0.04663801157351323
Ni 7.886416790476011 2.735779270200598 7.843468650703874 -0.43823553498011625 -0.05545483853419482 0.5536978644161948
Ni 4.911746934773521 2.922476291632804 3.882257528012526 -1.3090236956229586 0.8806977064470703 2.672180939865527
Ni 5.0184069934203 6.887016698600166 4.299207999018477 1.2780984667990116 -1.370084567490021 0.15211571899305415
Ni 3.364374969544241 1.248090361368691 11.652211781264114 2.850713458289213 1.8739004594741084 2.482731517419021
Ni 0.9044959279026231 5.764375333720225 12.365099667392299 1.9950408131315707 1.6852177399902977 1.7393957686945978
Ni 1.376986014774411 4.0659373273490385 6.451054654345986 1.9465768040929121 0.9183008615118249 -0.4867118853139488
Ni 3.6930835712445833 8.310383537130239 10.025036667002425 1.0709202596141751 -0.12908583375678415 0.968881402672854
Ni 6.599146323721437 0.7333172463568509 7.263196944393946 -0.6613872347750739 1.2456470311385257 -0.1331821153133448
Ni 8.619660446050041 4.4014926664384975 6.4332903982901435 -3.2098227792601235 0.9635219381331536 -0.3884695193005826
Ni 3.124627377457588 4.792250407933268 4.793545233099373 1.1796876935285814 1.1441972139314551 -0.11129251432910511
Ni 0.20498013908338844 1.0466658680831606 3.139729323927296 -0.07097735964982614 0.5336892825047519 -0.585579800726456
Ni 6.3052303263045655 2.68494573831977 10.149350129766368 0.13266506646761023 -0.1038010910480664 0.15709363182361977
Ni 8.522408829257694 4.041764152485424 13.279781863777913 0.13705573933613815 0.30132506297259076 0.2901657039216616
Ni 4.346057381809066 1.495299499916136 6.14673347915545 -0.2807696074187423 0.4481450807843443 -1.3397072407497443
Ni 7.813506023748644 7.6462220645190495 0.6942424037362703 -0.4668958790292862 -1.1396571599692567 -0.7027891947606284
Ni 6.792736658987585 2.5098835128045796 5.791912259429024 -0.45273964213356216 0.4411161989620209 -1.254377469032988
P 5.037335660596742 6.8815206781109435 8.973756936295006 -0.29704983263600454 -1.3180133007160784 -0.5690319236701039
P 5.638264951714976 6.659583918524959 1.859441597780725 0.21710857892467128 1.2533461995549962 0.6705843278933096
P 9.050520506538207 0.1746961346588748 1.1233744781214696 0.4281822645091723 0.3308984057543333 0.5496427205102147
P 0.9347706170381721 1.6747958029785641 11.465632132472866 -0.8940769559674538 1.6822357745438383 0.97160060137623
P 5.141387438333383 4.518958460284427 6.107413644435095 0.7472677367889776 0.18834590496968207 -0.7936725493057621
P 9.299406397099315 5.919446949116989 0.7260634308399734 -0.8542348842698515 -0.5352913368845491 0.9367397849433029
P 3.981922736175649 2.793655160538803 9.788366846389735 -0.8837963999770522 1.8256318542757075 1.3688823196518038
P 4.818333217034664 8.98559294245366 12.145717160040457 0.6321841308485564 -0.5381038666326797 -0.5017636374407488
