# total energy = -340854.1197608251 ev
CRYSTAL
PRIMVEC
9.47382602952743 0.00000000000000 0.00000000000000

0.00000000000000 9.47382602952743 0.00000000000000

0.00000000000000 0.00000000000000 13.86590202321992

PRIMCOORD
 96 1
Ni 2.4750655222346305 1.5343714212491282 1.2963178528309638 -0.6565671876786112 -2.5533995733585444 0.9737945237037552
Ni 4.9739861388987485 7.759243679326495 8.356591159868906 -1.3154103158755928 0.45415452020321784 -0.7678267918872519
Ni 3.841248106547029 3.0325338786739913 2.2597955585001333 0.7934714890385496 2.2985842239117185 -0.5342281857273573
Ni 6.55809514781857 3.3225845423170326 10.53700458106399 0.5632783090157782 0.4218326681420606 2.6776460767451566
Ni 1.3948788039418334 4.530648966967739 1.493509861366753 -0.17089891313782826 0.5173694622988058 0.933482968568902
Ni 3.3190508051358574 8.34908409996981 3.200846822734242 0.08425916436039682 1.1886880972549785 -0.45017162429606983
Ni 6.824537036513922 6.584688178026501 1.9031647389271675 -0.771062268105414 0.5125656131522592 0.0003440136029800527
Ni 3.649857869190199 2.233075579020814 8.223922539590031 1.5737501335359092 0.505984874610948 -1.1409964476059704
Ni 6.333120196501243 8.739064682612943 3.078410882158817 0.8092719464059158 -0.3359431672670924 0.008107716708798939
Ni 4.16039289052087 0.4690955580486942 9.776529181553169 -0.7506394814746878 -0.45382001968193453 -1.15529975160252
Ni 6.962438051015755 2.586458770964539 2.5928820251437257 -0.012137663803798451 -0.2734082819576646 2.21196093019452
Ni 4.678109072128568 9.242409069840365 4.987939190159966 1.2034336309952693 1.0117296081866316 -1.2718296030711644
Ni 5.126240000128409 5.131829557599972 11.639371421310049 -0.5574935840132011 0.2525854316750424 -0.20954207943132297
Ni 1.3229819367355673 6.456308358878773 9.441514791273198 0.2077021980091068 0.5755776952084216 0.2823711475779072
Ni 8.384383576476669 0.3921027197170822 4.026297512012812 0.7966658276061312 1.0983377323951795 -0.6322802901067884
Ni 1.7284711729057334 6.930473361339389 4.404656552028204 1.202447098712284 -0.6613478968967061 -1.0979752068494382
Ni 7.122005706089563 3.9883292586589385 0.8582623390192721 -1.0911874945036435 0.2818790384328371 -2.5067538484755474
Ni 6.04338216912356 1.0273985585783003 6.566447273016758 -0.2602519470813647 -0.7595658374300404 1.9386200111396807
Ni 6.621313990204578 4.799753000831751 3.7998815917269684 -0.15279474733794976 -1.1751509820004922 1.7158295513388835
Ni 6.4174277760596246 8.50209586729731 10.021581065402255 0.9523247838657536 -0.11675893676031504 0.611330684438315
Ni 3.7014428529743753 3.2075533443174957 10.289012968937909 1.640912747425335 4.369351481342327 -2.3256962496371623
Ni 9.06044528957541 9.049683022986093 10.050921505214854 0.49868911228048307 1.3521837759502002 -1.1808896842564822
Ni 8.385558330928319 4.823371249605663 2.4606984647674666 1.5634963170183849 0.8764116774772067 -2.707483986042195
Ni 9.131745305729627 4.160440259651986 4.252131739368565 1.9618743536819307 -0.1538905515052898 3.8238528649074723
P 7.892625678719961 4.752838613375508 6.120935857967573 0.49963013603751366 0.966924021836167 0.5736275134605863
P 1.8944336606800605 4.915352628404667 3.9774059370238315 0.1722932223821936 -1.1592314825567582 -0.6431077197395957
P 2.575563870808101 8.586507658944146 8.791564838010261 -0.21991185270142127 -0.5725990721960719 0.13398892748535632
P 2.46460641808445 1.8987253039590748 6.354396515432832 -0.2925195488658188 1.162268212500553 -0.3982140002818561
P 0.8735076201773063 7.092399999142722 11.773648697281589 0.19641839756517138 -0.5082081075145118 -0.2012998940271888
P 5.501299306470333 4.82760604992734 2.026363322513543 -1.9902084247399339 -0.2860550241873977 -0.2927964566762893
P 6.584602913590493 3.005362945066458 12.69919793966702 -0.1050871568493416 -0.6225707761285084 0.3978920981660631
P 6.299535482540745 1.0350060410353608 8.812030197417162 -0.02312347339134082 -0.008684158037559238 0.4743785605595766
Ni 3.077240864620278 1.6797283369884533 4.075091506591697 1.445634377001878 0.27570710529417036 1.078918190217987
Ni 1.4456869339757252 1.3855944542433039 8.592325535627683 -0.4568603491701551 -1.7087155660019215 -0.15766647360795427
Ni 6.997112254991896 0.31297542833743075 12.833059314667368 -0.20475622800690543 0.07012452473122763 1.0511209655000606
Ni 6.097922986689309 5.902686375885946 9.744234802724243 0.8083864584771691 1.3558041463116068 -0.527163308460776
Ni 7.811074982592468 9.306490030412665 7.5418724209357375 0.6918118698135182 -1.165379247325709 1.293454637540108
Ni 2.0667246643713444 3.0783208808096987 13.652630547391954 1.0654813479867908 0.030032027585716024 -1.041120145533607
Ni 8.358444240278123 9.095536341905362 1.5442317795820155 0.6901522227229082 -1.1454195163743306 -0.08762808083262973
Ni 4.04161005733703 7.4264565855915485 10.438445524718365 0.14508837983262754 -0.642384468420326 0.3862421726319606
Ni 4.672775307965025 4.02031289598775 13.563251628656404 0.44243106111870256 -1.6282084124847895 1.6220020265637614
Ni 1.2631263026587207 7.67334449696265 6.936680612280691 -0.17730738776733335 -0.5662757010812054 1.6335033423351415
Ni 4.540397534151195 6.476307606035503 0.08388883643932588 0.3482708355945099 -0.48287091430130386 -0.5304080406503188
Ni 8.64851385157361 1.8112818879208832 11.042957112650603 -1.093502515790065 -1.2102678803082834 2.018163772302279
Ni 9.109652342977615 6.610295930307241 1.008054900196201 0.330067939433238 0.02156435643433706 -0.46733605189049837
Ni 4.2017935111153335 4.698553589117779 4.109340335770425 -0.5471227823018384 0.1416454155893496 -0.34500964834473485
Ni 1.8241662915841486 3.620934277731412 8.6570232422871 0.681919807510787 1.7814695579361963 -0.5223864558974229
Ni 7.417494345984601 6.59691888768038 7.307788385705007 1.454529879719295 -0.06530242075223593 0.08021301931548121
Ni 3.5025398714227145 0.25867619334036746 7.059199922526878 0.20174263799156225 -2.145351360595086 0.18545161414102254
Ni 5.09436057488805 8.549995532680745 0.8000068341914883 0.7872144523852442 1.291457661714737 0.1169563974831018
Ni 2.884751663421581 5.925414084994896 7.4745949913958025 0.2878828214247558 0.45964562522477614 0.8967784140590168
Ni 1.0104025143342574 8.438460176557491 13.611393823991147 0.9736495134854586 0.7433668590726746 0.23546214173119445
Ni 9.122138845939515 2.9849468495559157 6.7560640101046445 1.863200556558101 -0.07352480866202821 -0.25643154489401
Ni 5.78826150276468 3.4642561396556144 6.533696255763883 -3.263513069694728 1.2076386702155524 0.8921288311021474
Ni 0.8986767343039221 5.049738853377771 6.602513182065055 -0.15320021030648454 -0.023503739548895005 -0.6385229285823907
Ni 3.4534843992400757 3.908834382821835 6.2415139812206695 -1.226297165857004 -0.28400096987184636 -0.20302304736588261
P 5.783354060781171 7.959548787159157 6.429313638438987 -0.4897722694068275 1.1403868390464296 -0.6147906179624574
P 2.9690876644586313 5.568847687440247 10.775386891252092 0.13911185053421848 -0.5704254615835208 0.1108050331697253
P 8.335261787510468 7.392038174923428 9.117468249611582 -0.39445581879100455 -1.4282814875457273 -0.5575195521551303
P 6.961718040222807 6.623606656150541 11.857939223952767 -0.40410182652120086 -0.39477437847268787 -1.746474015697618
P 5.536494570888739 8.121683849139398 12.47136662974346 -1.4234827806055033 0.9730417046981307 -0.08940985532340086
P 0.6898527619315468 1.460958741847184 13.202127373305876 0.18051689584356653 -1.0161015120020824 -0.642268768778068
P 2.8525311804371936 5.138366497693836 13.669131110524534 -1.4265899587759174 0.00789071560198641 0.10131843383552873
P 8.626155621687357 7.211741788073718 3.1354963694480613 -1.1497122302124136 0.409388785951753 -0.5424724280140206
Ni 8.638121064206992 5.593716481275595 10.60407358642702 -0.27544999497804173 0.7723552758852247 0.7869663409301801
Ni 5.316010213201109 5.882999764994573 6.887651666811476 -1.2943776635750095 -1.4703329081898224 -0.556817383881783
Ni 8.651327577961839 8.366781207354354 12.13102794912617 -0.7707971873694854 -1.0073160524999685 0.4720249727257354
Ni 3.4161480500952752 7.563542851038204 5.732482456111586 0.8188457061372801 -1.0927674373962535 1.0467657738551583
Ni 4.9408656424231765 1.4028462917953675 13.533009280587379 -0.8527968662717442 0.7458155777234833 0.03200663481358358
Ni 0.6435712260669995 4.177909995207178 12.17056033118946 -0.3011700254519652 0.7112512094850525 -0.5705871839723657
Ni 6.589273509918428 4.0058558371714685 8.603195803835941 0.43758144633588514 0.5806286273687677 -2.9508954645274534
Ni 0.9986644436439739 7.927707257223691 2.291700563071294 1.555320980296444 1.3197948180965333 0.20737181125288157
Ni 5.940155358597868 1.2180214160110685 10.978286880087232 -0.13231616776862373 0.38076238046431193 0.6333447268155609
Ni 8.015359097438788 5.531189228203865 13.212762690623803 0.6871175496616424 -0.8408672047136938 -0.07753984335869225
Ni 1.4147738390101108 0.7556930120334557 11.11013696178044 -0.4696348752270041 1.0020257506353067 0.6012110795058098
Ni 9.218307655929081 6.6401384829096575 5.126307264294593 -1.7031964359559058 -1.2220047091292374 0.8030151668629267
Ni 3.2181261343823517 9.086602523777083 11.758590050500146 0.741344172215691 0.10117419494818058 1.9918709000440211
Ni 3.2504413556289684 6.215246850634808 2.120568208327082 -0.4025591646244293 -0.5412575817703129 0.21912200981027424
Ni 9.102973295490408 4.351991552054606 8.704403741993513 -1.4078772128577626 1.7037106565881623 -1.3988423563490038
Ni 0.04010175901929152 2.535716957714208 2.7135984662596777 0.32448221781534436 -0.9350027476475381 -1.4129091188547152
Ni 4.782586427715694 0.8833395570315248 2.447691848745925 -0.22514970406159288 0.6976328473706694 0.461536928710218
Ni 8.32413951552468 1.917057157700559 0.3665593894546584 0.11324758117294689 0.6994549881810728 -0.4490488235455363
Ni 8.38489516309271 1.9912656385052345 8.607660818134836 -0.94098107671816 -0.6903741089257271 1.2598107242334176
Ni 6.18317794886999 6.838340401320816 4.551066009860904 -2.0394867021497713 -0.5438052878928313 -0.3819445736978712
Ni 7.368675719457536 2.823313900365495 5.407133263344309 3.281612607508916 -1.7989983108485792 -3.7241166879573995
Ni 7.631640713929051 8.210254650498124 5.342962301422891 1.0435302976369962 1.8821742694471262 0.9099136658893943
Ni 0.7936811604223983 1.8127977001165614 4.904189618966118 -0.1396445831092369 2.5247975933511353 -0.01987231344389481
Ni 1.5882680186317144 9.053955718612661 5.206743838458261 0.48196151511315705 1.352907284379786 -0.39275066317443974
P 4.277896757164607 4.400791230929225 8.268487418142973 0.5447362843475329 -0.11201756542058773 0.029944352967916168
P 0.37984643073240093 3.1684738111476647 10.184893723982013 1.175662888639904 0.29513256100863366 0.550986893242935
P 2.979328870605683 8.23378763483603 0.8572050600127864 -0.40689867254004763 -0.5105982050132433 0.6982491407984297
P 6.7026467883289405 0.8909347235144953 1.4161248066295091 -1.2561726132601978 -1.2306970946969127 -0.8659490873829859
P 3.3835486140619686 1.9845486957131349 11.676809140395436 -0.44837056653158913 -4.177022166244864 4.403372061262145
P 5.677161942647684 1.8340190708560578 4.722115942316976 -2.0685815626331987 -0.058728624189460135 -2.6912544115572103
P 9.318938638069673 0.6091471311031454 6.225554373565422 -1.7573310130167799 -1.2341092057022554 0.9042819215249136
P 1.4334562243218458 0.6566962649163288 3.253661509162163 -0.7896940242739884 -0.8678889847181763 -2.4929912474738165
