# total energy = -340890.36491745996 ev
CRYSTAL
PRIMVEC
9.07302312803263 0.00000000000000 0.00000000000000

0.00000000000000 9.07302312803263 0.00000000000000

0.00000000000000 0.00000000000000 13.27928646310732

PRIMCOORD
 96 1
Ni 6.509186430077248 1.84315743831511 11.207345718798265 1.4819573798026284 0.8879615870983352 2.0676953033735033
Ni 4.679148583268799 0.2615398732573712 5.735881777502892 -0.908327552349197 -0.020603278072648386 0.2394195837170457
Ni 2.503256166168229 1.6835629607202511 4.568473124710223 1.1194148647804527 -1.182716453052576 0.8162689465490394
Ni 3.717199447507588 4.216460693591288 5.059115906082874 -0.3078433237070827 -0.308747580688907 -0.6859741800858186
Ni 4.943345945013239 4.849503666345608 2.7625958313063985 0.9817366613689674 -1.2380005703368615 0.4746127880575697
Ni 7.189227662862345 6.024187976419876 2.4652592524263577 -0.1544140281089276 -0.29368374437724903 0.8316405439091032
Ni 5.379876308885976 4.597246403095474 11.582632268957923 0.5406533725274107 0.41709643900865584 -0.3191389512255601
Ni 5.599996924061012 7.83055430577267 12.389667699778695 -0.24114350838668794 0.1226087106728727 -0.8405201057869203
Ni 1.870612406433475 6.609869768216541 0.38450746360932575 0.22915136902181824 -0.10569959362235988 -0.3140412249876785
Ni 2.86268397912561 1.64167281273529 0.35047909020287227 -0.3698565321850856 1.1488146580988083 0.5005716740151767
Ni 0.44124017020130374 9.169197217587511 4.69234257356547 0.29072286197671215 -0.49753725806422705 0.23372304755290071
Ni 8.445850445202627 2.171201664120665 1.407126090716831 0.6354358050166347 0.7895335874367241 -0.6491665243391659
Ni 6.960551186836148 0.5396733985939487 5.055503935558115 0.2810963946305417 0.4580325151013854 -1.5584186453851614
Ni 0.8168959924040607 7.42061697281696 2.4816333373448023 0.03553084591675816 -0.6411878770090635 -0.2819795685664434
Ni 7.725887910460885 3.932393411100246 3.911081786971618 -1.1990105622269094 -0.8636150399331707 -0.7345975975204768
Ni 7.518614696097352 4.0410700826540396 12.89782595238482 0.4309240889203675 -0.41429342234222205 -0.512701110288859
Ni 7.979379104862406 8.843130910833445 7.092108208225 -0.4987186799668378 1.0219163189116465 -0.7135042671852873
Ni 6.86492152260364 0.33263154632130054 0.5433643044203039 0.641149053351328 1.011299976848381 -1.2909012749906348
Ni 2.0659818143953905 6.367184544412829 9.207339299700132 -0.04015446073169859 0.35101317422633743 -0.742451803457573
Ni 0.045918570273313274 4.962099883909691 1.435955621845749 0.3542496788857641 -0.7854360203285827 -0.33096859687063646
Ni 6.413520473752053 2.0541687382254925 7.288415766782897 0.4393506224211659 -2.1641561520064148 -0.5078316980116996
Ni 3.8385239133630993 4.225188941882719 0.7218996251889561 -1.3019747591959772 1.232750891902148 -0.5043537667654282
Ni 6.093560311592718 5.400789627297354 4.879022747235596 -0.8884477827061344 0.5319453032304516 0.3528368576986375
Ni 5.354970860278932 2.7494345038931467 9.434827209690805 0.1593171218374998 0.745386974826497 -0.7251037990974286
P 0.14681058794556057 5.7088278370087275 12.486845221764337 1.1316327470028833 -0.9671482220318313 0.6893857768705289
P 3.954676756010591 6.1582509668088266 12.697029969263754 -0.13676186224480316 -0.26976065790274834 0.32174939226521365
P 2.399814628984659 8.63285452579999 1.2551565817956913 -0.2568328940974867 -1.0005892752990961 0.02936739741852362
P 6.322753949939718 7.638006608017235 5.690214529971442 0.2699277796082319 -0.7303105401093487 1.0977252956221613
P 4.981153232570816 0.8577318550964395 12.570584689129985 -0.5961750597437991 0.7517905643599955 0.1095163962652888
P 4.0832959324963625 6.104366282190528 8.20861720102295 -0.4700745338675839 0.21412481370599898 0.11924416507601399
P 4.572567780067731 0.8290311608965636 3.6829968720562327 0.09150479017921659 0.4730205038697853 -0.9523337827268178
P 0.03179550240383304 5.56785120296274 3.60779602679772 1.1980957637221237 -0.17718885991159805 -0.09879489608272662
Ni 1.4483266889407227 1.0314303472121173 2.4435084939762066 -0.7000584260930265 1.2301160253824621 0.08472993334922826
Ni 1.6410014090205647 6.731357548489148 4.8614401356306445 0.18681172771334278 -0.38056491974152523 0.16061655737521371
Ni 5.901357388717819 5.874818795939821 9.30656188110874 0.7992240752516107 -0.4350671645544636 -0.12917762213964207
Ni 8.831789631868489 2.418777247414065 10.114261457225696 -0.009040512935713462 0.9004381222987912 1.2586897232550966
Ni 2.583488910077912 5.26887694340016 6.839417254467247 -1.757639031175502 -1.1337742188259183 1.0704867716211823
Ni 0.4419696412643297 0.23787470691793572 9.244507846426403 1.3957868573521317 -0.9584985167766331 -0.10249008554612672
Ni 1.6650539934494433 1.5688799478266173 11.388542157263254 -0.15419934099496024 -1.5849305756327607 0.5205720283965034
Ni 3.8439495812199342 6.698023261355349 1.9419499584253646 0.2938657784810681 1.1864571510419308 -1.262027272268762
Ni 5.5236020689530685 8.106591962756523 7.703765158060683 0.7899544770242266 -0.4140725645806675 1.4826675184957754
Ni 5.418699775038813 2.6776941096724216 4.602906154950146 0.5893510948434302 -0.023100590573205376 0.2746660656241657
Ni 0.6602375451076498 7.436331448950804 6.942968575231197 0.7927250977908283 -1.0191071315976254 0.5298729940824551
Ni 5.403629483550179 4.3279409293052185 7.394079287341281 -1.2869464041079448 0.46002229183790455 0.20800867350593208
Ni 8.07591607141211 7.3186815574799375 8.878278895299319 1.0612799083109337 -0.9113036042583854 0.3681341501773402
Ni 4.552652494205268 0.7110038316617439 10.490277478448382 -0.8985136515825687 -1.7428603302044305 -0.6159951797935198
Ni 8.176290926763555 7.139770613551966 4.613503446015001 -0.5186601560857713 0.5697626311885413 1.141003903805138
Ni 7.230264946669141 5.878339128930544 6.989831647216712 0.15855196153670112 1.093430010680917 0.1558250495238413
Ni 2.1210550650492164 5.246012925006809 2.8607695712363252 0.5177600128690051 0.16239936030724936 -0.41172051940872323
Ni 2.3121510790971365 5.35772905932321 11.459533119769976 -0.20912298961603337 -0.4665526367572546 1.3531155437358502
Ni 0.9334326239317268 3.280605572472647 3.6787080540028447 0.3509946622835762 0.45656467230660724 -0.1864324899970531
Ni 3.6735491330272656 2.684816432862414 2.7238739830130876 0.3174466511248017 -0.07368910215403439 -0.6092087529993057
Ni 1.2134442650649009 3.3636328075192954 8.242505849872554 -0.3129389930624352 1.6170696222591507 -0.6970322376721931
Ni 4.042222356596879 2.4603316935416637 6.794599241904693 -1.072697920339888 0.35730414944137173 -0.15602765245295064
Ni 3.913947954991642 7.009781410567228 6.185345735907264 0.6799739966383257 0.5186161902217133 -1.0899669918329808
Ni 0.6516571870939227 7.457353643640246 11.143764694316088 -0.19913296828285706 -0.7301449610657619 0.5674293550696744
P 0.09912005624676261 5.418355000158278 8.143163504558078 1.081345311602241 2.183139377977137 -1.192324151345669
P 8.73606923740426 1.8072101205077857 7.977106312557829 -0.19703751920640905 -0.5460534604970595 -1.1560263453558994
P 1.8489913922146832 3.4150768489043353 10.418291205299695 0.2906213034018414 0.4865475918219427 0.328346328756441
P 3.706792689929344 6.151074205479802 4.137055409394888 0.4325971057474163 0.3349404370341909 -0.5086840187096658
P 7.260596063133019 3.9964943198101768 10.444822539659155 -1.682630695989412 0.33298691285224585 1.0986046129033207
P 6.443887882308618 7.906187026934167 10.04851560941469 -0.9970434669293667 0.03886479538599759 1.433361730282112
P 2.310790125621342 8.691339233166476 5.855926039788839 0.07605503128304966 -0.6860124895229217 -0.4511283317823843
P 6.7499390999453315 3.776455361843689 1.6869871196653505 -0.13290983548856466 1.0369063645625756 0.509569763748729
Ni 5.449457323591773 2.6849162361173056 0.2859617297293485 0.5291721113606886 -0.146115021324929 -0.03558972417915161
Ni 1.73366419467584 1.3664698738832572 6.915587098600525 -1.132807741147591 -0.007075418789542654 0.47273434008793425
Ni 7.241606225634098 0.806261501944201 9.189186902239983 -2.0018529509573977 -1.132517720710998 0.756340388514207
Ni 2.778014526884835 1.8020566433461098 9.082514461504877 0.29283528033402473 -0.5650238309519753 0.67558383799043
Ni 6.350308721312975 1.6875732369622594 2.4402549078667404 -0.43933673846409493 0.11489385852711827 1.547733140646857
Ni 4.100198974665733 6.888720062383703 10.624704297066527 -0.020388848068997142 0.7547031100211002 -0.6157285563956943
Ni 8.09914301073234 7.083200314074767 0.38102251540897414 -0.05959148641038769 0.7461547062304569 0.14921602884775592
Ni 7.687853797324008 3.8737363162934946 8.386533741611274 -0.20632897181066398 -0.4574650726336895 -0.7453496938306583
Ni 3.003297692244718 8.70055742470919 12.368034890629778 0.3922001899876084 -0.8793589330309889 -0.7206542479665072
Ni 9.346937741526299 5.155464153750602 10.300636777317242 -0.7061300862084032 -1.6582808063901378 -0.5239088060792203
Ni 8.666787632463139 2.278834938009682 5.644892057320527 0.3899216783660769 0.15385327050945116 1.1688803185004322
Ni 3.93795517430466 2.9208329846347314 11.707098722737888 -1.5458387518376215 -1.317666973120253 -0.4431162601111852
Ni 0.9325888327767341 3.2897511798299877 12.9294971543712 0.26658071751286994 0.7283361899917973 -0.28627073974262957
Ni 2.935331675663531 8.460049726466751 8.054352217239302 0.16406234983196907 -0.13135123275219313 0.3876647640111001
Ni 5.536186352092583 7.658384618061468 3.6353371886362194 -0.7359026894851456 0.6160049499855327 0.14215140869149068
Ni 2.7516664675934495 8.333227008569029 3.528120366510795 1.7808661200242426 0.8038641451267834 0.44070327979431845
Ni 3.660529344775496 4.354524887199075 9.717516299962025 0.40391207910789795 0.6176743672681556 -1.186610903010976
Ni 7.377039242522014 6.0421797813698825 11.377718947921418 -0.5818974667788623 1.124290190594883 -0.11765059533664898
Ni 0.470325560583671 -0.05670730212709648 0.25213477743731266 0.0999907161630407 0.5997044130532962 -0.3398975239291501
Ni 4.505826621614758 0.14712451454731054 1.3248256048262568 -0.03658756931604666 -0.08969781887746488 1.114896408084809
Ni 5.948509890142519 5.842473468331768 0.3593561360743225 -0.7093251961069331 -1.5159980143271052 0.4845156489935784
Ni 7.924269562115893 8.782886036971599 11.579776988565706 -0.7549044273986288 0.3574003086996038 -0.3510579114213438
Ni 0.11244651268174433 4.940351847366491 5.888872001530878 0.37567776685255294 -0.930259833645914 -0.14091805050502182
Ni 7.95709575995206 8.568771763136404 2.6045328800229672 -1.0128971461321719 1.2851296626141802 0.11169874862858828
P 8.537188569474795 1.6746895440580696 3.514204163569636 -1.1094844930406182 -1.4722913174677739 -0.008802685893294518
P 1.894501676445258 3.4560052564330683 1.6375355141688743 0.08758180097572658 -1.107154302245545 -0.7542462249893397
P 4.627677322814243 0.9721381407833282 8.241961468482236 0.3269700172342046 0.28869040492771575 -0.4943133518102907
P 8.453190520948745 1.712106691619252 12.440088304149935 0.36112686562157165 -0.3919801035570023 -0.058101789238738655
P 6.062303746765299 7.674570891400252 1.4408160403589705 0.8376281289511057 -0.6018597688334022 0.8989576810985227
P 1.8036625684475476 3.2950679714087587 5.85653756155063 0.5198343788995305 0.716650783234069 0.4527661244961234
P 6.945680501857297 3.5946864156165486 6.055062566971754 -0.12177335925577094 2.5218217985522635 -1.768164613297174
P 2.203102413593293 8.502819957699392 10.249843271693633 1.718797889938588 0.618468838144993 -0.31189409673768864
