# total energy = -340893.3276304851 ev
CRYSTAL
PRIMVEC
9.05507378884816 0.00000000000000 0.00000000000000

0.00000000000000 9.05507378884816 0.00000000000000

0.00000000000000 0.00000000000000 13.25301579086837

PRIMCOORD
 96 1
Ni 6.574499486436044 1.886887156909246 11.573142723948985 -0.052716099446793084 0.03761601058056102 -1.0059232859175
Ni 4.547928766008008 0.40345966503668673 6.0234557062683445 0.3190327646649989 -1.0174773093036864 0.7389759290938306
Ni 2.9564814915652193 1.7584137743600046 4.926808434080364 -1.296373868069432 -0.5323697923623799 -0.5701392978016697
Ni 3.2603969228099468 4.2836564464633495 4.864783897257166 0.2846272906019356 -0.179728081393684 0.07738814827217641
Ni 4.849960741968675 4.6214106873067875 2.7910588816765234 1.2770147468165296 0.19182486465721804 -0.2112914580222619
Ni 7.1260259020202845 5.889564673255386 2.477624757188509 0.04325932490926744 0.12457097660556611 0.14906793330566587
Ni 5.190223238166366 4.596563565674767 11.526054530832788 -1.084896519288609 -0.062285488302783056 -0.27127452344411346
Ni 5.717119853882131 7.98839488006226 12.289083919743478 -0.5530800283265378 0.6107218472097224 0.4757882964229096
Ni 1.9437167980763619 6.487661331752704 0.6291881588018763 0.6127638173404156 0.24097767223278496 -1.254353300663272
Ni 2.7262743584562985 1.5121519959691694 0.3311051003862981 -0.08852848115971206 -0.03501148307817841 0.9540283968204215
Ni 0.8509034440002614 8.969557367102228 4.527548512124191 -0.21681778715712982 0.3999266120975887 0.8214461198746047
Ni 8.705511424394595 2.6311689216847536 1.5273699524614344 -0.9543338438759823 -1.3509627590589055 0.0008057837307469994
Ni 6.797335789731385 0.3803311963513701 4.866706289357194 -0.09413091494815401 0.7559197560370207 0.02638646041332875
Ni 0.9903443315497594 7.430049994146784 2.6390468356132732 0.04258338188816537 -0.5593743459756817 -0.16821982364376836
Ni 7.286735346162089 3.6893085883871892 3.9584371438397388 1.8531460005355764 0.6748564729061023 -0.7063473444255318
Ni 7.607846361947344 3.94735101737688 12.730846545605038 0.8132414725766253 -0.31356068580683416 0.1549920120995847
Ni 8.154890516158462 8.935102812506804 7.035031468609139 -1.5952314433381367 -0.03721054761202624 -0.42768347049588284
Ni 6.90820610943345 0.9187458655350391 0.4962750737248725 0.6140087454911102 -0.7829965576491547 -0.36342234652396765
Ni 1.8745903671219701 6.5997178660807885 9.142818048596126 0.6787753483445342 -0.9842494004884921 -0.9680681627429394
Ni 0.31134511903593476 4.8824594006921895 1.5657381098153704 -0.33737604305887703 1.1300795435831505 -0.24051693054628254
Ni 6.48265387611768 1.8903914703464153 6.805238152358303 -0.7618860009227847 0.23604449659722573 1.2088108361467829
Ni 3.628974633782904 4.288229258571283 0.4625340589197567 -1.6204868754708157 1.207957487007552 0.8443983577954038
Ni 5.947625804415925 5.635606082405652 4.698326292469585 -0.13405551905723365 0.7139264423243705 1.3446270466488648
Ni 5.3987706355085985 2.815602658346929 9.517666397954716 0.06615371300893769 -0.3645610881141012 -0.43716312785154393
P 0.46849954132907723 5.563926120729602 12.356833074021402 -0.2621905588649742 -0.051985391928355634 0.8104286857181784
P 4.083729479075084 6.224258299262227 12.737195057622607 -0.789883257466659 0.6201223145880159 -0.701682849070327
P 2.4586788269440922 8.572764047162295 1.3923352636678188 0.43733924841809196 -0.6336046653451668 -0.4853420015496157
P 6.319445231695102 7.535550655274583 6.036111982472818 -0.6360197025445626 1.9563076582274308 -1.4697713792593978
P 4.603698963577839 0.9329985511942234 12.59236549584453 1.0009399737702953 -0.7922635847733774 -0.5768745596429743
P 3.9119275699189835 6.0021645119923335 8.36717222580428 0.2832535501828605 0.45819603726244307 -0.6151708841200115
P 4.721659405815573 0.9848026265793524 3.7974922677874257 1.4892713969655382 0.12913005673115827 -0.016994220565151374
P -0.050649553516294195 5.702097486977056 3.658680707844861 0.27210550398584105 -1.3036904563355032 -0.541677442916551
Ni 1.6374742129470028 1.0666242705541864 2.644851137714631 -0.7644756160268318 1.068124956257225 -0.47122998762826585
Ni 1.7438260509820211 6.407252279240915 4.770237158519401 0.7067096128609571 0.49876341716184425 -0.9096264736662787
Ni 6.069588589132287 5.623408898426668 9.256263631196205 -0.693175068709632 0.5068917026959334 0.07298770521163558
Ni 8.739413619507674 2.3344703840044287 10.318386624722958 -0.03577510071708032 0.9443818748695928 -0.15207895221784776
Ni 2.156320868338107 5.249660740496027 6.787730167782678 0.47694220752169475 -0.22202632794126276 1.9249515125136523
Ni 0.3543956548869257 9.056522292814302 9.31547837871823 0.7415722290660971 2.1784982796607 -0.5488593053769709
Ni 1.4482050670459423 1.1537793528093632 11.508295720721739 0.3126708270027131 -0.008661789440056052 -0.42470741858669436
Ni 4.247562923567855 6.803429854184135 1.7101294060369625 -0.21520056326868098 0.2877074721891561 -0.3335479275620385
Ni 5.691358169828522 7.930750282281849 8.122534927595947 -0.5171774008926576 -0.01675639352273243 -0.14370512633185573
Ni 5.162976522061864 2.9930096579878045 4.784484411134497 0.2399006371185223 -0.9253456841737484 0.3735314099335116
Ni 0.7370666822258011 7.268127170158516 6.668135284781614 -0.42452564159319145 0.6584957721598917 0.9091860436947502
Ni 5.035517307742502 4.3503380075778555 7.34745866892606 0.9711388312484629 0.7195509875999995 -0.563845494373158
Ni 8.103376203124727 7.368882972782242 8.92517664095687 -0.8433737731856314 -1.7800220268563924 -0.5254964622813144
Ni 4.616674883876194 0.45556255784669064 10.29806975635351 0.2147421355750237 -1.1257369503437389 0.7191401253148261
Ni 8.181711643809352 7.378707727509188 4.655810911461325 -0.9198473800633384 -0.3686619976563522 0.5101570037107666
Ni 7.3020384203450766 5.975189448092264 6.907961622449461 -0.42010025883198615 -0.42605210554004685 1.516091602482176
Ni 2.52665526356639 5.110321269769516 2.7495368422291353 -0.7906026521311869 0.3175186420133177 -1.2044553873915644
Ni 2.5602767514015556 5.223129375196529 11.489105303493334 -0.5881737867058774 -0.061997524748719036 -0.29185954668431674
Ni 0.9061774235433315 3.533733370909143 3.661211600882816 -0.7440829113030927 -0.36827144708615284 1.3617642205497837
Ni 3.8408271329457215 2.5876592936082727 2.574755813897766 -0.8415323491015184 -0.5557439483119461 -0.6060689218187433
Ni 0.9321111539930798 3.6424395280492363 8.18870668807347 0.43654452043093844 -1.2278863647209952 0.21170334874869992
Ni 3.4031320460918533 2.850301699926341 7.139505284404185 -0.6737354719277816 -1.1981214747537365 -0.052262813959458386
Ni 3.926814110721842 6.835702136070624 6.270227285296163 0.7530761159406385 0.37316759883618955 -0.28568658510438544
Ni 0.5296004606572078 7.229172244043007 10.922220577777875 0.6476043220583685 0.01063768221950426 1.5150963284484422
P 0.1867319143116681 5.674588173741604 8.074717801064528 -0.3100069070173048 -0.3852114173746011 -0.6376232995862567
P 8.503637616207904 1.9030866833668574 8.125543023006355 -0.0007245368708503651 -1.249664379828035 -0.5706494046688687
P 1.8287898054547822 3.239624584244401 10.491696203613655 -0.7037793265880395 -0.1274765802881353 -0.24359865479539983
P 3.878903716933568 6.205704453699541 4.083214245394012 0.6523788606288765 1.0539059844443655 -0.9977011551180238
P 6.973846337097635 3.996692112775161 10.571095615432306 0.742863694184011 -0.5239825967399493 -0.6358399824335889
P 6.543603575718676 7.872163956859408 10.280005790266149 -0.9311458357952932 0.06363891700688394 -0.1014099651080705
P 2.4192983123749743 8.564913298454218 5.929624318335583 0.47046662709968007 0.009669147658647863 0.08543235873289158
P 6.48823180138201 3.955156490717551 1.4560820754671142 0.7282408020645136 -0.2884937155358774 0.46069952041058726
Ni 5.178904396315045 2.8352068924334186 0.027694942241813854 1.7656158787333913 -0.43906960084563734 1.4315635007311087
Ni 1.0669955285669097 1.0708348797228782 6.840120106422031 3.0666329020017895 -0.5255242301954561 1.368069079721889
Ni 6.952286207139236 0.7874002136776063 9.163956212130307 -0.5549085968948443 -0.1266016338823497 0.5972610937191262
Ni 2.5463228831672464 1.5347806245983315 9.168634968597969 -0.40766254728926565 0.6123210733760422 0.37768811241436245
Ni 6.452337490103099 1.9553797327199636 2.6350435876272975 -0.6858803348204316 -0.2784802971639333 -0.22456837763682616
Ni 4.102518756548278 6.851838277013869 10.394750775910758 0.38807742606848644 0.7549633056610224 0.24269259804136267
Ni 8.293650462182184 6.892604217825587 0.3484645817568331 0.34228273633187506 -0.020001897043223617 0.2245984595438132
Ni 7.4251874196874565 3.8059651000436507 8.342494434046355 0.528800844064199 0.0973386232521743 -0.3632976480206453
Ni 3.017331585357925 8.412643182796758 12.260364848690957 0.2307487954159252 -0.8307748534746983 0.18886758180110697
Ni 0.014213748843215695 4.945718144030856 10.193503578808956 0.8457299321226338 -1.2382813348020738 -0.17240609381097405
Ni 8.678300928584019 2.3064177663601133 5.795636396036379 -1.3903137500527023 1.2295889492343985 -1.6101150453181883
Ni 3.7119100517959085 2.545779578758383 11.443726708250365 -0.6316560262592283 0.7414310755025424 -0.6484473867849543
Ni 1.31895294817733 3.5121641858772645 12.79056475521261 -0.887537097966407 -0.30238358614409216 -0.1620237221353855
Ni 3.195734643081716 8.53666146919332 8.109136135366027 -0.1631058994559707 -1.0027153205031636 -0.6517078027037808
Ni 5.698258135821088 7.858047097302439 3.4291780594527665 0.08697219241618569 -0.16982907711241718 0.278359712425669
Ni 3.3023852985416093 8.429050975944435 3.569461068836003 -0.8761476251825426 -0.5075766445781 0.5244505375153032
Ni 3.4466688393887766 4.09285699314399 9.290959956253573 -0.5246760232625479 0.43339569038931164 0.2158572230160734
Ni 7.378073872365515 6.085271976401478 11.311594170507428 -0.5347604040817435 0.8949279911138394 0.7452275664304971
Ni 0.4116273413166004 -0.125009816942737 0.27906740410535785 1.4701650151533907 0.3941020349960116 0.9321377673949172
Ni 4.799587368193553 0.29636531097622165 1.5075040267513427 -0.9222840145292891 -0.263891600716481 0.11321081439774051
Ni 6.074423998371171 5.829493315782051 0.16532572060244857 0.041191386636645184 -0.36573711070007336 1.1023584235187982
Ni 8.138365007055532 -0.15749127102663776 11.591272792072758 -1.024477137660287 0.09514392959370066 -0.7116983243248001
Ni -0.1055042831571914 4.857938261705486 5.820710800012774 0.6819478325352448 -0.7566167821040453 -0.9813610231971034
Ni 8.116125746586054 8.685219004723546 2.3994849060910726 -0.4825168733959948 0.566726672575695 0.3632917344833743
P 8.373887468297832 1.4314441260325053 3.645665850730537 0.6895040476159481 0.8523392099090353 -0.05394508675788774
P 1.7879423689817324 3.176610327889723 1.724018077742208 1.5413760880805778 -0.3001829789483475 -0.6663597482890008
P 4.591999808640313 1.1228200565776283 8.248730053657354 1.1203047235845738 1.1502729878118898 -1.3120470558303146
P 8.703935841608892 1.72608716203263 12.62229070268473 -0.7881647321136556 0.6431385729775311 0.3468500439875833
P 6.481096403478937 7.798500934091007 1.2964791613046938 -0.7226121430238265 -0.11132953821462763 -0.07226805343679167
P 1.6394663291128353 3.2861676619370352 5.865811404499876 -0.5993218329028969 -0.2531557023562156 0.4947730650555286
P 6.787674026327096 3.936113671186888 6.034310022850088 0.10759526798317598 0.04532572051999291 0.21973290392139577
P 2.233442929176272 8.49453726735944 10.106312276259855 1.00215302024179 0.6634520877239025 1.3275397521492749
