# total energy = -381169.7761729869 ev
CRYSTAL
PRIMVEC
9.21961331319665 0.00000000000000 0.00000000000000
0.00000000000000 9.21961331319665 0.00000000000000
0.00000000000000 0.00000000000000 13.49383601666455
PRIMCOORD
 96 1
Ni 4.787348689490226 0.5859792535714509 0.14943978833810256 -0.5339381652907643 -0.4103112977660224 0.4338644024956141
Ni 5.538996094547971 5.194625102438402 6.166790903771408 1.3519824585726716 0.6035777799657734 0.04599729266572078
Ni 7.621780472506011 1.367665080384181 8.103696108007771 -0.5221136618520106 -1.3225407562727869 0.5559383237109393
Ni 4.409814748713433 5.058110289840244 8.516755984314008 1.6183852557467804 -1.0862733450314777 -0.5666590525625531
Ni 8.961556222971275 2.5733784353615103 5.165575023218064 -0.03392570621316738 0.08802737315357743 -0.15768447133008326
Ni 4.631712399122867 6.446584037208557 3.9235483777443227 0.22330673731558315 0.17946531465060062 0.5582520594457806
Ni 0.2635334236040893 7.599782475419552 2.793817542963283 -0.6988402374152093 1.325158396401292 -1.2164549829556017
Ni 3.8243047734536755 0.563370918091394 9.393666586025104 -1.0057965305316485 0.04479093106244544 1.0443443088978595
Ni 6.589773849760862 1.61322947786861 5.946125915646325 0.680612401553273 0.5789016173753321 0.2809567837288839
Ni 4.20998885229603 1.8892185989009505 11.482053722922556 -0.42721552972052873 0.7832937771745995 1.099510155436726
Ni 8.05610723057224 2.230233651807054 10.401858025922795 -0.9459137381330872 -0.8914215206224776 0.6104616515698001
Ni 8.065354502608166 1.7984146285302296 3.0428466710868953 0.21727030131351613 0.09934382660766117 -0.037929685166237896
Ni 7.337456821144183 6.222879342612642 7.696398489949244 -0.20543911300654297 0.6115924227401338 0.7690565505292949
Ni 8.264968347922052 4.1656332932084545 3.2510163174469824 -0.0236358942513851 0.9788721953369787 0.0035617492093293493
Ni 8.122829571274128 4.9190416443867 5.900867756426828 -0.1788248528531243 -1.3110913767852646 0.16730502513898282
Ni 4.378403526553514 7.377294769765554 9.736666621652375 -1.2653707348196983 -1.6330212604924004 -0.8512485479480179
Ni 6.760272156600719 5.0689248961195466 0.49141736886190346 -0.1366153093646099 -0.022330545176400252 -0.4298018023904662
Ni 2.332884825135067 6.013944468357258 13.431184134257261 0.4056948820399336 -0.4258235344690086 -1.538671544665221
Ni 3.4454155495370213 4.907922790871918 10.860661935063975 1.323032608307541 0.9534511841607128 1.8457584498222537
Ni 8.883650491462229 6.5771614189082745 4.63522691567331 1.341920189240663 0.1802495011147928 0.2018051157983815
Ni 4.687527937413489 7.88171824696353 2.18501605888562 0.4363329186407647 1.1783718029306354 -0.5916596883719487
Ni 1.9388662159632237 5.4890626694766125 2.0856747266950917 -0.015654932928437556 -1.6222784201535994 0.5759530762699694
Ni 0.060360807596416634 0.5545883145605636 11.529996633504828 -0.025092938412885818 -1.0713956565886966 -0.07847135403402615
Ni 4.615255389567404 5.67385137677079 1.6686070845324066 -0.7109773869983754 -1.7064321692843838 -0.7165975613986304
P 0.4195689232228513 3.494002911081716 10.587763228375048 1.330532773339328 1.988313521710066 0.7641082053850841
Ni 7.113918079585803 8.441376426820758 6.616918234933517 -0.01667488955251967 0.38764419518580984 1.7051106222594825
P 1.7300419770661966 9.011941409089255 3.7306408790694516 -0.4466821230855727 0.158763563326875 -0.7630183147550149
Ni 5.775847957561862 9.296873554922042 4.473921485151521 -0.24818267462165644 -0.5223941692069067 -1.1398985865561013
P 4.0225817748540935 1.1925938453989426 5.341170854194175 0.6913174466756029 1.1038267805342086 0.19341612040373787
P 6.413421088541334 5.116184633363969 3.803224127880252 -0.9486717604941984 -0.6687439322504611 0.8288758366797725
P 2.8187031229028348 7.661277295439119 11.427119579653503 0.7703960952763249 -2.072186249265321 -0.7942191658378516
Ni 2.841954987383996 2.234511552330154 8.027766139606701 1.8620157922213805 -2.3891027389182655 0.43829389902187743
Ni 5.632335458547685 3.338080812705269 4.754013334056231 0.20426360464120305 -0.7036924233011881 -0.6102775605834522
Ni 0.5182067989264991 4.0346686877544915 0.6638517944729895 -1.2599734750635267 0.1965922041388743 1.697497071578283
Ni 5.795716223999968 6.117139598863856 11.740932163823816 1.531633406871517 2.115711940462098 0.6008922627138102
Ni 7.59128199205253 3.633311266478364 12.399998979047906 0.8754148607815762 0.3256615828354263 -0.031679076270835764
Ni 6.210202374467679 3.3072227673371297 2.286530453906525 -0.5424060935524594 -0.4817339724833833 -0.29275351925349585
Ni 6.497042980232108 1.2010021326340017 12.126937085205402 0.8466195338164387 1.1918754938440248 -0.5912082026568269
Ni 7.815650498798581 1.4534259223365054 0.6035094261029655 -2.355866859683272 0.542247199377092 1.0957504312839774
Ni 0.06583541391240139 9.00812448922597 0.500828750012724 0.10429242886218815 -1.016914751931997 0.5257250333523525
Ni 2.5439955281047855 8.92308277710296 7.609700013334852 -0.7604243287755936 0.5479465637547144 0.5135739998121155
Ni 5.863756969388934 1.7474209479412914 9.863265740257875 0.3228644797062633 -0.012859115350855274 0.11639666832488986
Ni 0.5734599408121452 2.4949840643530594 8.691460278694032 -1.0281311894731067 -1.8988427312417429 -0.8744663808253778
Ni 3.7319887865187558 0.4993250311004015 3.1383157657349625 -0.5473960905678831 0.5329125522397273 0.25092167081937433
Ni 7.432216005576133 8.899462128093946 2.2256736311201455 -0.45129211105375827 -0.4631376975384346 0.4529959811187424
Ni 2.250313969348675 4.0800015258408795 9.13942929840688 -1.1062744707437528 1.324722337305138 0.3783375730729033
Ni 8.02837463407766 6.450069050996772 10.164852195368525 0.5943210372541958 0.22570403390316612 0.7771393275374293
Ni 8.224033265330316 0.0872350581024186 4.908328453852557 1.2681907207669965 0.15952795229672526 -1.3314293170116684
Ni 1.7698430472347821 3.9030033916976064 12.391861748440821 1.2259554662468692 0.07970342666891435 -1.791811049071521
Ni 3.32984769812094 5.807637183862831 5.73153388673367 -1.443558982530088 0.024614456114570513 0.2298442813237848
Ni 6.72135616929898 7.0672852760387315 4.766036631625575 -0.40380203589259495 0.1892805009688095 0.6585309962732014
Ni 1.5898393191895037 3.5002077107628504 6.799625153567962 -2.0749702397683616 3.2455749971590686 -1.0950667749533916
Ni 5.185543783440011 7.214107616190394 7.34551752896174 -0.4261809178084274 0.1694686084492049 0.08885732525404051
Ni 3.5657683802020013 8.307940965030177 5.659935292612239 0.7865907027583163 -0.4430512112012047 -0.809611846243838
Ni 5.381912324908786 2.977179054134667 13.36459179010144 1.709459643256798 -1.414586506557138 0.396592148407717
Ni 0.09794271686864409 6.244702167048372 0.6624301301181144 0.21344218581667757 1.402379422967985 1.894138126677222
P 4.601545824744452 4.764926590196735 12.994793104796374 -1.5877135376945364 2.3202743072906427 -0.1397893362172173
Ni 1.8864803737816382 1.5693994367332251 5.958688560587654 0.11794190132482268 -2.804654716257937 -1.0717196155870188
P 8.134206573958407 3.0980113046858566 7.118336118229487 -0.03583629297231893 1.1190248284308857 -0.22092178202317436
Ni 2.3026905919170644 7.739819180258711 1.6009360456326147 0.4348252237469867 1.3198868635897076 -0.6055549582968023
P 5.615629519435922 0.9703458496880492 2.0973734938799233 1.0480790933499433 0.49698524221549895 0.36492952719711347
P 6.016442983533466 5.896606451207481 9.663475800331938 0.38934472281668425 0.4874281946546831 -1.507451667418991
P 1.1330351441506072 5.679881003801193 6.566073912078359 0.3389351600158808 1.151376505288714 -1.1993813153027666
Ni 7.110681995353889 4.075327181950336 9.134207309492474 1.1481279164444291 -0.10761763658067917 -1.816529120643491
Ni 1.5618209146858364 8.417921730849278 9.798131016948394 1.2874829933377054 2.251311664078 1.3172977627062925
Ni 3.694916721856286 4.216424142307074 3.6604455100765025 0.37021700084829784 1.3273772584294816 -0.006594108277749934
Ni 8.431714272190998 8.897738060426231 9.672516553032267 0.13401772384076274 -0.31978378389841056 -0.5056958826156194
Ni 4.87555272893958 8.896474973418334 11.271293365254298 0.35402933534484193 -0.30736329874687063 1.6247189112742924
Ni 5.876203447203988 4.0677947579689295 11.005612693736781 -1.804351347630376 -2.7648861781107477 -0.010650023514678432
Ni 2.908492935821959 6.530325783870884 7.96134989006293 -2.3736920607901504 0.8690994600865096 -0.2824809336828942
Ni 6.2622378713478035 7.484491212399361 0.5423243850867964 1.5452795369000418 0.8079151752677053 -0.6708257544801544
Ni 4.335762815520456 7.139705337695957 13.108316967966827 -2.2506197802172982 1.1927368134030556 0.050985747019247685
Ni 6.199314011282806 8.770304566826464 9.16371744741131 0.12743492841692247 -0.9680743333905263 0.1487771415381244
Ni 3.8063449669472122 2.9036987369598637 1.5439376309689021 -0.8881197099427544 -0.5152642430303448 0.24245451388862757
Ni 7.056175642137146 6.448049955706774 2.3006991554666554 1.1884996353932564 0.02281082724692846 1.5030000594055406
Ni 1.1629159105199347 4.628633048315289 4.283132653589169 0.8097856528175409 -0.13106275497749686 0.9704469473877608
Ni 3.8532635785033693 3.6379763907557106 6.318286665852294 -0.1852940055172357 -1.6607215546211462 -0.6207674043711826
Ni 2.4941358599389964 0.04526276902609559 12.69508191900986 -0.4674666639310917 -0.5057925560944838 0.7188768443511103
Ni 1.3893864890747503 6.221026200360178 10.316658658414127 0.10164470682669591 -1.6787385600238571 0.013771856973111766
Ni 1.3785165651162692 1.399592600883095 1.5628424478279903 0.6163224812259515 -0.4890014526790739 -0.4953361366478501
Ni 0.21789726024354214 4.834700622866612 8.285215540462527 -1.505684291105923 1.0822218006699234 0.6751380087022631
Ni 5.5188512397139755 2.7488737725537806 7.827261679658048 -0.42845454433395236 0.8236266724656911 -0.6124681404768678
Ni 2.2800103434540757 6.845120256846605 3.8650932641955893 0.47693397999157855 0.1797216536357808 0.7446647519484917
Ni 1.9661009533452023 1.9136782327108317 10.796512788405185 -0.23771545654174542 -0.328942310469227 -0.34708092905146676
Ni 7.09565402584386 8.240139929584316 12.032777175631216 1.4231055997717428 -0.5290715812270824 -0.8053618127182324
Ni 0.10959077618089592 2.273962277197279 12.807701338125753 1.9007826285769327 -0.1328653554038744 -0.28274524308787435
Ni 0.546387468622422 7.437932165757861 8.127715044306866 -1.1904007090707112 -1.798378160766077 -1.197858450900337
Ni 4.940421927389005 0.4000657534673205 7.4507160814159015 0.21175219970876435 0.3410313804232772 -2.1041021241373117
P 4.087515510595893 3.1260204895763275 9.610917551383581 0.9414256204547464 -0.8187580315194801 0.4546414871419654
Ni 0.7201559722630179 7.731641383353561 12.236278009868677 -0.24858916603145573 -1.9594300059064966 -0.7135369201954357
P 8.130739999396585 6.214056172783748 12.56073740335812 -1.9452413731109404 0.26902172285419473 -2.070881414410969
Ni 1.1315231275864082 8.228209750108258 5.628116563549041 -0.3330403917980006 -0.2921727070493613 0.8305012880983375
P 0.10246585910276688 0.1590825817801512 7.307398116240167 0.054284215264861345 0.18404547782211528 -0.5400913293763537
P 2.6616746709428276 1.991279716984398 13.190170537846544 0.31767702196805286 2.188157914237651 0.7787508949989234
P 0.8755396452287989 3.1994547086851495 2.5645303725769866 -1.1967755022488034 0.9536085356741834 0.2490558212552291
Ni 2.3982795415366835 2.4050467376227944 3.6368718810947893 0.19506059798569633 -1.2024854081493872 1.6506685412605182
