# total energy = -381170.95484918135 ev
CRYSTAL
PRIMVEC
9.27162032744112 0.00000000000000 0.00000000000000

0.00000000000000 9.27162032744112 0.00000000000000

0.00000000000000 0.00000000000000 13.56995353895095

PRIMCOORD
 96 1
Ni 8.465119048201267 8.333851449364412 0.5577009354905551 -0.6872648738727841 -1.1178326078949974 1.0048711905039018
Ni 4.012664507741421 4.9011824150541505 12.920997598002153 0.45535496826922217 -0.3354307464070481 -0.1092716272443344
Ni 2.006758748400058 5.592715479529766 11.352039192624913 -1.3816419333103171 -0.8519440313531458 1.3914311514865974
Ni 3.9925450919004852 1.0879411862632828 10.91263115065886 0.8147579092211518 0.7760918601095215 1.6132862439573186
Ni 9.22712569784138 8.488409358151696 5.743618515632952 0.6551649080144458 -1.4877338772750894 2.049414759896761
Ni 2.582721067042829 1.4360163519316864 1.1632434312296045 0.543197221995187 0.3398142201867244 0.5646145113286986
Ni 1.496189167050432 3.393505710571958 0.479597734060848 0.09848739214463684 0.8488844185912156 0.7513581048082674
Ni 4.978952765318563 3.6519335804956548 4.295595415538126 -1.5089552485477111 -1.3018320629705256 -0.8204858128438643
Ni 7.908923823831711 3.7901270796242987 10.724212357727481 0.03977368035351215 -0.027739632007113515 -0.41210592777259997
Ni 3.0434000600790543 2.6444051562546953 12.48013669315026 0.9518563288697672 0.08972558679160676 0.9919603959795046
Ni 7.290775633264396 7.848686107371543 10.052119099331907 -1.2280966809595881 0.7366783913089054 -1.8464701311772975
Ni 3.255673804631239 4.670745566523904 8.007643399945245 -0.3936407790888769 -0.0266476844945154 1.1944121442229496
Ni 9.509251829004446 6.13799800692016 1.0338199576511637 -0.09570982939949968 -0.01621363364538498 0.5976719560042998
Ni 4.916258069504549 9.219745488159635 2.04731281516884 -1.3353109114542616 0.20056095897863524 1.0720608009765216
Ni 8.585140171731647 6.096767111876544 10.680543953732446 1.257626572097905 -0.25942430897374674 1.3911038500541655
Ni 1.9363500645769836 1.8787084017737108 9.55042431284078 -1.0291632302820468 -0.08446948059899001 -0.8050435101468651
Ni 3.390251371880636 7.27225093609841 7.574178466529443 -0.3789343261166377 -0.15613769566825367 -0.15568209618807383
Ni 3.684820017356393 3.90478920667723 10.564751616176745 -0.8378775259577506 -0.39977645967296954 0.0678922929665992
Ni 7.062675233025355 3.5335813486018512 13.05232731669437 0.09807832963167624 -0.028263622831383582 2.106265450337218
Ni 0.9483105860031432 4.647492343054288 2.826105733186839 -0.23862588417115677 -0.49883900759478605 -0.6400342230205945
Ni 1.681834818379036 4.064159086349975 5.0898320713285905 -1.002538428605667 -0.16193476196600498 -0.366094236929176
Ni 1.9520561892011985 2.9373049100938764 7.142463087845983 -0.22537853224294735 -1.1428149888719479 0.5626208779374375
Ni 3.6683350766351093 6.28189355247377 10.040422023283556 0.6160746268812034 0.6527267308865985 -0.3502675543095645
Ni 3.6512752954612275 8.595097891829878 4.091489968384958 -0.08201279152838134 -1.1314972498662836 0.0666548210150723
P 5.657514833129906 3.8112107439663676 11.615744468768268 -1.3743286874783558 0.42131047709000347 -0.9419935771430744
Ni 4.670476689538012 7.1706988800127975 12.325534280585998 1.1699825504256756 0.1026392095294813 -1.5784951044200621
P 2.98340340574417 4.935431780084759 1.358135669386856 -0.19083576127107135 0.12311213267185248 -0.28862201358362555
Ni 5.140390216296621 5.928171970101619 8.334583907360464 1.7537903468533733 0.19464459349420027 -0.6852450152292779
P 0.4879820602105986 0.021368303082307017 1.9410869353387967 0.2836811246385824 0.1249692404852493 0.7390957425011465
P 5.657755895255189 9.09242759952934 11.695576827365873 0.8346639041164593 -0.05738213746389472 0.10185090930023102
P 2.3690565794601652 1.9492839747604427 5.2080804610761176 -0.5906284188939569 0.12675127208633655 -0.3205700272451318
Ni 2.7139052212978565 3.300372285630849 2.9915364709864134 1.6939414930165406 -1.0570069919671925 -0.14622095077517397
Ni 9.19997839388642 4.632018008935153 12.837596592788339 -0.17254904714674155 0.41513365885533027 -1.5029146987805857
Ni 7.077240948364577 2.3322760621140843 5.125113367687814 -0.49002629439916257 0.6523258959037539 0.24678965092887176
Ni 6.047117585688428 9.260141937384963 4.559069828338423 0.9881363942477239 -1.9486689107352504 0.2623977897797739
Ni 3.914672753813838 9.290534308411042 13.222738768867103 -1.344243695167517 -0.8359283726511796 -0.3508038864290087
Ni 8.668538395459398 2.3791719171018526 8.348072260432074 -0.2866240093169903 0.5768020545338259 -0.14596152646620023
Ni 1.4087299736736791 0.23951561903321633 3.953076731857498 0.7330456796523246 0.31464594845121296 0.38290513783892766
Ni 2.556983049358755 8.41700861096688 1.9411954132951739 0.4338178655283948 -0.6228533403659338 -0.31482952521692875
Ni 2.6532039238275287 0.2609859099377585 6.706827668140611 0.385911014544787 0.3880522292575059 0.024138287809100364
Ni 0.106011705403349 1.7644727692501265 5.574265882487425 0.5653387910892328 0.11048518793646134 0.23071562818514457
Ni 1.2856584870964487 9.0754883494181 -0.09130691576107933 -0.2621386225811163 -1.3623704866752149 0.9014102564040734
Ni 6.798026105945313 1.7581958823725623 11.667364214249565 -0.927590514343867 -0.9766713310309179 0.5661358330692314
Ni 6.574663503630107 7.649494618926069 6.89004879078608 1.6723282856221393 -0.23492863782522763 1.0357365126241904
Ni 8.756896935995861 4.031133575186189 6.7605233293854035 0.25286722458151933 -0.3565274191763473 -0.7308738688119863
Ni 6.942477948711115 3.6951949603637697 2.87376371535531 1.0678197663119802 -0.26702140459471435 0.9454961909796942
Ni 9.214785171350925 2.084269493298781 2.329527026723837 0.19807727332483308 1.2176042660686965 0.5130453810021551
Ni 0.3196919547403583 8.378800264109508 10.501691618526724 0.4403037303630546 0.4633685826023181 0.22847131223565814
Ni 2.66939217270231 6.921329383027625 -0.26178326927523343 -1.5455194208249898 -0.665578390038286 2.0343969463316895
Ni 7.5735785927022965 1.3074653378143668 0.7842770813681904 -0.03712698675928445 -0.43664299368201576 -0.9010677854629902
Ni 4.621707967269198 2.7579639605034463 6.861430080704873 -0.30032644650474727 0.1629187231458291 -0.5106550263931077
Ni 3.5047095232890975 5.343855921655768 5.732776282967334 -0.1861967198371632 0.15828122437381772 -0.18813250340729534
Ni 1.9385567101853443 0.8115514065199336 11.771704246530279 -1.5024315884965802 2.102353259767005 -1.9050689146571127
Ni 6.759697228025299 7.752780467989679 2.4010677753737215 0.7603759920361615 1.2010188509061897 2.5761908602214474
Ni 1.1561061379971835 3.2783243727876474 11.168709592023069 -0.09215219395522839 1.1144811749242611 -0.13271314609672627
Ni 8.033404596679828 8.856483408598395 11.929997691097432 -1.4608298537953939 1.142370702245678 1.6130754134980931
P 7.395340965916047 7.55482210503123 4.734434180023702 -0.5107015633603269 0.7388756560705404 -0.8625130651182435
Ni 5.877428392729525 5.702667623519474 3.84306524949849 -0.25629784752962315 1.1040545802742987 -0.29554907972076194
P 4.806713876803782 -0.2632685828317855 7.50969342085419 -0.4503760269973921 0.3970377205855678 -0.360002007988509
Ni 8.366793515946368 0.15935319075637921 3.9144428176327986 -0.45476592853497166 0.07840424824151658 -1.2984343501428863
P 4.473371315638257 1.9177233795887616 2.6365604384007706 0.06529650721496497 1.1923601467899272 0.0017313808688099214
P -0.38412044353237085 7.350623941676029 7.917470403335018 0.4445563349918214 -0.37287295041390617 -0.7922281035497517
P 8.799027178199186 3.637618198901919 4.303860137787256 -0.026524014432457544 0.24922859938766753 0.5556264488974754
Ni 8.014629565768354 5.68481975462832 5.323112525775157 0.2842369971420524 -0.33294037588502656 1.646006359898159
Ni 1.3298192141242735 6.705532422798225 9.347960869625599 -0.08827728438085441 -2.0155713289847546 -1.238507848990583
Ni 6.621299753252185 5.8521817709162205 1.4075302260193854 0.8656223001711866 -1.9727760881960992 -1.3337517944972577
Ni 4.40202619817466 1.2908227795496292 4.978788657640966 -0.7605446564035417 1.9744354781763929 0.10180000145763758
Ni 3.371717403094446 6.132444306418446 3.1610800995081263 -0.20223757535010975 -0.17806406342769976 0.5894570242936751
Ni 4.6353465205881 6.908386201223961 1.1525653062415828 -1.4242463982444051 -0.6498473524562743 0.70298434149057
Ni 6.55472024857303 1.531384237341766 9.388155197530498 -0.08636926872486415 -0.5758080660516729 -0.46010559558033015
Ni 5.9210328225451585 4.598732892405677 6.0834233960801045 0.3516749761800524 2.320944079664158 0.04272864921677803
Ni 8.864076865544813 1.5397750536256587 10.45761711756679 0.5599114494260744 -1.16345786193328 0.3459419303510171
Ni 5.277879072289822 1.7352393507494477 0.21818625675576273 0.030163925177889985 0.9819248661203734 0.4572421579896061
Ni 5.661668518980939 3.7710553568663236 9.412092666571109 0.47847561344708567 0.18691842849453616 -1.0217178297475953
Ni 4.009493613631928 1.693489244974454 8.811351015773276 1.0456059492191023 -0.3544504820426605 -1.711506755593814
Ni 6.089600149459475 8.470134994731197 13.938241753054044 1.3139638132370532 0.44977053220290936 -3.072926191209669
Ni 6.994630812354096 5.934495215080199 12.619242519706898 0.6337378484889215 0.6636402924753088 1.1106144928800035
Ni 4.894590293089678 7.149253622482805 5.532035506785906 -0.39570228960359594 0.21789482227139245 -0.44467100619281485
Ni -0.17419149172957493 0.05223259957672791 8.45268302402272 0.0929824031660076 0.7936681784303878 -0.6047797706936745
Ni 0.9700061772786231 7.013878695895931 3.1400465019151547 -0.2909989984562343 1.0783975418278267 0.3237684795777715
Ni 6.720144496238463 1.3752872396007492 2.881281145016062 -1.0153504927686707 0.7369573560019049 -0.7403578970430217
Ni 8.222638365027068 5.744111765827762 3.1237080527930816 -0.5271730786527888 0.6370746261716382 -0.859820605887745
Ni 6.713700720197242 0.8173517321190534 7.099202635139888 -0.13232979461537855 0.6403610102323939 -0.48728421287765117
Ni 7.763220312338478 5.692320495372707 8.476661288192226 -0.9568149584266231 -0.8228270593825313 -0.18770518606188966
Ni 4.758510723367362 8.626037288447947 9.679637320640609 0.43726571486767923 -1.6275049586598616 -0.6055117637636926
Ni 9.102783999296312 2.115468495282537 12.753408427019275 0.13812480403060085 -0.5186958944197132 0.2474735643697738
Ni 2.428784356809157 7.9757073041553355 11.297827102134804 1.138321986097601 -1.025008327573409 0.46227483531750707
Ni 2.3109791505073423 -0.5326202756788883 9.209045111283126 0.6492331159110432 1.8235106941676467 -1.289873605057069
P 8.203316308523608 4.136320106391453 1.198890029424834 1.471131492831718 0.5024899740838119 0.37335606069791183
Ni 6.049815627167558 5.954197408011992 10.6363869353527 -0.8100635890692759 -0.812195290700298 -1.384220492670771
P 6.645804645449234 3.3485754390672677 7.505799340368848 1.6035168232753803 -1.845899603385808 1.1564518629290923
Ni 5.082312787343798 3.993462982300602 1.560055795658131 -1.3716431702263927 -0.3121010705421722 -0.12253286312961478
P 0.4523169187749625 6.981177691439258 12.672382810901519 -0.032282514182789566 0.3000947901099154 -1.6776748946460331
P 2.1035544633214296 7.182399664709232 4.936504506542268 0.729457448080434 -0.2627734279516378 1.1513981025552686
P 1.0717807522491114 3.9142277160440844 8.926356192773724 0.01075081075860084 0.2952027521249368 0.293849580531152
Ni 1.2242896329714907 5.8674428577706825 6.949837760828412 -0.1270844870560392 0.5719079596663182 -0.3888788389238593
