# total energy = -381162.02678229817 ev
CRYSTAL
PRIMVEC
9.27423331527962 0.00000000000000 0.00000000000000
0.00000000000000 9.27423331527962 0.00000000000000
0.00000000000000 0.00000000000000 13.57377791078514
PRIMCOORD
 96 1
Ni 6.065979213147451 4.328887497056529 11.956421303306273 1.1005316547227046 -3.239703111759323 -0.3193734358338693
Ni 5.906082157162638 2.849702934256118 2.9691828816055965 0.6034803351559607 0.7603525949973938 1.2595561850204502
Ni 4.548770293898009 3.104401202831661 5.1303583903259 -0.00924697251956472 0.10409908190445943 0.7047424618322572
Ni 1.67023376837359 8.936985061248308 11.829642534365236 -1.3442328965342398 -1.2890143423805671 1.5358782981908001
Ni 9.157591248285646 5.178657669826122 7.697350234383476 0.07633965240300401 0.6771444976093306 -1.9393556037541246
Ni 9.166077171737077 3.6914416210050125 11.611607164793183 1.4489205039523174 -0.14773944430222943 3.2625720459376972
Ni 2.021875597427601 5.235490171367502 1.5619756432932155 -0.0890154480984596 0.4952646599799663 0.5930447416449335
Ni 8.499250524653721 2.609843438928977 2.0551515464371426 0.9498017603335837 -0.9414281915579076 0.39438742744691435
Ni 4.619875840457697 5.581205765355432 4.634739654135956 0.7756504016967287 0.06222018228248639 1.2768689652672849
Ni 7.70404994050513 8.808267977551697 5.042549949628481 -1.7047100443869543 0.0022849393794347746 0.021437601048485664
Ni 7.150452407540365 2.1389164214243728 12.73075115288099 1.1625548905030365 0.6167148315683637 -0.3883911006541633
Ni 0.6313118981599589 4.824632362819086 9.785390994302375 1.4780163928770094 -0.4952641457593341 -0.4773391858497973
Ni 4.606279814468848 7.783817620948572 8.612575163375098 -0.780109980129979 -2.6423803115643265 0.3266476008977794
Ni 3.7248381350471975 3.943162860697595 3.009659345333925 -0.6014103400008094 0.024787234247008925 -0.4523727457124467
Ni 2.654842018804757 0.3346430868746381 1.9776727467672668 2.5256774248529275 0.570547846093998 -2.9907532199543394
Ni 1.68279108023505 5.158254356609569 12.752116204088704 0.9582804872285561 -1.308450853838624 -0.022446501928974245
Ni 0.6219347208902968 1.3628578547662187 8.820498836401693 2.1224145492932545 -0.38225850539386425 -0.4514345501688935
Ni 4.124093877762019 8.928091071532545 13.40964357746195 0.37998719286118426 -0.3346545303626559 -0.5979712324122733
Ni 1.7495933825527008 7.503874889384184 2.4250237358501434 -0.13921495177098606 0.5071583260937589 0.2909948846911763
Ni 1.0693005487464222 3.8543713512724684 3.3515418987071275 1.2131860823963427 -1.9878820905996022 0.7370938815797693
Ni 2.7843381380969063 4.11750917213304 6.509603815298323 -0.3530340613111081 0.45212720536054385 -0.42331156668043224
Ni 0.6622386838796133 0.6871010484573111 2.5262705405706476 -2.779350433165194 0.8042492963803439 -0.8434007697688248
Ni 4.316589863726916 0.35980779145727215 6.493817215408679 -0.7044825233026513 1.8599427117424356 -1.180571381685115
Ni 7.765973996117368 5.334603902433549 10.858126719055802 0.3241423179774224 1.545261796288229 -0.3318162895829124
P 0.8170349115602888 8.754802022691049 0.5210236434145378 0.7155596070524192 0.1176451960200103 -0.010602715216510772
Ni 7.341492338880263 0.9613670218308568 8.387155649265308 1.281851763193857 1.3900576681778383 0.8651247917094776
P 1.305199946462896 3.1996012074534415 7.85902701573477 0.7904656123326902 1.1203278635130254 -0.8607066080371241
Ni 3.7248566835137584 4.247988360152897 8.686172696417188 -0.11656456136132183 1.1902353871374405 0.22794912118360097
P 3.200389517282263 6.479600743213383 11.438323680491655 -1.1178110106284427 0.49636380658141616 -0.11748115963832026
P 3.7030065899054856 6.508499254114646 2.76558934809755 0.7507713790668619 -0.49462316974122555 -0.4668670826738798
P 2.3374963044211152 2.371365804360593 10.270843315970508 0.3602223515294312 -0.3761202537066103 -0.8115368311806928
Ni 8.11097547414272 4.184673169548621 3.841487586399543 -0.7301560168093554 1.0759012577685343 -0.11194994540744592
Ni 6.138392426599655 8.807804265887686 7.381501381251268 0.7846032400146422 -0.48733692049245747 -2.7939165039048266
Ni 2.0607531833384143 2.9843184303189667 1.278933462966568 -0.4331843457094539 -1.2455971517371967 -0.19600907794189468
Ni 2.4622903874401776 1.8597156285224057 12.279939019937922 -0.8849369413393986 -0.10739755015007312 0.36688330848937456
Ni 0.24932477781296566 3.3753757508140456 5.861320070235504 0.19120445746439974 0.951546510938832 -0.1964003998430424
Ni 6.099579760321802 5.326581690646131 2.891322910947902 -0.4501759951714441 -0.13972660130008194 -0.08281420438375416
Ni 8.751658057609044 5.7927139295448455 13.113898479811342 -1.6506348598091058 1.7160835763312188 -0.9883953043360656
Ni 1.275318366833926 7.93097188040632 9.459144798239674 2.438909378027748 -0.9831104017880424 -0.958442209617401
Ni 8.454409606743708 3.014914125910516 8.125561988245899 -1.8428695583102326 0.4249298190101456 0.002085164663802861
Ni 3.964641984974657 1.8839399258504221 0.33811350496810816 0.4096736641820235 0.7035150171830593 0.771090036019556
Ni 3.2813906707519784 0.18854794485749438 10.398355676764012 -0.42481411936788777 0.9047318645781386 -0.57521851209679
Ni 2.681737295317485 6.246131194616335 8.422597131745789 -0.2717684323613965 0.2825112727001973 -0.2012829247463243
Ni 5.100373866707519 0.6605183136061266 9.001952920223124 -0.3027419979247754 1.8746111123878875 1.088013724761352
Ni 4.994564139213132 8.011945211176196 11.158038729719227 -2.650674947472951 3.0834558870963993 -1.881167939669799
Ni 5.199459775073725 1.0270656903881574 4.237652227162057 0.9186042516848567 -1.651003556002434 1.8845700233728124
Ni 5.231854671921643 3.1862926826962807 9.885130736114839 1.5589351800102635 -1.0551288011078732 0.9303174263567269
Ni 7.0550947409528195 4.023737399436419 1.1805811464528302 -0.1272102140006261 0.9520419625180119 -2.000362225344484
Ni 6.926145801424206 6.720888470465682 7.217069225192411 1.3678142833986056 -1.2462882642669504 -0.23698526324394023
Ni 0.7463643265414454 9.19531882926971 4.6175146206645445 -1.535214439354556 -0.337587901959367 2.257294364023996
Ni 3.3640890089119795 2.0989537502197697 8.0962155318772 -0.7735148434109647 -0.39386060840916687 0.15753868978083835
Ni 8.544712816193515 8.218213433562266 7.029343904826875 2.6526215296763604 -0.1544723921506888 1.7700551454516675
Ni 8.799986087232433 1.1311875074255395 6.507106264275952 1.4734249168515852 0.5827986384368931 -0.33013607366701203
Ni 5.134846191810214 5.607971202602237 7.127645213057571 -2.515494570782655 -1.435412956384186 -0.3038300887826316
Ni 3.479525390551269 3.9904336277270365 11.409194241181714 -0.7382408507000189 -0.9252299845314904 -1.6412487906085154
Ni 5.157911209978199 0.04707044359058779 2.156601456866484 -2.2109373740260114 -1.7345968046440576 -0.5721391018405179
P 0.7004058635211596 5.834856045570307 3.378594837185621 -2.047683379027951 1.4576725391133347 -0.37530932776954073
Ni 7.161757697908992 0.6535802596891706 2.996709733404711 2.524379017756478 0.5327570004984695 0.24905170749017108
P 8.472726217472204 2.053296699781092 4.409604858987869 -0.03583449320010603 -0.6330554777099161 -0.33568142896527353
Ni 8.780788424342314 7.867888545634051 3.2098047189083743 0.1632398539306737 -0.8486602183955514 -0.6551068010830008
P 7.7993426874597125 3.0355678434256355 10.253685984402043 -1.8966668066363466 -0.6931894668873352 -0.9366335983827418
P 8.414215079707098 6.596725035309677 9.078237198646503 0.28479029854236115 0.5489768047914416 0.4616086624884179
P 0.018134835756203525 4.140425802568542 0.5217461061870693 1.08225522501102 -2.3856379202981173 0.9481236013002122
Ni 5.210292079545059 5.936863337419792 10.194612828100155 -1.7655698559868047 -0.8411788224168416 -0.343978121756427
Ni 7.9942963452438764 6.161077201203149 1.7817350928320679 0.7065741157243572 0.1056808245692825 0.2090448280799303
Ni 6.721667506061223 8.005425425180178 9.503979224186395 0.17169826911067204 -1.0031300394430789 -0.08669991259140551
Ni 2.8627425062481513 9.03232417936929 4.194337848049971 2.354739688057364 -1.7730093429839853 1.1165704533531222
Ni 2.052443470319309 1.7895838764571446 5.107147766695415 0.4892534207888799 1.1630385150076743 0.36441890610928207
Ni 5.841468573899126 2.874780461045918 7.550440814684326 -2.0572383697062375 1.0636334961447744 2.163514147547042
Ni 3.4289066253076568 7.296289725872318 6.31161655580819 1.1102470822382557 -0.854122012841071 1.0227521845493805
Ni 2.592009088331053 7.076342009397877 0.22641185707077666 0.3856513331254971 1.1881617924378634 -0.9491067911490879
Ni 0.14879023420838478 1.4327948479325943 11.146460776892159 0.7477737298911186 0.01616041180994636 0.31404842407653005
Ni 6.891098473858135 4.083250154395792 5.852307370333756 -0.09049537507809577 1.727910393762818 0.2995070359272455
Ni 8.05825145794449 7.653496094894479 11.558465808097342 -0.1557098641022157 1.219878149704538 1.1583236260305083
Ni 6.663796290392455 4.875714839726712 8.872337163321658 0.9115447737349138 -1.1694665300212053 -1.5068482295070371
Ni 6.66845195549914 1.779150364016862 5.98636177528315 0.5993262037782711 -1.7811831370440292 -2.294395639751668
Ni 8.781641653804096 8.889380421820777 9.759722698852622 -1.1272317897217103 0.4613572085992441 -0.25739519435885994
Ni 6.212725406340869 1.6092371360893767 1.0953008617476068 0.7713612874030715 0.3444710022324454 -1.5078111076409386
Ni 6.437152577489671 7.6498420469820605 3.24963013146043 0.06644630454869202 -0.3351376406466615 -1.1736486864233528
Ni 5.6523669573148005 6.950787439249833 0.9111832181280886 -0.2351860052516724 0.6431707117670471 1.0626721606727698
Ni 6.091659565100468 6.608048874144863 12.215789148338423 3.991673139119977 -1.4074329262314922 1.2713943153059588
Ni 2.3993739888669525 6.072508273376749 4.6744426468087115 -0.45468262479254595 -0.5336702563413583 -0.6186074206053863
Ni 0.8126379975621216 6.628350170795334 11.24157174887445 0.8289169743303532 -0.16292823622752586 0.2707474472960498
Ni 7.813689926344262 8.56187014776198 0.5880596564108507 0.5766534447711036 -0.14452376557840915 1.0321835051656096
Ni 4.45580537949677 5.422263955398485 12.765364446329544 -3.031516517914631 0.06518723533061031 3.857037836299874
Ni 7.191630003304681 0.8496310592703883 10.786592702918567 -1.6564154710466246 0.20345884935172057 0.25061031022654257
Ni 0.20611148784363442 6.302017724363129 5.565045413864595 -1.025424332064905 0.3195616405852754 -0.23590925657094208
Ni 2.8213516031183894 9.009778518265 8.070154008936365 -1.6680741383314757 0.16162417270412163 -0.15730034851778715
P 6.9955170663604855 6.443032441389351 4.974002236607487 -0.16896827177401866 -0.6012411614127967 0.2440743088802377
Ni 4.999915371815837 1.5489824424675835 11.707777254216078 -0.3743479922975359 -0.24125535137420387 0.21152028620361635
P 4.9658140160443525 3.6321607218776455 1.1202958478612124 -0.6116911531015272 0.3443715005401037 -0.30806700968211465
Ni 0.32036169504637907 1.707321427261315 13.587080063426376 -0.11227493284703244 -0.24439852498887585 0.06099967961182398
P 1.604312518217563 8.14565183237758 6.402466017598203 -2.284568626358917 0.6562841092205536 -0.12690219584190404
P 6.245815870684806 8.644726147887745 12.757871793262428 -0.055920208206387566 1.8389481117686393 0.5504852710161681
P 3.477243929164327 1.6891810269651433 3.4157464882829798 -1.134580773887614 1.8781918877606105 -0.37385434049056904
Ni 5.215717506014006 7.987377767216809 5.135964664343812 0.6916632600507958 -0.09991898238484083 0.1564508560332983
