# total energy = -340865.6270663473 ev
CRYSTAL
PRIMVEC
9.37385018919712 0.00000000000000 0.00000000000000
0.00000000000000 9.37385018919712 0.00000000000000
0.00000000000000 0.00000000000000 13.71957727518819
PRIMCOORD
 96 1
Ni 9.014569423927679 8.009561431372024 0.2777921806647297 1.521348480005741 0.2209104691692647 0.1358573481526628
Ni 5.169931567801247 8.26187736152686 9.988607152277124 0.7589261469635123 1.3257392086054265 -1.527566435890995
Ni 3.203578977669363 5.1959158810006825 0.48223210748810935 0.4655236812721079 0.27749325066031566 1.973561560211872
Ni 4.611971872790425 2.1252487275935112 6.539518597199717 -0.532004181492845 -0.14355548812786892 0.30940295488471875
Ni 8.44843573140246 0.11846953301169752 12.144309644921979 -0.6445295397877868 -0.01797226820770453 0.12579610726191884
Ni 9.313717110483807 6.581258478085161 11.929392565550618 -0.6267238790649335 1.1949739302636904 1.1110145565318996
Ni 1.5114302582841914 3.4196368546296045 0.007137249664520267 1.2578628564784273 -0.9876653681485764 -0.7026215588345125
Ni 5.818883228261896 7.549361621771343 12.055626458815956 1.78903040100259 0.6950851412481514 0.625131337766833
Ni 8.190420500228411 5.725088481554266 2.6745357362507556 0.5861451863116228 1.4489634413751111 -0.9887506307929552
Ni 6.42111561852558 0.07564322286946776 7.015670825343977 0.46707894157436974 -0.5486682724120873 -0.606150425788956
Ni 5.882953495476233 2.106163568259438 2.107505903631069 0.4208433076455978 1.526323307512513 -0.058753306779808494
Ni 0.7087371406751799 5.21953798390926 1.1304151122191934 1.212619925480228 2.50626225355111 1.5243558993734974
Ni 7.530173350083303 5.99674266500291 0.21085726478020986 0.15114384199808809 0.855845680400397 -1.2150856134119008
Ni 6.565641643384489 4.54089933935676 8.90176919561404 -0.6694167899477698 -1.0563711581554065 -0.1241446877014249
Ni 5.889187105965996 8.670736592702825 4.70457989004241 -0.14663001328813455 -1.4518813863528544 0.5513347635006569
Ni 8.029340255632777 5.491192167357903 6.616183569758485 1.8699659003063924 -0.3714652714331022 0.3048541591717717
Ni 7.329779177075537 6.815089175328998 9.034629463699249 -0.5408341210796492 0.3066217925951558 0.16561426770012122
Ni 2.705246344801979 7.878599367984825 8.926300562007592 1.0317502742829328 -1.8819606107744233 2.4000780069828473
Ni 5.4494222901513085 5.441679489753496 12.612600024768849 -0.4306335542631422 -0.7130885198041074 2.1171988094202696
Ni 0.2651159228221624 8.65176391957308 10.059592508902435 0.9252693224098582 -0.4640013310903105 0.15238645615593754
Ni 0.5429727830543799 4.024831381607221 10.696194121513065 -0.15135518667794579 0.17172603702481393 -0.07911515826561215
Ni 7.543531086847083 -0.007054759781347456 9.048664929844096 -0.4977876835121362 -1.2824929963222815 1.4257466369390153
Ni 7.9696663242375365 3.531785600343185 5.285618004640899 0.3583945542920731 -0.2924922951723092 -1.2878187794105693
Ni 7.151151084604958 0.8604210376694025 3.7153302773278702 0.9627626913696259 1.590551521363964 -0.5696014230203287
P 1.731987583417495 7.196801735860821 0.8304265912857252 0.5039393049358288 0.46106050329443177 0.11191060752907822
P 1.1785085888790146 8.417464529811214 7.717578178646463 0.6726928895958803 2.0014462024372817 -1.512490515394479
P 4.563696543433609 7.162905892957084 3.8702519022366255 -0.10028793568848535 -0.036004186008750896 1.6211702746910854
P 4.983138851666633 5.204774169591399 6.032965097566135 -0.47745874214679707 -0.9162645478080865 -0.1005339902610204
P 0.740440439979585 2.1680591021901283 9.450854666488532 0.9974106204607983 0.1141423250730744 -1.90037305184334
P 9.53086235408587 4.663762396032446 12.841017323429469 -2.043185748267913 0.5608457883148857 -0.9821246408360054
P 0.1358186552589974 1.5526845737209576 13.295944342202342 1.6165494880896223 0.006905725980897784 2.46257406863454
P 7.833164315287256 7.17363895161991 4.738097029391581 1.546433447998827 1.2186633034608303 0.7575130686660696
Ni 2.0680494926934556 0.6305414183525353 3.674555903029564 -1.2674654125651978 0.1794578584514329 -1.201242022660589
Ni 8.045800736865896 1.0985027760517483 1.1183640901956746 0.11135447791529209 -0.3757782969861593 0.05078314409013835
Ni 1.8399180964688302 8.62896671549623 12.426877802345409 -0.3307084012307143 -0.831070016117614 -0.6255681681939355
Ni 2.8292717589223724 7.838872990156829 2.7467003232514244 -0.7928909339447312 1.9237423226969 -1.6416951341173145
Ni 0.7082928201680899 6.8941013600180465 5.904508664380311 0.8696982700127732 0.18975229839890548 -0.9654656921230858
Ni 8.01224235257514 2.1517204810116954 9.906645954264647 0.36850670302541055 0.40064909208591 0.1303888688389238
Ni 3.7657194099409894 7.418643278493519 13.454680186822806 -0.0664506754240662 0.6133477148683436 -0.2627186634543024
Ni 2.6048805289916053 1.4948291692956632 13.285997749584768 -0.010917932464084424 0.7396690985061133 -2.5506865453027556
Ni 6.639123256360815 5.502187693830826 4.352741790609651 -2.4300218457301312 0.0048275032956303955 1.6399866360666402
Ni 0.6966598718706515 2.2695029107919646 4.90332239061665 -0.9385794092552028 -0.9991805678770275 -1.481228472056404
Ni 3.8818801636088835 6.71551076294891 10.965687632453603 -0.49069066745603884 0.6085379521845261 0.13224623376263675
Ni 4.643036812885277 6.05760707539394 8.511982937766678 1.258872271579548 -0.723233064437277 1.8254886438296238
Ni 8.324372821880624 3.865100971463505 0.8860857025715434 -1.7400033203716099 -1.9733299038170402 0.22047183896994932
Ni 6.006416478574994 0.2498252981140386 13.393778281030334 -0.4152958954648074 -0.599800058090896 0.3131667928025252
Ni 2.5602891228264846 5.187216947866095 11.948009969751698 -1.0547415929717836 -1.772485095049399 0.5788309120383965
Ni 2.3964717139255702 5.284264420648835 9.35577757705158 1.1959059551596565 -1.0228442300425546 0.8044899516362404
Ni 3.4724116321594822 6.7304245588725395 6.758483305156764 -1.0381253245713413 0.31245845388159094 -1.2365309277698704
Ni 5.570832400021109 3.1900900070005367 4.536131799063386 -0.0062590935358343815 0.5377572819265384 -0.13031713506072395
Ni 0.6760477123128453 6.472071869085513 8.586685963444983 0.49952652058011393 -0.27524842049019693 0.3156211678802887
Ni 8.452607094812903 0.04988200730861328 5.512224275411863 0.0037160153990065036 -0.4958752969807719 -0.6372342916779541
Ni 2.9921049135354294 2.899088196407724 10.405819421509372 -1.9604214232854882 -0.3977691994349537 -0.1724235773124708
Ni 8.19072046343995 2.7914482727175662 12.190132775024477 -0.06894567393177803 1.2092723491642337 0.761240911139618
Ni 4.7429151884769025 7.031306407745369 1.8623365969911136 1.8409201478933457 -1.683216650399869 -2.63839664432623
Ni 4.329340910569582 1.5000410300961273 11.782949588292976 0.9174721949629425 -0.3113783334435347 -0.4179469599344093
P 4.953629970731632 8.155681010792225 7.779233742007922 -1.4571282365740905 0.03994491582405379 0.6791371025593272
P 3.8815895742477067 0.2242103146188087 0.6982712367476295 1.6983339656572818 -1.1979774929767046 0.17459898769723478
P 6.762933071922916 1.8180489035776746 5.845102825105381 0.3599888953623865 -0.03386271418571587 -0.306584254489001
P 7.66691907914296 8.017098007061902 10.870241213312443 -1.3424333814316558 -1.2782972130733792 -0.5277469488783878
P 7.33225387357072 7.7997090433504646 1.4364263320093131 -2.0442396434537247 -0.07393592805751784 0.5980905315989571
P 8.681225931256277 4.990000510130553 9.112968605932409 -1.0805968634719907 -0.7819364918157566 0.026602175968560637
P 2.7001563440562015 1.139475875977698 5.656746550730627 0.6620045566440986 0.984405466450382 0.7148942055542785
P 0.9263576384905242 4.75367636869081 6.0924112443976135 -0.1873614295692257 -0.9121281570422098 -0.07273470866056506
Ni 4.48500306965682 4.861063198421233 2.9444679433881666 -1.1465646857223672 -0.0016889576666487042 1.8968989772518103
Ni 2.904590646569365 8.344854684918419 5.126567198648322 0.33651729460300756 0.4946409103530384 0.5056408610079679
Ni 8.656188376943257 7.861257744817814 7.430276226790959 -3.2547834031312135 1.1051200454243355 -1.112762906681574
Ni 0.8130446605621634 2.522709356731052 2.0554397891884477 0.18834204831494014 -0.5032430501997526 1.1274174233699552
Ni 2.8599711188531627 3.429198181997362 4.904941254573917 0.6051191563109642 -0.17211298805058747 0.19839891833030993
Ni 3.4575353316372945 2.144624476288761 1.6210227550044514 0.08954766645284577 1.1219191192595452 1.5161869904094598
Ni 5.914758969749568 2.6248374564092094 13.431521152122038 0.04046710687611095 1.2781825418723858 -0.07018263166267269
Ni 1.5120114370065454 2.7793935011539035 6.899822220893088 -0.23855517883422142 -0.5072825103764489 2.1680395462212205
Ni 8.343307999608928 3.3195803758811286 7.627055843099699 0.5093913291893356 -0.7078090165727229 0.6193743806783978
Ni 9.169294197978862 0.8922930662802975 7.678257688539077 0.9330721062837285 0.6982866789045845 0.3135370316577503
Ni 2.6284651364987406 6.152517310294474 4.239801891925639 0.07347544348133153 -1.370380501463885 0.9581413905475304
Ni 1.7045315757114539 0.2242965540421257 1.086617671179611 -1.861261687664175 -1.622538872903838 1.9525811013054628
Ni 7.468999602630377 5.501362794999097 11.094323106181314 -0.5639408823004417 -0.5636500905329003 0.12631624143144699
Ni 6.191334424637499 1.7858497275891965 8.559863628023315 -1.6369105682444776 1.6764785603450867 -0.23620570476543834
Ni 4.748961321959455 4.4549317577001855 10.717020942244128 0.39666542484781364 -0.0728213548371004 -0.2515724170294958
Ni 3.341965130542114 0.3504113994078851 7.918569465922197 0.41345575693227504 1.337315600589116 -1.5826266100899324
Ni 1.0382851613355961 1.3487845806783454 11.390240563903197 0.9100522483497875 0.37838308159885803 -0.8125380187516973
Ni 6.325389858643677 6.876694119898511 6.747027522631141 -0.915039931372366 0.7009017479299283 -1.0640952662725416
Ni 0.7180135029919769 4.666640168093133 3.8726253611479162 -1.0370027809311237 -0.08818343911546749 0.32441356936093807
Ni 5.919408399528399 4.741396624718494 1.3744820540567482 0.9628010008067289 -0.7167579982358947 -1.62547018761802
Ni 0.6512126331676128 7.426826649858277 3.2562047109785084 -1.4275163272449287 0.4579582102200242 0.1969570436774608
Ni 3.2493608628302733 4.264492613775319 7.346325897731973 1.1247643020178242 0.36380132712994123 -0.37856845813678675
Ni 4.374147915292995 1.1794553477654295 3.8662867635341143 0.06111100837870765 0.16995274717447503 0.7553991076468602
Ni 5.503734379140316 9.143731708045651 2.234274106366958 0.6110069825503089 -0.04748647561673758 -0.5890798434599146
P 2.4939503838248953 4.147656942881465 2.9097443894975936 -0.12867368592003 -0.6425096811442805 -1.9217479179746901
P 1.6308906072789988 6.771613257356782 10.822400830612358 1.297987749523771 1.0562590580575744 -1.9021262870890208
P 3.2863875717544326 9.192953796288883 10.734458178684816 -0.36504445550842296 0.18220765328242816 0.32376976512935207
P 3.9768278939108614 3.656992119609008 12.962037481124272 0.023140442672205306 -0.886859098062776 -0.488171757688927
P 7.170676814905978 3.8732655951275414 2.9965753027723743 -0.27166533112462893 -1.3735851244441117 -0.1480168663333322
P 9.34156681990499 0.4369714084072456 2.861739027031162 0.17529987041900133 0.4240523015011987 0.7644455341198447
P 4.485106182010786 3.2708269801559253 8.940321967376896 0.4678602998250846 -0.08753552111882344 -1.671903539379895
P 6.322962031400296 2.095955445216803 11.290677149683686 0.30901523252799684 -0.40516652034028927 -0.21033835008037322
