# total energy = -340863.3934679308 ev
CRYSTAL
PRIMVEC
9.33374160816292 0.00000000000000 0.00000000000000
0.00000000000000 9.33374160816292 0.00000000000000
0.00000000000000 0.00000000000000 13.66087431260627
PRIMCOORD
 96 1
Ni 2.2086712225631024 6.677442582660265 12.18252151340843 -1.0462584952014367 0.12198650370784153 0.43790232001041357
Ni 3.486796431358583 7.183583376150308 0.4805448745200144 0.8175241591123791 0.6891914014715357 0.15523549556895846
Ni 6.88332624988883 2.059266024388851 5.499553355854733 2.946529988469906 0.8866284701092085 1.1135393798362823
Ni 5.430342730192092 8.765148517015815 1.0923426869900477 -1.4046237389174712 0.8914675433690646 0.8739966402778109
Ni 5.083547569439652 0.4644432372756587 12.419564942840088 -1.029301298521808 -0.10943617784665668 1.0590471623256728
Ni 9.089962716832392 1.6612192897515603 0.23424890726427075 0.05387772385506205 0.47937961331859374 -0.35515702119138187
Ni 7.664019045896246 9.078024861614995 0.656412162863805 0.5429917908526003 0.04995473465157203 0.805690913922877
Ni 2.7920487259233226 4.397974931775073 12.11621181456484 1.7356882379360237 -1.1097796556835338 -0.04751810018562139
Ni 1.338374509364906 0.2658128204688603 3.3341412244378916 -0.47161513888182655 1.4763366911817413 0.047822004579285385
Ni 4.212933509034738 2.325324322255849 11.707683288364501 0.015494238980857188 1.6462986943275968 -1.1733738354954113
Ni 4.723479828453328 6.739903979935337 10.60316100225547 -0.7670135519573371 -0.33478077152787505 -1.6095056938689638
Ni 6.275092993249541 9.232890298493059 4.905005230818062 0.28024561659447217 -0.37129480729350894 0.6078656087078499
Ni 8.998352045246193 6.583498475730557 11.217216646763884 0.6233724460941974 1.533386899227514 0.42880729968768083
Ni 8.562559660492287 9.002449557709395 5.966741646468496 0.7638320689055619 0.372892490797932 -0.13608000568643014
Ni 7.151596644461475 6.793320981818966 9.829449844795835 -2.36556454658701 -0.9111637362464113 0.7913395302972114
Ni 3.514116292360397 3.8231658029962206 9.609755040456104 1.7707953660518019 0.19657960573338404 0.9092482643912534
Ni 0.5383748693252887 4.664341243107414 12.244514356866524 0.12665459860747222 -0.18667365947358172 0.6011827973710356
Ni 1.113926030543377 5.749146000563787 2.791190021716911 0.6281986638382471 -0.6040426354173339 -0.13079973112409735
Ni 4.264110412988598 7.827947545648502 5.457778329586944 -0.48397700288128903 0.4516728914319447 -0.1553887333173711
Ni 2.7501495608952595 7.7892965226186055 2.978479942754251 1.5400648254683218 0.19485490973279346 -0.38088656474700205
Ni 8.471518347129903 9.091960137486435 3.6773839632233716 -0.007068991031639439 -1.3336124407059162 0.4961738020577971
Ni 0.16818468581881876 0.999522362521774 9.314598803855539 1.076295150772843 1.514540198834656 -0.09080210768523717
Ni 0.5247149388243818 8.283359454770642 7.817434952738922 0.6038156070081924 0.7385326709088248 0.3209299816877118
Ni 2.131415845210177 1.178636859489593 10.922456160797578 -0.9529120238277912 0.9339113143555723 1.70984402317941
P 4.809424919025484 1.742310834809216 5.512682196471457 -0.5139599223966246 0.15130067929092653 0.8802341365470906
P 5.719856720132051 8.975335039017812 10.497671057246075 -0.8481513970799328 -1.3853278668023365 -1.0527865261279417
P 3.505417245399792 6.267159313081609 8.051145303125912 0.8594398255095586 -0.3502130469225453 0.3259238353578774
P 8.317380942079016 1.1753140475604351 2.262527843665448 0.5831508795699892 2.0356159063404555 -0.22394077135515625
P 8.627653172834838 1.1918067685683629 7.365109711889179 -0.40114582921667047 0.6923222337910335 1.1201784824193546
P 2.959122696518631 2.8509819689590086 1.6743042617838264 0.07444037849776212 -0.7725933600379596 1.1712053670891829
P 0.1387208644233881 5.270325068075557 8.647142024823832 0.05461794445519626 -1.0606810983846702 1.1381859747403686
P 5.951268170018613 3.1281940877679832 9.998489501324517 -2.3962511770375894 -0.3839778020778161 -0.6115962793948757
Ni 0.4814119790936626 6.278565145040685 6.74542582133222 -0.7386031191354442 -0.7881086820647395 -0.979282800511836
Ni 2.6503531981240283 6.008652011986209 5.974829333369102 1.000911177414889 0.4977205777196267 -0.544770737129894
Ni 0.37105822145425554 8.726656167589276 12.992215177239125 0.2054087739892398 0.34584242865867537 -2.3868458245632893
Ni 6.159233261573588 5.065085429001802 11.441924603595611 -0.1563474976862146 -0.779506027997393 0.5358878328179674
Ni 3.5151803388770375 0.7202278860122509 7.21878838186491 -0.913590343410033 -0.917561412242639 -1.333622210897929
Ni 7.442146679693952 2.6509225563478447 11.305247828533139 -0.16347536698024748 -0.9219747108189863 2.79199563273303
Ni 1.1284026634145121 1.5760862346789455 5.610001384282017 1.6867413757236758 -2.497069531308248 -0.9013014987403509
Ni 6.0193298121181105 7.652202529316712 12.356355912880954 0.5457495561033956 -1.4877382481504637 1.0892023457528146
Ni 9.244632145141601 3.0676927761814587 6.544323829809576 -1.3192728841547923 2.4594347516746096 0.633848920145489
Ni 3.2074842207404495 0.5932171335167328 1.5859183978423586 0.22088372969638734 -0.1369266699574416 2.582388761502043
Ni 6.559828107605992 6.779068358740807 1.0900820548292554 0.2024337505213159 -1.3639051781521865 -0.7404568845147311
Ni 8.148654899260503 4.600311777281502 10.541700182055695 1.6127784510829644 0.6783578011911414 -1.5042956382885124
Ni 6.2760263673869465 5.5696301527168846 3.8066712152400175 -0.8858221721578292 -0.42121406072145523 -1.1994707896927794
Ni 3.4322033780618257 8.455286970880449 11.445284750490265 -0.5132461841590515 1.5076851235860358 -0.20598830064179366
Ni 5.8125034370107675 4.940293306830894 8.978104360083488 -0.9734335408199105 0.46649504404644176 -0.8467072084342386
Ni 9.145787823990522 2.8058999981223978 3.833213575585374 1.27816300148836 -1.5795459142820796 -0.7842499704402817
Ni 4.252181891512575 1.2113702904883499 9.49891126139456 1.4215937911129064 -0.05475729824653795 0.859216910865475
Ni 4.991638218129485 2.0102452146923957 1.4469875242380545 1.7334521495166533 -0.10192444285064382 -0.011183013200012998
Ni 8.42146149214093 4.674748364739467 2.190343488001038 0.7075470211605879 0.8450290494008672 1.2190214581311973
Ni 2.114251094823318 4.591640731545019 7.783706544909692 -1.1684938816952908 -0.15943153592817702 1.276657363477111
Ni 7.042158526850861 1.1556198532612116 9.598088797112693 -1.547769136091115 0.285701754613037 -2.1297807598503384
Ni 2.365776757370936 9.204142375061016 9.155353975524775 -0.5015039560214589 -1.7474466640235324 -0.8220642130745779
Ni 0.7080072184312209 8.00814475661571 1.6643722275877109 -0.22252717883708129 -0.6703675838968132 -0.37339334169375044
Ni 4.605669344830201 4.0932749446195515 2.759851985053573 0.9603422548535911 0.13997471275514603 0.36521209143453875
P 2.543052507288069 2.3229722194295905 8.425603806562728 0.08102111703907337 -0.5443760727946367 -0.43394384958329785
P 6.544119420873484 4.214156229154738 6.977878916756125 0.7604765221697677 -0.8164910898621744 -0.5565800710599963
P 1.0123655906524525 4.321531589921689 5.101339547246846 1.0855770902954012 0.32149511016256244 -0.2680287628133061
P 6.820127487045208 8.053805419417513 6.784645269211796 -1.7445798839986988 -0.7959621166708872 2.115309562817357
P 6.700226245354296 1.4044293970689838 13.36693315868614 -0.30536940824529346 1.7991687749881724 0.6974814093944698
P 1.1370177067027507 8.05178933128072 10.675358425157803 0.7589914529838089 0.9350354006576864 -0.6722722571186939
P 2.141318944808033 8.548671053327714 6.029076104860882 0.10577415561403718 0.6412040749589796 0.6239208623984996
P 1.3992585043477659 5.944305198953581 0.507030299042989 -0.8644925574421176 0.2140152847113282 -0.029549174412026525
Ni 3.1186270028595926 3.606221652239419 6.031685818949064 0.07103700924316798 -0.6570909213925651 0.11304137869941176
Ni 6.018032422067119 0.6245747710369561 7.186972457643222 0.36302819640934253 -0.061663795558384124 1.2389562493819113
Ni 5.322015327804989 5.804448418204972 6.1545514569003705 -0.2718010853715448 1.2249419373806905 1.160088174130099
Ni 2.570783052910341 2.020680337548572 13.317876880772463 -0.9086144874619965 -0.2695508558847874 0.065846466181164
Ni 6.828294510747492 2.7978636467993496 3.2980765811427397 -0.29285919159342466 -0.8036687412865257 -1.1236129620222004
Ni 7.632218989034894 6.0265914629071125 7.7420547240280415 -0.20388488114554565 0.5386602533567819 -0.964176798108333
Ni 8.014417030819065 4.471412808906016 4.784202349710418 0.20484518817628594 0.7026097317599707 1.5876713716026916
Ni 6.646407892591584 7.720432178760942 3.152396479150868 -1.116946091524986 0.9664475964203807 -0.6622727227038208
Ni 5.015569931012522 7.9200249043034034 8.297369400573075 -0.0037993191414321665 -0.1511826656558235 -0.060719429367243824
Ni 7.851384570238716 5.129861594137636 13.538089707758454 -0.24905427859333235 -0.2200059550771243 -0.7865673057195486
Ni 1.1207209942636776 3.7871095600683056 1.0324247342394008 -1.7300953172292786 -0.6464375554437769 -0.4770645920321719
Ni 1.9321871355813027 5.649685652482021 10.056383898945272 -0.5399074955003217 0.7657480549813522 -0.8141117909967206
Ni 7.41432279665794 0.25537023061958486 11.724403752661956 1.6033599859825418 -1.015055073015439 0.8130177866015934
Ni 7.948184802028881 3.169878576744444 8.583946995476762 -0.37622258361242944 0.41100935227431146 -0.4804088259140565
Ni 5.697399738386111 3.458477860029747 13.248588785056418 0.5926824732095084 0.3176960481314464 0.3777729588186849
Ni 3.125011281959436 4.885382906327418 1.204443721014675 1.3844722036702606 1.6699597853899626 -0.7265413028749036
Ni 4.74280067309759 2.662319054565547 7.573137339511361 1.2585280008662518 1.7255046125348026 0.4817748530236477
Ni 2.624172053569847 2.9622121649134376 3.9926086771522598 -1.0198488948596567 -0.14018065811836503 -2.1186483973826027
Ni 7.591281199368356 6.910842119459499 5.296129129478227 0.3200810034238552 -1.261487597715208 -0.046130475809475394
Ni 8.241796304432043 8.597337180851957 9.651762476884107 1.2003447076573006 -1.239831452898013 0.31691366143946714
Ni 1.1682110703747908 3.205533468793275 9.859749036044242 -1.248949098928565 0.8079136326058086 0.4866627772435684
Ni 5.395191860177459 3.7774304702634267 5.073703272412453 -0.700921031203638 -0.12594291725242823 0.06040421211967017
Ni 3.3250800283119735 0.7155022127545748 4.441928453279562 -0.44605091725947693 -0.7929873503132795 0.2877334403310851
Ni 1.2024192325106458 7.360504443895229 4.52178981122412 -1.5682423163438024 0.5815781357662306 0.7717032441235225
P 5.118838445574895 0.37194679363306415 3.283145395066689 -0.5762436109271948 0.028906141511388924 -3.184794632646902
P 8.597934540299896 6.763630350508147 3.4585095947504185 0.5737203302847088 -0.6730901250342989 -1.2183393444625084
P 4.385402382144242 6.444379060550498 3.0304054127663083 0.7310440758412635 -0.7597003061253754 -0.6269197971258235
P 8.176581453451629 7.344655751042108 13.130682163897138 -1.8800662219651878 -2.1094939845768446 0.45817855376094635
P 6.624762946345186 4.030570870068754 1.5637871636703735 -2.3824595225701355 0.041039948660445455 -1.250724188551117
P 2.2051990707719598 9.066675032104163 0.10972279672252201 1.0625631458987312 -0.5998566223604443 -1.125593225677023
P 0.11175381884551301 2.5764859688898794 11.909454509143664 2.3105390822807497 -0.07916760877010236 -0.4924503304596229
P 4.510558520228738 5.788749065213836 12.601377824439142 -0.9187839717958305 0.3282511979394734 0.8464380139332518
