# total energy = -381169.84546133364 ev
CRYSTAL
PRIMVEC
9.31061513504998 0.00000000000000 0.00000000000000

0.00000000000000 9.31061513504998 0.00000000000000

0.00000000000000 0.00000000000000 13.62702638154386

PRIMCOORD
 96 1
Ni 4.847199416589372 1.0618291186587558 3.8149538468948525 -0.6222007943835994 0.6560858771668185 3.1294716917048815
Ni 7.596354098473624 1.6501762082914926 6.713708701779878 -0.36164571423951913 -0.3802828697247322 -1.6710059672662898
Ni 2.88541553638529 1.906395029952857 2.4266461416115797 -1.8302986636237577 -0.22810724402802005 2.212263291926287
Ni 6.504656526023318 8.495731601872105 10.415395189648633 -1.0804891342495329 1.5942040305148866 1.0829738483445994
Ni 6.062392990003242 9.097904955183287 13.053600855709437 2.140430783365017 0.006571996790562875 1.7317945593085722
Ni 9.148098482112914 4.012307234562547 0.18170038127294563 0.7460333501612442 -0.8747841691761128 0.3171044372940345
Ni 0.49630886448759737 1.666525648708563 3.184677332447632 0.13341814258355086 0.6762944909042096 1.2882095870910848
Ni 1.0957942431698449 7.886854605565314 1.8493786841521425 0.8544523995972961 -0.15010537343124472 0.1258567852965252
Ni 4.234523689251735 2.46701510730653 8.605999080657666 -0.24622220846117593 -1.6615386512058032 -0.4374914577252401
Ni 6.536955050400776 3.274357178744454 1.1087313430898442 0.49808978813358734 -0.009008374146197389 -0.6643033799806042
Ni 0.5612690272381093 0.1455044333427621 7.815617225998635 0.22001161150407914 0.7917102833730688 -0.17818799060007376
Ni 1.765004026437123 6.394409530591354 8.374707569263173 0.5907412903227375 -0.9084622781548484 -0.5480506934327464
Ni 6.383776807951095 7.425727763004814 1.8108411164811313 0.8373437649414674 -0.6910847618395066 -0.16457477069201332
Ni 8.747537191894693 8.489512110870622 5.807539104540706 -0.19458648656275518 -0.010124747138827724 0.07090382609941338
Ni 7.486963679646654 6.6189257072526475 4.857667341339321 1.3689954481909004 -0.8771734953438958 -1.513356205828884
Ni 1.4637311374760986 0.25800366660894547 4.995627383127442 0.3598927361041544 0.24589207881526684 0.5538356755456397
Ni 7.237867478668125 8.767545704113534 7.865533296593167 -0.5770416813484579 1.264356691732887 0.19840714586042604
Ni 0.38514756663595445 6.321134988403232 0.148668180412079 -1.1638476411725311 0.7122449408568895 0.27253256422093064
Ni 2.7805314553498137 0.5489147718341171 9.410238855087067 0.15366378020646437 0.19401570166094972 -0.8730795277801802
Ni 2.857735077182585 8.770999942379326 3.320347893940445 -0.6524166558453474 0.0957486530572351 -2.054226065242475
Ni 8.292331900646982 7.270538427656451 10.423571771980223 1.0693089492629972 -1.3360467611790217 -0.5225589769195452
Ni 4.171611861860993 7.310034057638918 12.115885031806759 0.08369994942281714 -0.32598811293690955 0.12766427081890916
Ni 3.9820384243143145 8.415483408845494 5.29328216699389 -0.2296002836337788 -0.4603053702959621 1.025262095455428
Ni 4.184060154479229 7.7499978716868885 0.9521519328814187 -0.9388740576774863 0.2404230852808956 0.18433395559681157
P 2.833406439477685 8.147989432090126 10.568290389394054 1.6946122938313204 -0.4685005045122448 1.507817535398842
Ni 5.957657878812112 3.461742621702288 5.6479663315224355 -0.7528174629626132 -1.0014889042952302 -1.3742129878360978
P 5.025032168278462 6.044060388533304 13.555729785803361 0.4880930819321916 -0.4947195861097738 1.3776749782427693
Ni 6.810677828772899 0.08907744948874494 4.678498516358746 0.2202684647098916 -0.16520083431178648 -0.03755276144279339
P -0.06043613479000263 6.0401406195039264 6.0682512291321835 0.5902116430715126 0.04622072153043652 -0.5020600856352451
P 4.84752528812388 7.957112508405412 3.2495965284909483 0.2518297844559405 -0.7930066335869891 0.6779320265076324
P 8.041671516302811 2.0136812497284264 4.588655734294669 0.792736410644738 0.1483408253316542 0.26858566375804066
Ni 1.6860220770874608 3.8427795516957954 3.868917241947983 -0.966106153920562 0.1762257246673804 -0.2976548132098551
Ni 6.7245825693556736 6.5205125038309895 8.38177991262354 -0.8678943840348151 -1.1237669711015614 -0.7143625014205246
Ni 8.853119569075545 7.239217517882518 7.848499525953628 1.3196654916075208 -1.4156509432659103 0.16619636545583635
Ni 0.9950347646997229 7.339539397434872 4.279335680554332 -0.32201524433209056 -0.8337483342807254 0.2961358054621674
Ni 2.0134298631160914 8.232110841069755 13.222426518184703 0.024864881562479756 -0.3880601996773059 -1.273356581238652
Ni 9.002973921873236 -0.09454743596085699 12.071556261436761 -0.4567094254145876 0.1896949627984088 -0.07756786838315029
Ni 4.295508219281239 0.24402843308615366 12.039328497735369 -3.0743901773497053 1.409929467401101 -2.0085337054116827
Ni 1.8144247722992008 1.3429445255565928 12.61493401036881 -0.20453254203187354 0.31760785929301427 0.21330746001102618
Ni 8.26954882507718 4.038544548398141 5.7154068421813236 0.032220293486286446 -0.2154054801906355 1.4762891257732575
Ni 2.930758232758372 0.9930143611857684 6.9459135845325255 -0.6347783739382938 -0.32430584013848013 -0.1490892734619045
Ni 4.021962342599279 6.751406451953384 7.350854588174545 -0.1604995721813752 -0.27827975111735304 -0.9237803965691574
Ni 4.379303756726361 4.6431852147563175 8.591731493815344 0.25433326760408453 1.5329464692559858 -0.3200673765771004
Ni 4.1901306756363645 4.445241534080399 1.3906111515014863 1.6608807059068298 0.8201579971908005 -0.6861906669719988
Ni 5.217659487634251 1.011970773878909 6.481217983138391 0.4042429800847554 0.30865810629889423 -0.2885536222395353
Ni 0.6520661473675337 2.089190339581752 6.320950638220852 -1.529735675628172 -0.03574090504503522 -0.40648138249697097
Ni 8.333335850303461 8.606267226377492 0.908367833504816 -0.5022984268982962 0.011528569464889822 -0.7807668969876876
Ni 3.91767414094119 4.192672473605533 12.602124465878033 -2.2387554246795442 -0.3385368961361976 -0.6790537988169014
Ni 2.723252550198438 6.06709485071544 3.005754307710228 0.820788688796264 0.5143142204122497 0.33131646712835844
Ni 6.394986788738199 5.2397163352128615 2.977369034931457 -0.18956435075781547 -0.2979777437669126 -1.1893020766898936
Ni 3.3965776254157984 6.020336940821063 10.279179957162427 -1.1586272733138563 0.058639664020079654 -0.3786808153449349
Ni 5.398052658523053 2.231940692927151 12.696846010344471 2.185561614265384 0.3652835681024225 -1.2300118957044301
Ni 6.89597237527676 1.6486585780022087 10.932023540905146 0.07872306503351603 -2.4059702040975663 -0.9734384259159171
Ni 8.572404518634391 6.33730752713014 2.6179969756136217 0.18090256131775942 0.7719027617288383 -0.14153177282962076
Ni 0.5261056265415552 2.0876354668313817 10.604783345951406 0.07149080895113495 -0.9647483543410869 0.41591887376078696
Ni 3.814289068964454 1.9104079051349512 0.3858421385352218 -1.2458563189358545 -0.33373433254123175 0.02568840590503963
P 2.1470744347257873 8.042537403523077 6.844214664981491 0.23353381436023007 0.48989002593161446 -0.3113163698573478
Ni 5.573287748551343 6.126235878921153 10.468172412316152 1.908836866339977 -0.28507774787579293 1.0598629733587488
P 7.4059892586288525 5.123706068927727 9.913035356295973 0.13114271628581284 -0.9322506388236976 -0.12238245359467954
Ni 0.19480786545241685 4.510276181753084 10.005535387958586 0.061742985535751735 0.07259818308270079 -0.274414868845308
P 4.920734656005101 2.5448611615930474 2.2884412306418147 1.6970808099764707 0.011740428365379781 -1.2132097365454269
P 1.0224265948290057 5.155892865921925 2.133079648910925 -0.8008554402074466 -0.3138519917950079 -0.20810740386732549
P 7.450726765009275 1.532527273718543 13.332206120730028 0.025643154489401 -0.8839013009860326 0.31556820315516626
Ni 7.504765576046107 5.409467472846132 0.6621020595688776 -1.2856042882577536 0.9618982864868016 0.7334110334115433
Ni 5.066287504547276 5.953607761168932 4.584445474068815 -1.1995803186874503 0.633606979338012 1.0008957507959215
Ni 6.057877341596478 4.557899978867728 12.47755960628128 2.1111973404211963 1.084768221240861 0.5331560357091011
Ni 7.897254562823782 3.1894909205430904 12.03864696069748 1.4943236146774652 0.9986483495226413 0.10046225648282053
Ni 1.4466834009136524 3.953007925897216 11.904025705545786 0.49157924070857917 -0.04217611914741769 0.82172868411203
Ni 6.556414236318588 3.672991171601437 7.952297058186899 0.5494082359019055 0.5741993268036563 1.1412322177658605
Ni -0.06440152583421119 1.6575874580477499 0.9548752878483852 0.5601927281119191 -0.4130968309309595 -1.140677630813971
Ni 8.303262562975934 5.5373115311415715 11.937970346703278 2.267672879044843 -2.6582861841613057 -0.6811286790680592
Ni 2.32930179682311 3.548396518035814 6.215899897172013 1.0654651500368746 0.5882020688406515 0.199542802126766
Ni 6.0273385235053665 7.579408778679166 6.162318237345022 -0.3720049459866561 0.5157314124747504 1.539099890451891
Ni 3.1152573849819847 2.355213239124196 10.783365602169866 0.2629762879910632 0.6762189004712676 0.7754652822691162
Ni 2.1069922359812043 3.815546002026131 0.8161648104693681 -1.1274940422441615 -2.0162133334441275 0.02932445999573014
Ni 5.361759880194044 0.28700437105717463 1.8872337837237392 0.8301001960051768 0.21104231812593333 -2.6880814131458672
Ni 8.265126282823132 4.127218848245622 3.5606194937644755 0.7632551133561694 -1.0665025901624536 -2.1241940097911804
Ni 8.750060368633319 8.856974163798021 3.267597672057214 -0.4259960554911309 -0.0903447084328444 0.2770366227388713
Ni 1.8221525829746954 2.631980588690158 8.377146019402826 -0.9115835973926495 -0.0673230507266905 0.6777541061688714
Ni 1.3852519613511072 6.4340261985723535 11.55003611291651 -0.3301795253104378 0.6082929260532556 -0.11867260884326014
Ni 4.856230713402902 7.887273583252539 9.074646107173104 -1.496019257212333 1.1774266654085463 0.13452114583974253
Ni 5.408359509628802 3.447879115562756 10.618451329170233 -0.12442905171106311 0.19239179290428157 -1.645936683002488
Ni 0.2048596056997227 4.472428530673705 7.634050917585602 0.6023973865044271 0.010597315899872072 -0.23054490693523524
Ni 3.995529505842979 3.957048732925125 3.5777482326797854 0.27341393838461947 -0.30424326506065025 2.227767815319789
Ni 7.120041642405014 7.081290861644281 12.626053678187779 -2.1139430214871333 2.1574766831037104 0.8789403574363315
Ni 2.6101378852627963 5.920443349571208 13.856914223919304 0.8476574881626499 0.9975042086158693 -0.4164564914318118
Ni 1.0140191092386788 8.095794122877088 9.685531403193995 -1.5682271468351507 0.7402439971729767 0.5084775591258146
Ni 7.384816919501052 1.616900069310508 2.6007993381453014 -0.4412306130526981 -0.3448877780548899 0.03360097588389697
P 3.471043926358696 2.149988657305823 5.055994619364434 -0.38518390657077534 -0.016240116007946226 0.5027262584643342
Ni 6.253204739381054 1.3995996194847664 8.667224755622708 -0.46015187543723335 -0.309499371253267 0.7097401721571648
P 5.598994357316452 5.193982592998369 6.72713181581706 -0.5092391198821875 1.855246848928663 0.13890281984720595
Ni 8.460919211371293 2.3380444645632177 8.657876897889942 0.9640258743527655 -0.01659595668546819 0.7907340355027285
P 8.387281555187576 0.20802800807667543 9.82880594417919 0.4182408370257442 0.837150675094055 -0.3017996886161641
P 2.4883922799703075 4.183697040483634 9.706285695696097 -0.8091662740659871 -0.19868868165658687 0.27701039748662615
P 2.1166473440179367 0.41964898258669214 1.039822548402613 -0.5608187917316921 0.8750263670939058 0.6086325687808614
Ni 2.3062766452562453 5.931327458823802 5.814406614365097 -0.5638825182586805 0.3321340779336473 -0.5570642097852664
