# total energy = -340897.99895392236 ev
CRYSTAL
PRIMVEC
9.02770836387304 0.00000000000000 0.00000000000000
0.00000000000000 9.02770836387304 0.00000000000000
0.00000000000000 0.00000000000000 13.21296372527789
PRIMCOORD
 96 1
Ni 6.378500103250338 1.9788194580570782 11.431961955323432 0.2795066815459186 0.14530795204260136 -0.005620431510570965
Ni 4.503129152770455 0.336721777604467 5.959998123146498 -0.174875381287073 -1.0531642211823347 0.13793248551413664
Ni 2.5072292709123425 1.6072028801787532 4.674746787284223 0.5212626267056248 -0.39433909070748213 0.3463005992420165
Ni 3.4276221712099573 4.322927070586284 4.923784241265705 -0.406697612272835 -0.054358520146222514 -0.6136127956042722
Ni 5.017744627587676 4.528325486189424 2.714881002467247 0.19929211956854062 -0.16403123948371748 -0.10866510400858705
Ni 7.382552774882089 6.17562041821828 2.473109950767718 -0.6272416992416164 0.1802721268226121 0.14304820947414718
Ni 5.188503727057322 4.454830914221018 11.598788585127258 -0.467709118959201 -0.31522598932439905 -0.2632002310764112
Ni 5.74928690130292 7.994947356564534 12.142554529528804 -0.4046067911820773 -0.017620284184924492 0.6500111317276484
Ni 1.8836493588443364 6.430057344438343 0.43913390428718235 0.7484347605138852 0.8253747655050495 0.2897108757724301
Ni 2.8157060580589364 1.7965048921681275 0.3746498878133925 0.02570126142084606 -1.5636703807024037 0.007949593864379857
Ni 0.42647254362071774 0.02539133191479392 4.520590545855002 0.8975667142882672 -0.5320736012781998 1.1073736173452027
Ni 8.637666009889514 2.4275326634517014 1.234149993935341 -0.041126594836980786 -0.01770050260355661 0.5343546840028925
Ni 6.864732463675141 0.6725137012705056 4.843964856974358 -0.4697035236814104 -0.3752327088953344 -0.39683048967076817
Ni 0.6485406223045185 7.537793244058935 2.409291276383852 0.7591218079140861 -0.8474471719240567 0.27698237246216817
Ni 7.567593708629344 4.117447405609884 3.9532397139374944 -0.08805745506056448 -0.978371087330844 -0.615449848813011
Ni 7.554377143912265 3.9937858595070437 12.675697569761914 0.9585185713812912 -0.7028601572078798 0.05122640227514404
Ni 7.8815864254495285 8.811954943241933 6.9893139332374545 0.03344285303947789 -0.7029141503742669 -0.2740986231564699
Ni 6.8862996584217955 0.727459944094299 0.31330570823072296 -0.31302075414296415 0.0655523319795129 0.015680129739418156
Ni 1.8505898916353571 6.36345091378082 9.080331553601095 0.889830264875958 0.5000862497383258 0.539931920980354
Ni 0.1544812389222648 4.9423000706610125 1.3458859375851329 -0.27532375381282265 -0.8375756784466157 0.1298309394529248
Ni 6.368109211181103 1.8451281282106078 7.0300632022401555 0.4633600979618859 0.6156714779055139 -0.46934691167294007
Ni 3.4702961475881233 4.270069839426106 0.3448223401185624 -0.011935060874689122 0.326690795430889 0.6096535538462081
Ni 5.903055854052932 5.596375580826215 4.975473286992557 -0.09454949054281135 0.0056628547127321825 -0.46617288482033264
Ni 5.428369932339294 2.8450099986816415 9.278539399670661 -0.6899761021563601 0.0772567649006347 0.1824282539336665
P 0.2529663125640446 5.704031000396689 12.453641227098693 -0.5913156747689687 -0.4535683086824447 -0.7664491948134349
P 4.088287908317419 6.071404555449176 12.550188051802799 0.036645419137175596 1.2931216796807212 0.1701484081250489
P 2.5875307348183703 8.506394105824585 1.5284758485723564 -0.8720708840100079 -0.6858425396039607 -0.7626010247119381
P 6.163965647009435 7.596635845715988 5.86634467890129 0.8096882080077282 0.7559140996100658 -0.035830122324731845
P 4.688115920268871 0.9697202975750208 12.603039866338094 0.7960140529547453 -0.4978509326499039 -0.12185383478471916
P 3.94810565631823 6.044492957483592 8.242458225099528 -0.21355428591450962 0.4466803233133598 0.2336070908003267
P 4.767415308571349 1.073981298884825 3.958577797760725 -0.045737868356747036 -0.4520403020736925 -1.507917808422132
P 0.1821186646223111 5.53947393641928 3.545870703512004 0.7823257568343752 1.1592170843790552 0.35386735584568085
Ni 1.3988794871382269 1.0407232220967637 2.4089211403501087 0.06020160919056083 1.0124613441463337 0.5334149457974426
Ni 1.9306746905460221 6.393883317921036 4.74091717963858 -0.42686817368343904 0.7375296835656072 0.44952756295416774
Ni 5.895472579215263 5.430572693125474 9.275698379918978 -0.3914998214864741 1.255355002454909 -0.3321577320827312
Ni 8.603234331043241 2.27717618437864 10.287772170233193 0.3801376023961195 0.6593231531571935 -0.011237263476716131
Ni 2.4435568454003462 4.997116314487589 7.0092922513514555 -1.0801402355505463 -0.23766686269199713 0.476564769577618
Ni 0.7030860348868925 8.741511736624874 8.896327903519136 0.08806491125973219 0.7977557182362003 0.2692916886861298
Ni 1.5403978399421483 0.9467357526503727 11.449085712123539 0.5357983584279546 1.04240569711425 -0.8047262360167624
Ni 4.1209591840763755 6.804788481624997 1.7030852655637476 0.4035618948573308 0.9009579993580031 -0.8120381962971435
Ni 5.4234859422355095 7.8381541215875945 7.968407700174322 0.15661874906973025 0.2308660377200798 0.5352172891135041
Ni 5.27541347332189 2.9360002690255254 4.843938676620752 0.26338612183497223 -0.07671863300897755 -0.14119290143296329
Ni 0.6712678775471743 7.160651708798879 6.796840487378469 0.2746969188621011 0.6477521604901425 0.013344282517389922
Ni 5.00609888408697 4.40093549662473 7.243782456436008 0.31950224810224975 -0.21478995809382365 -0.5623897357632379
Ni 8.269615376726522 6.995363400462123 9.34832990298919 -0.08706012414430168 0.037000488483749185 -0.21567467469162213
Ni 4.478618925170134 0.4463100294877333 10.316456810077488 0.3449201739547221 -0.413109686446766 0.20960172902466484
Ni 8.06974191850511 7.214655458892849 4.676067540985118 -0.4560800193607049 -0.6423962954948678 0.3051143548116939
Ni 7.199281271930289 6.110440365446889 7.2094022355261345 0.22304062813839004 -0.16623776021673306 -0.6618104383554215
Ni 2.3349444887670225 5.375602978260516 2.620751798003057 -0.40686576241958317 -1.1940940987618982 -0.6727317132536156
Ni 2.322251531122068 5.370339824414848 11.472961291841614 0.020297573906771497 -0.3716123385339277 -0.644725972069309
Ni 1.0300253879507668 3.397632124768606 3.6719354255217334 -0.3507612061165314 -0.08122911928482139 -0.20679048482811485
Ni 3.6269900777755226 2.533319347437179 2.647930616129587 0.29337264089473347 0.31452022150662606 0.2846270334916195
Ni 1.0210879568920859 3.2837385588733343 8.410487345627613 -0.5722067218536597 0.38010366383439054 -1.0962463970837895
Ni 3.6396920631286176 2.5003862681421607 6.8397699478969995 -0.6098738973871303 0.35438054803667357 0.06205357479763506
Ni 4.02762170961607 6.686525504989926 6.132836303800805 -0.0005551011725216247 0.9906812721567648 -0.37940869464989496
Ni 0.9646828364328551 7.585062323880402 11.395467445167153 -0.1511754665669719 -1.0790354325221418 -0.144441490277248
P 0.1862741186791907 5.422556088297081 8.034049971602483 -0.1341524496464141 -0.12142471766710057 -0.22807587656945236
P 8.456272270230851 1.5107869572426802 8.18199514983133 0.7524739635802654 0.7127681603502112 -0.879445322097208
P 1.8741883207135308 3.115723882678273 10.427842478651444 -0.6368555681822967 0.729863425269601 1.124264222452954
P 4.009746847498708 6.158558049833526 3.79506704515675 0.039689862390454224 0.22202324261746925 0.7834958658830764
P 7.039851946176445 4.021988419736659 10.435677626546221 -0.05959148641038769 -1.1730447342907668 0.37133260250997985
P 6.370320999675423 7.722554318853847 10.008013425451013 -0.0895468951218974 -0.13453271580396833 0.5733580618492835
P 2.2511583295189244 8.464225681102263 5.774250319851874 -0.15362958453441927 0.13789854695240766 0.19824182392715536
P 6.853655465787259 4.037154969411996 1.6316156085311624 0.6613661517291514 -0.11851062934409912 -0.030191693092031877
Ni 5.342543511051537 2.801252697326665 0.40935871729956474 0.19667396521940322 0.2944319353971832 0.35780680010940313
Ni 1.2853289741522786 1.2071490216591707 6.905147707476658 0.4311575450874123 -0.6563463299170568 0.42489768022062957
Ni 6.765454757258661 0.7586488701766536 9.226744729758572 -0.4127073088020247 -0.8518396445647975 0.15290247656040765
Ni 2.6566468683388362 1.6347554454222826 9.12130470976567 0.5387237596048657 -0.8551944199696434 -0.13588537317712082
Ni 6.38325770544016 2.06738127491128 2.5815751557583577 0.3879532417857964 0.10151486611705098 0.4563808384305753
Ni 4.251734564193599 6.991770372622371 10.303785518932068 -0.35389563798045504 -0.717846346204067 0.09689176552274281
Ni 8.090117455777277 7.360985580135434 0.1411148142500598 -0.2976211317584423 -0.28875493961706394 0.12251255141464062
Ni 7.45220154318282 3.863741723749166 8.24183711877949 1.2080479898388292 -0.6600528322343664 -0.4164642047412957
Ni 3.2072558155105613 8.190261822175204 12.518609128728793 0.3930185721238457 0.3883347934949312 -0.04330123389079639
Ni 0.17013347929553857 4.901982326107407 10.2338893914283 -0.20771762462807453 -0.9265571879833462 0.8649684686372715
Ni 8.574101916875199 2.285481675867515 5.705674946048999 -0.4297578365264083 0.8716919034040341 -0.10958247361653385
Ni 3.7914026984226914 2.541895670170257 11.464161984717476 -0.6737048758001623 0.6617585020715635 -0.7502975247542367
Ni 1.201028235540195 3.393235630904386 12.608351769807717 -0.8036054921487581 0.09777879611338644 -0.6276872714194675
Ni 3.0173670024920822 8.498007364962449 7.903915558763206 0.105859773349308 -0.34611496559377164 -0.3346756134085785
Ni 5.717888532391716 7.803135641712217 3.558012970960414 -0.5993269751092194 0.18360453362995477 0.36511670350725506
Ni 3.1312605683873533 8.384881154259086 3.7184317335264105 0.49368677396988525 -0.06572639566353197 -0.13480550984938072
Ni 3.480434263829435 4.289280802348199 9.515725278405842 0.15042778976767 -0.0018925890370225468 -0.3527656381410699
Ni 7.045069961481413 5.985000360840454 11.371116105230096 1.2790556885059585 1.1686602320698258 0.21110196771927517
Ni 0.7326824732533365 9.025351908257186 0.2901478313097853 0.2878769078874849 -0.35918259741100717 0.3991701935475384
Ni 4.605927665361566 0.4584522969361433 1.6295681243249918 0.01149231691031569 -0.48961671766556975 0.2280985022772717
Ni 6.031339586723494 5.696222032855519 0.4532387954852461 -0.598520162937208 0.7663226965378995 -0.22581664822163044
Ni 8.035869957563525 8.872630169651421 11.188129877855522 -0.5456210009453313 -0.4183053717150925 -0.18414317974224415
Ni 0.15546616188034776 4.944836856648376 5.774778440778069 -0.5473724364187992 -0.7739429320873187 0.14066402551268678
Ni 7.80343355608084 8.927148499109375 2.4507275539760136 0.13066551953907818 -0.2961682013619996 0.17409222326414536
P 8.518698872019517 1.6186861249329372 3.5159429482568187 -0.7363701160398672 1.6056485249064023 -0.0110040644199875
P 1.8810764620244131 3.3225577038756855 1.578354838817122 -0.7905234621538192 0.33132649443068746 0.17663504429065707
P 4.679015990463668 1.0852749617680673 8.142951214896291 -0.25199536349952734 -0.3069598926608649 0.19164103078118608
P 8.612578008968226 1.507699481058772 12.389571582428534 -0.3453870862888116 1.104796857756962 0.4795595905398838
P 6.217030515456835 7.890072471101204 1.335315394123911 0.283264348816138 -1.2339271715984363 -0.16401941240917556
P 1.6543545997944002 3.204330838073175 5.92428360697352 0.2752908436923581 -0.007946508540586315 0.24403265700902493
P 6.80399404330867 3.8477175418005207 6.048022791366365 0.8719662401113434 0.4056804838622304 0.3011342871180233
P 2.549289363136984 8.391489436617624 10.113413723528094 -1.0745105480685946 0.3846586301949246 0.3642882940686888
