# total energy = -340861.1142266356 ev
CRYSTAL
PRIMVEC
9.29731960471043 0.00000000000000 0.00000000000000

0.00000000000000 9.29731960471043 0.00000000000000

0.00000000000000 0.00000000000000 13.60756702896390

PRIMCOORD
 96 1
Ni 7.590480555558128 5.185143085481463 2.488402513421629 1.2668084957074892 0.6771421836164854 2.019048488900078
Ni 8.785204730917663 5.937101005038387 13.360331146883418 1.347738595694653 0.9132671557426594 0.8745031476005843
Ni 4.348979341453081 7.601321230321705 3.839374654368002 0.22521578141283793 -0.49863871865852183 -0.8561287588584545
Ni 5.023918264662257 3.1637477295014462 4.389284152059929 -1.1243063885447993 2.1848658737499402 1.3246135796414154
Ni 3.455004863565416 9.22200210747652 10.16277092511767 -0.11905313211113043 -0.37275982187480966 -0.6607884248488104
Ni 2.726141486129183 4.867509455444707 3.4593429929347854 -0.05575334361122011 0.316259572795236 0.23906785680458179
Ni 1.0471292252122022 0.5153411333364748 4.5659648371389725 2.3196094200131343 -0.8013033263781425 0.4087467814923799
Ni 7.996522398568174 2.0482460152572135 10.502578662625378 1.7858764287546405 -1.0272151054167407 -0.5433437748753804
Ni 7.125437921767925 1.3174859846033393 8.03000204678742 -1.2913381054177373 1.429287045992106 -1.2548865474589228
Ni 5.171076240783957 3.6732036594714166 7.840829482967087 -0.1359928452892626 -0.25327577287384767 -0.468565039201593
Ni 6.946167003422042 9.133370758830566 0.4712913623567551 0.41912658206480713 0.41003079041112606 -0.041543627769741354
Ni 6.631555002285941 7.008170828463464 1.4914983389301142 -0.278901700972068 0.3914684540279065 2.174711558924758
Ni 9.171973230201383 4.327707073992476 7.049645241887857 0.261044361075673 -0.01895545805658026 -0.6022539189480273
Ni 1.8300751113102953 4.81502608577027 0.19183717564472544 -1.6809175699530472 1.6922792748227695 0.1351803766902962
Ni 2.751792791165812 2.9340853384123484 6.399692865357167 -0.07996722185326227 0.4458598842945934 1.0447903952963427
Ni 4.87001043444248 8.551479411122147 0.06859469497272506 -2.8376373418315453 -1.4835895160894128 -0.18114013124986225
Ni 0.5462770348873559 4.84354096527275 9.415851223103095 -3.785551398224113 3.234511797366371 -0.5893081574206367
Ni 2.6056947094892644 2.4525957460828933 4.050904482857267 0.9266034678402493 -0.200714453837364 -0.46948292303017203
Ni 1.188550755082507 6.496204622176027 7.913793918196143 -0.8188955855386091 1.0645094709918248 0.09263041914322756
Ni 7.749985372233884 4.132844550519219 11.306649918532905 1.0991144626602039 1.2030975878120893 0.840225714474953
Ni 4.7694692192681005 1.5747056312664023 6.260270259221141 0.9830175849639198 0.8253428838258495 0.3455729770473726
Ni 2.2331975959363253 6.8845350711683935 10.194612385606776 0.07383488370327929 0.33710813410947105 -1.1428635827216962
Ni 8.362697334728974 8.474925280759114 5.05843642349136 0.3309138323733011 -0.8216253257649463 1.2310164257095444
Ni 7.436926023486735 6.579917688703686 6.790121719404541 1.6923157844876597 0.4731508588000626 -0.12830704660923065
P 1.354814723176035 1.5091688247411392 2.588689911768353 -1.088897412917886 -0.2718028851437577 -1.5399897492560124
P 4.31336130970414 5.316774537713648 5.798510509015004 -1.5368925983879274 -1.396585184883711 -1.4775685067063136
P 5.89098629935456 5.170676456037101 11.800876838843578 -0.26450095216570574 0.5174931323608636 0.3664624189018721
P 1.0422853216514611 8.998819948214363 9.61469857779734 -0.39421362087321143 -0.23250203066160605 -0.17065208723434483
P 5.791021518001228 3.387850323413341 1.2752343152525012 -2.085419974346776 -1.7755272243098326 1.466330471898649
P 3.1358929596972627 3.3850890194641274 13.04569683218005 0.5020544292082901 -2.703298487205938 -1.1481708538672226
P 4.8469065950020935 0.43535536227426863 1.8838721922575405 0.4424711703280187 0.22148691049802502 0.7989569376331531
P 1.0944060958578203 5.701581302541867 11.73030832289975 -0.3574697284849585 0.21821338195307582 -0.005953646480273618
Ni 6.660534747773137 7.094208224914703 12.9573025651863 0.19038170445278826 -0.9920336724196012 -3.3689576098834886
Ni 6.133190774711294 5.0458785337802405 9.597893672449857 1.4583821635858496 -0.4420374252247097 -1.0319719033754355
Ni 1.5097359612424928 7.0940129812011214 0.9556835778947769 0.6624056487372592 -1.2150010241178946 1.2812737792031998
Ni 3.575777046394635 4.644169241747748 11.421307254199172 1.8330160625549208 1.2463944508275115 0.30522619779920984
Ni 2.81077498730658 6.870254388117918 12.490862544246044 1.1317096229874057 0.35199353586173576 0.9539646334620216
Ni 0.18877370880544692 5.024940969828632 4.05068692557642 -1.1348317135561552 0.4172244799460879 2.538986226146692
Ni 5.295455783654572 5.327615212477226 3.0176821884438287 -0.8502363046334197 -0.29566400803207143 -0.12408632365966371
Ni 7.886814026175195 8.956572927523373 10.579421009898935 2.2814221103101353 -1.6549684541874532 0.6769295533850471
Ni 8.345069616588544 6.4158757800171005 11.067619548119811 -0.44974713516414155 0.4825209871610528 -1.2709965656469078
Ni 5.123204341677902 0.8387065609647788 4.126943541709234 -2.429323791221842 -2.660216568414799 0.9588774973826066
Ni 6.233229934622179 7.979285167854904 8.901662027676748 -2.0285356024549066 -3.8249139591821355 -0.9786066003804177
Ni 3.971359404748571 9.234581381022936 7.571236963254823 -0.5887180892451216 1.6267745082517404 1.2948571743145894
Ni 3.140987890889751 1.5565479659033952 0.9523988348467736 1.1376853809548664 -0.3424737692967586 0.929453792804851
Ni 8.930596216297442 7.387873364779502 3.0028771365625935 -0.26758756151082946 -0.4355572168170047 -0.3080346137822824
Ni 6.316599000321149 2.103379121044532 2.9841393184506604 2.005422670586527 1.3935255721217807 -2.7746316875332857
Ni 1.4541844760689293 0.049240464565058685 0.6568212363208537 -1.4049507832395867 0.5597178453580296 -1.9367670170913416
Ni 1.0747608593437217 2.5266024108496823 0.4992028458110738 -1.2368713418284245 0.2965278986942635 -0.0041957832489024505
Ni 7.077417265546761 4.560725797491224 0.4378749359114294 1.5420312051660734 1.6968851490258967 -3.094928663622689
Ni 2.3261429009204444 1.394477088992005 8.531128508043249 0.6982126311335395 1.2096207336425877 0.49534230729543727
Ni 2.4469057864299693 8.891882177090293 2.6086661328635694 1.6564725495368051 -0.05984345452019371 1.0215525078143246
Ni 6.030297337654253 2.660651166202391 11.18988395075997 -2.6774617286484923 0.6403820932783164 -0.2878136587497172
Ni 3.6587091380679713 2.404147413155791 10.617984432527034 0.5368903059405528 -0.19311478711323515 -0.21411915727904413
Ni 6.936786007850474 3.2110989787046194 6.278327513531449 0.3173641187133244 -0.4642530420898005 -0.5276829284096719
Ni 5.14024632867759 8.178554620863268 6.017756183118585 1.8461968229112526 0.562727835828947 -1.2245884106960137
P 0.27464003457431063 6.690881199255398 5.942111330621656 -0.019940447677668886 0.994380575385223 -1.069704899149835
P 7.103273111616666 4.32041797535213 4.423397877482328 -0.5404356000896499 0.8024415537476438 -0.2906333875866995
P 7.328165977702576 0.8612070043570033 5.902432229630236 -1.4480656121511901 0.04835268027177479 -0.339151389791745
P 0.1832204197520295 2.9084805199741908 12.019822209521033 -1.4938307342014467 -1.1800707878996128 0.8927037297690109
P 7.660749697807799 3.827929653824293 8.314060266212078 -2.1361540103665337 -1.3676047384909609 1.8836279711745172
P 3.749441680964842 7.49325848351462 8.568086283560142 0.04610579321912705 -2.030886104964954 1.154374154464457
P 1.785289922342755 3.6077319341840135 8.389037571154955 1.3504793916645839 -1.4470975918109659 -1.4578887688891988
P 8.909203083680811 8.067767759385749 0.9713133020328986 -1.1757014551873235 0.42995889679362076 -0.806042897945657
Ni 4.9718718690134525 5.525954933516159 0.24079965035092396 -0.8611544942078202 0.730019234121175 -0.7094979742393717
Ni 1.6553877715737133 3.7089611510157723 10.706732927401138 1.2812002456527871 -2.085594038030795 1.763959831187207
Ni 8.277124804262453 0.9867059445188151 1.7278204001162536 2.719712666897903 -1.1359581138511146 -1.437882500970601
Ni 8.389343452972897 3.0568192556970697 2.0716157580408567 0.9331906341394639 2.130903560600872 0.08655181704931546
Ni 0.7096151364730816 8.126034061910055 11.774886181638108 1.2765650608736208 -0.7693149463970042 -0.7365318384287122
Ni 6.000917807420201 0.4941636985367523 9.820676046965156 -1.6726630432537388 2.2962843721339485 2.886871653377325
Ni 1.9656486270928728 1.5585840789164511 11.957921584728219 -0.4030307049442091 -0.054605346049705954 0.3410892302444061
Ni 3.6411743931244835 3.9262767015508127 1.3686082266745285 1.102212127748921 -0.4759806149393738 1.9545389963627824
Ni 9.288914917316543 1.4694878642857805 8.627850384287202 1.1671877612893578 -0.2888264162849477 1.2734275436859037
Ni 9.164702726200424 1.84437438900016 6.415028794192947 0.34179396962091463 0.016790846305093664 -0.84309095183789
Ni 7.209625151599995 2.326933173094462 13.372468797744355 0.6842530836296539 -0.07097298877445196 0.23832686487349922
Ni 1.693655539435535 5.0789398026132435 5.869555977459151 2.100475068907686 0.4227400104476784 -0.5325567115622054
Ni 6.993852956134211 9.036818093805051 3.105940714570041 -1.6260152614882126 -2.216316636060054 -0.11621052045601275
Ni 2.8468021011220705 7.312174587828347 6.411545088503487 0.8201937355247422 -0.7422641129267991 -0.640993244499754
Ni 8.193393143095404 8.556936937782712 8.309079692051832 3.2938762553676173 0.4760662326746446 -1.8862978046971965
Ni 1.4653133677430308 9.194128743032948 6.927735067128053 -0.6759551052869197 -0.21648277241521424 0.06336638007178766
Ni 4.761929092996008 6.621792816606905 10.487937243570762 -0.8051152439250651 1.1680326257881561 0.39012916639119266
Ni 6.635376200680306 6.7178806156477044 4.652998906261444 -0.1139006413759135 -0.5495424474869245 -1.5615646472133107
Ni 3.4056082040294924 5.329772190646308 7.937090212154201 -1.9916682971149116 -1.2597104512101274 0.8832143022213369
Ni 4.826554762191227 1.5388458692054092 12.910084267654758 -0.3190841867282247 -0.05996455347909028 -0.1930227416200611
Ni 1.8519610018707253 7.115508384334391 4.002026613760286 -0.6268681179522817 -0.07690092422311272 0.9347476942139384
Ni 5.318159838348103 6.296182086272423 7.276333420406742 0.6830760326024171 0.09177141357704194 1.4127898196680313
Ni 8.95859044589704 0.5341644867895955 12.67763918878115 -0.928026573440021 1.9261810140453797 0.6575503775274869
Ni 8.416910005866557 1.3200148555601945 3.8772854051535615 -0.16185351510610832 1.7407000893283184 2.094715283605773
P 3.216612289283351 9.047835417642819 5.056762905946381 -0.5065417755556825 0.7200610944671986 0.292729865104412
P 6.727912423597875 0.5790287029745377 12.077682219174697 -0.652469877680786 0.4251401352487388 -0.2699969422832705
P 4.769162407718189 1.8412504895828683 8.902750743812954 -1.1423861288646453 0.17363610956333322 -1.6056456966929251
P 0.8081341846139457 3.17662451727808 5.02134197737496 0.510158032152031 -0.14084040318955102 0.5105328989929466
P 4.06820028668461 6.804113255812524 1.7544237506895815 -0.5805805477396516 0.2488902422116423 0.21092199049798516
P 3.075274435290295 9.07030703934399 12.224154053102955 0.343936212774898 -1.128788592685869 1.6836678790046746
P 8.22517138181059 6.44111800298718 8.754755079186793 0.1965711210929518 -0.1717157526121688 1.5756627771775897
P 0.6406745812077278 4.890836430557757 2.156037280329223 1.0610893895666822 0.025288599363459674 -4.078781085783079
