# total energy = -340889.14750817354 ev
CRYSTAL
PRIMVEC
9.10278780806249 0.00000000000000 0.00000000000000
0.00000000000000 9.10278780806249 0.00000000000000
0.00000000000000 0.00000000000000 13.32285008099297
PRIMCOORD
 96 1
Ni 6.479073068540739 2.206151651790378 11.142285615106928 0.16008999544778238 -1.6940129696844246 2.596528800447851
Ni 4.656021344202292 0.5402013010184818 6.046908204555077 -0.08708249274180485 -1.2602069312305717 -1.3007468003261469
Ni 2.8881598223098135 1.7179873475231127 4.574600548424919 -0.921372044237981 -0.1510170866122367 0.4118591018691165
Ni 3.7746985319614415 4.599984582490699 4.993284183675223 0.6623809661469109 0.6449933667980828 -1.3138226596734985
Ni 3.956535821102243 2.842918966931871 2.390905474143069 -0.32830339133364744 -0.7594969318653177 0.3995424892852925
Ni 5.435929997536572 4.6783686882571915 2.393356854898256 0.20476445553702155 -0.2711634517875459 0.54918943502288
Ni 5.227057428622634 4.736826791524223 11.711025066164726 1.0608564476202695 -0.25152099496627006 -1.4195384512457745
Ni 5.70026585253055 7.957647994072852 12.489825910223452 -1.5329336137401794 -0.26455905909715083 -0.4520760404076344
Ni 2.060042804774008 6.530849725560807 0.28406341671934676 -1.1799566309192515 0.372302679732733 0.02271698198154152
Ni 2.9214396145153985 1.2834566689876057 0.30950206751194204 -0.7629573796100925 1.254467457643633 -0.7288041307671513
Ni 7.976736540094491 8.732750375447463 6.990646101920664 -1.1945658961919943 1.6106336368258196 -0.48880347773565497
Ni 8.905157176424975 2.409781014930132 1.055000362395578 -0.3887227729619692 0.5569526239080667 -0.30399103984052805
Ni 7.278243220864904 0.8954066455287286 4.934636742421901 -2.6849796342920924 -1.3264089809789414 -0.8358319562826315
Ni 0.5836270605086253 7.495089831893747 2.3318447663235182 0.8060421266147085 -0.7145697323353241 -0.08135664600162117
Ni 7.820004739712718 3.909037474349304 3.6400555564609784 -0.17783703501855824 -0.19723652259109256 -0.09454152012301137
Ni 7.795281568041391 3.9612874763350967 12.606013893733323 0.12072820582070823 -0.5681798600824537 -1.202107455984678
Ni 8.02620108901275 7.5328117845469045 8.954420553732799 0.7682695358516253 -0.9320020131480014 0.6470265951780276
Ni 7.130878189131802 0.6151063212868952 0.023009116728133924 -0.6041331382486111 0.4900784877933367 -0.08065602039017077
Ni 2.2629439448895696 6.530640361441352 9.028149493817143 -0.18437509324739215 -0.6647435528418164 -1.4737468189673781
Ni 0.16106290681815721 4.981291260745556 0.9574385032869838 0.4846048662732751 -0.030368584989528345 1.4884710125514302
Ni 6.42979057537853 2.035265016375867 7.072022294037805 1.6245337918466796 0.16000566326409216 -1.4745898836939637
Ni 3.8537016272984963 4.624416464952349 0.617189039136085 -0.851408727674966 -0.43313652319065404 -0.42025735323514074
Ni 6.315195579734079 5.662480180362776 4.566020260642373 -1.0947101629449212 0.5330994714395528 1.4193083375128395
Ni 5.854157583117975 2.853987956899593 9.137077093775817 -2.144170195802791 0.9103679798179933 -0.9736981073352071
P 0.3903885296453144 5.84774011771728 12.25389075317297 0.14677939438180526 -0.5703110474928437 0.5803915716572973
P 3.976889654628416 6.182240261092182 12.521906865275461 -0.01270664893339102 2.07541735460811 -0.16378621335244695
P 2.1669004307864164 8.66690080848488 1.4881619816456035 1.5060560726230448 -0.7343474291828838 -0.7357072856448879
P 6.307758602099516 7.874812625070985 5.589229136638059 0.582122695415791 0.18965511069940885 1.1851695425787587
P 4.981773708499084 1.324127924888742 12.548166587527833 -0.4722645995403673 -2.2152306020847266 0.31094073168548386
P 4.218077120240884 6.235127458224143 8.001103792762743 -0.12217830800367346 0.10737518155256992 -0.377537188658795
P 4.772382280680409 1.1406066200044962 3.6296774680874586 1.5076205888966874 0.5213292182775021 -1.1434297396378115
P 0.4544066157020538 5.66670387390309 3.4571459589170543 -1.4662371408538941 -0.5343120036904153 0.19282142424253243
Ni 0.49388631667985566 0.3693164861615318 5.139475866060594 0.6767444339574346 -1.0169301785509646 -1.5751863517618032
Ni 1.9273059530393684 6.728325604146137 4.550033034425013 0.16651929601289386 1.3322415285003186 -0.5885337411484574
Ni 6.171353326880507 5.845264159435027 9.269839433316303 0.9242923032085695 -1.0451665476888388 -0.4190615331548267
Ni 8.866479431052564 2.509001401976324 9.946679951200316 0.6588716674420717 0.2528757092219516 0.6089387871673706
Ni 2.2766163321687793 5.653268159106744 6.465965054105279 0.381104337184763 -0.9957527731424013 2.8861861972745264
Ni 0.7390808294829418 9.339369257387398 9.04360420694806 -0.6419900611953846 -0.602801049700749 0.22616554692061697
Ni 1.4750430438647804 1.1039587963120219 11.447858919403355 0.35862004003931786 0.4867571367295875 -0.9853783718866125
Ni 4.058878464364659 7.115803972531023 1.3624215326158906 0.4879010205260436 -0.7841622958224818 0.5138105413029538
Ni 5.73503850193573 8.092114375489949 8.074526879176926 -0.908463563706429 -0.03796748038270881 -0.576602279818194
Ni 5.191492836678646 2.7522278920565304 5.029708989066537 0.7695273195181263 0.13116251378015473 -0.25898979253948945
Ni 0.9307054360688868 7.794480522714779 6.851449001682658 0.14543393609750438 -1.4704588922447257 0.6026817505140654
Ni 5.48574045239132 4.493409142900166 7.249828868739703 -0.7791113636621356 0.7307494274189802 0.09343774553587134
Ni 0.7668862051041618 7.247475798092781 10.642159337388527 0.2240086484786142 1.1182645532260935 0.19213262570562395
Ni 4.511095859600235 0.3354249866156252 10.613022223911816 1.3030502516483429 0.702182414414565 -0.9155196992222621
Ni 8.29599861668817 7.420328635672611 4.788738169803767 0.33489287162570713 -0.24280624080109153 -0.5943102386209184
Ni 7.307508683649629 6.272630943970043 6.884156228535472 -0.3180115224893362 -0.19658989014602918 0.14487163583613116
Ni 2.4418592391457996 5.260300809677009 2.5650882290208292 0.6328976119758133 -0.025255946353311343 -0.344322135359407
Ni 2.2956957754026157 5.524217936432078 11.228937783034343 1.5863837631395195 -0.49831964475620627 0.3906765542542304
Ni 1.1108587094662434 3.488916508905001 3.6414810530308346 0.2391755860270397 -0.17117067874197617 0.1278632742035927
Ni 1.5436507555314916 1.471893479285149 2.3631802030545104 0.3935399918449545 -0.9129802206298598 0.8389946702813292
Ni 0.8842329735012789 3.50868776401182 7.626785324703792 1.0545073654737904 0.24258692570143384 0.3128621170779128
Ni 3.524299045092941 3.211454433899956 7.235959861243962 -0.027058289669372754 -1.229234136998141 -0.2978263057907129
Ni 4.157297806084239 6.999670605747966 5.776654627210756 0.8576955891249423 0.7713818562283619 0.005580579411571034
Ni 0.46476376766362787 0.17497287685900917 0.11476430749757537 0.6919260267938794 -0.2740351169083861 0.6697867716926788
P 0.3074056954810487 5.741246603216968 7.755137363554014 0.3171725715278086 0.919640663369171 1.6294142598674324
P 8.579413914915985 1.7673244574121365 7.8715529167589455 0.24022356767557979 -0.22981882740248807 -0.6304005565855725
P 1.9856548228527713 3.501105141772418 10.312192382339223 0.11103180446855071 -0.7856036562546987 -0.6458369457453006
P 4.424000385906844 6.243693181546204 3.459051172404097 -1.3996797646486347 0.33291415063278146 0.5775947256384504
P 7.023856712938951 4.098912525119627 10.475517331926277 0.7653891289800366 2.5575922712836534 -0.645733587398217
P 6.439648894568532 7.917277130169195 10.499045307559149 -0.08722878851168203 1.1740562062744166 -2.3159695092677017
P 2.495374528636127 8.71815860660021 5.667260964516598 0.709728602192939 -0.10458553462257474 -0.6416033672799273
P 7.273145659695558 4.071695189590442 1.4627688447920202 0.16668718904932583 -0.7882806888662295 0.11751021310404279
Ni 5.552254522863479 3.018702902184074 0.28254416143512573 0.3389708983498227 0.886565735192073 -0.03470372202977249
Ni 1.5649603817769167 1.175870819951005 7.0224739994717655 0.3877259562663387 1.318953810252477 -0.24486106644759123
Ni 7.085528100300231 0.7694204212283509 9.169797974810335 -0.24712852232552926 -0.6330577917027613 0.40068842996427767
Ni 2.8830076444136536 1.6287254103327493 9.127217864307035 -0.24052695784861156 0.8717343266061955 0.906664048603845
Ni 6.571948812488657 1.930755909616479 2.0761128663603703 0.0814116676092727 0.08082134232344146 1.899583466062509
Ni 4.484634055458649 6.947183931279311 10.180749036751305 -1.9084504295348357 0.8071885815143259 1.4180829497461707
Ni 8.302807501964367 7.222634290180023 0.16641261520962944 0.6950658579744416 0.6653994412582606 0.42645114075067847
Ni 7.766544066949205 4.185789531905761 8.354465822743004 -0.12359370029396136 -0.10134388775682546 -0.9169582314410014
Ni 3.1513851371918995 8.336059985806545 12.174194025405372 -0.5089390721432654 -0.5124846234026786 0.9061845378642651
Ni 0.1887672414947706 5.055242308852279 10.08867524840878 -0.18311319581583302 -1.2757299665668351 -0.7081124067457547
Ni 8.773922284677731 2.4726266619179214 5.598581340826248 0.21317813352201348 2.008096103653632 1.051631586587892
Ni 3.7849391682391444 2.9289039005133692 11.793853152936348 -1.5605580603256672 -0.13574164851040493 -0.7894610823275758
Ni 1.1376937279077273 3.611977097205686 12.375369276953599 0.4112358664628208 -0.865902807526083 0.4751936002617042
Ni 3.0789633574359816 8.574498409502688 7.861000965138399 1.2955380024316978 -0.3111006543021158 0.13811220562511053
Ni 5.721775740107629 8.1199598033775 3.4776772968053735 0.9540523080798213 0.12680449392177517 -0.5262528808313647
Ni 3.413044772571972 8.571412564437674 3.550019882307411 -1.4458395510341486 -0.7217608507671247 -0.27408911007477316
Ni 3.7537621200159146 4.42126044677832 9.277073418782871 0.13714418528488637 0.05082171063755763 0.6200348970805323
Ni 7.572809434150663 6.355038481945197 11.314177198294825 -0.6211895795102657 -1.4668374934420545 0.18166797872887422
Ni 7.972694902310224 8.99052312043591 2.2790067242456904 -0.45044981765812103 0.09325699698363295 0.061062414528959344
Ni 4.727978881780288 0.18974215006840794 1.2608762935649651 1.3560833681149225 1.0681871769537281 0.46881366487728937
Ni 6.426049329591742 5.673804048388965 0.2354918512845049 -0.949616898016287 0.5816766090173079 0.6550368670770139
Ni 8.387800231675403 -0.3000151420642777 11.195191017814496 -1.0954904927543714 1.2325660295848515 0.513219187575858
Ni 0.07260019439684492 5.1199358217639555 5.75428543646513 -0.8931783554125843 -1.1487598936014733 -1.9502527102826028
Ni 7.3874766744937395 6.327520754418533 2.6535919039872526 1.2391166862191758 -0.2508532794752841 -1.4702272358498938
P 8.710839965207079 1.5327456157442128 3.448247073561425 -0.08935483371574934 1.4906919314621487 -0.31113305020194804
P 2.110080829323817 3.3316749524062925 1.2843869739010112 -0.9405342189887287 0.168956958920109 -0.35336470517764945
P 4.733194779191064 1.1771907241823536 8.040020031175576 -0.35752783541640365 -0.0546919922262413 1.5951057163935498
P 8.474495182705489 1.7612255895845266 12.04985176458211 1.312531708776217 0.03310449586345267 1.0419606391570313
P 6.446439574269125 7.723851992155935 1.1354016459390823 -0.264241527856732 0.3193783209298758 1.6967380819250713
P 2.0855306106207365 3.452687413451437 5.666074871265946 -1.5270486157143122 0.19597153983573992 0.46229951790785545
P 6.954056536070125 4.017087565563827 5.869528550601112 1.3603074334985992 -0.37173369460314043 -0.900693947063339
P 2.504987072555464 8.483206550632389 10.0754989630648 0.16468378546605186 0.6554834676961291 0.31940917416781117
