# total energy = -340862.93115223333 ev
CRYSTAL
PRIMVEC
9.30472186617249 0.00000000000000 0.00000000000000

0.00000000000000 9.30472186617249 0.00000000000000

0.00000000000000 0.00000000000000 13.61840098684221

PRIMCOORD
 96 1
Ni 0.4328482155266877 6.382359927332677 12.089231477633076 -0.7375150282775879 -0.07238812395442372 0.05751249239417192
Ni 4.861214698641763 2.2282575637902 10.565182245260543 -0.22937531210716625 1.5081165546964994 -2.181167598962747
Ni 8.390672476620912 1.8137135970378697 1.3475200499065332 -0.4660993512699198 -0.015123485904999762 0.2334368837710496
Ni 2.6885249335911237 1.5669523742359353 9.227855518113419 0.1902310378075369 -1.3946907960744757 -0.33012501792341853
Ni 0.804700257601045 0.25664097643583716 2.1183148316490574 0.49541815483869517 -0.6068744484391742 -0.7016977614686625
Ni 6.569533711566604 3.4352567742217293 0.4766604287124037 0.07112854051570977 -0.7653600755143142 0.08602216979809056
Ni 2.4360040879794456 3.27511320688975 3.6151682230711564 -1.451540458073668 0.25591912403396566 -0.8176681408894112
Ni 8.15549563249124 1.8994193897689642 7.52753019170853 -1.2388834871624472 0.19264504656566822 0.22572845938319833
Ni 8.674568844226863 4.568013609210701 2.1294004772314943 0.6097905936447048 -1.917417666030453 0.22655584038050014
Ni 6.237504017959356 0.6694542649286966 0.37153009869920844 1.3374760374263805 1.5724329573863822 -0.7195476451658898
Ni 1.3994487719402933 4.2067391749071295 11.455036525588453 0.2720168009267767 0.2265527550567066 0.5444331512848172
Ni 5.738622052584223 4.967642106877379 10.030428716305243 -0.9470218835956011 -0.310047273336937 1.0604712963667093
Ni 1.6724120914017395 9.337939682026304 4.569545166423114 1.9875848710741575 0.5126915972071623 -0.059879192854135586
Ni 2.565014056084605 1.3776198945385836 6.56116876664583 0.3625635980680982 -2.008773846446947 0.4676754375077881
Ni 8.837596875324628 8.626686745714844 11.526723824417836 -0.12397833732688969 -0.31858744959746427 -0.08490168304040216
Ni 4.196736598945136 4.1890322892739436 12.072004715646067 2.291142937142325 1.77365057611241 -2.4253244402544616
Ni 2.62474106547999 5.934346876175424 13.36899361273697 0.4706535462995056 -1.3730379936913901 -0.7720824818398123
Ni 2.2942745651393603 9.284530578750168 11.687747618434472 -0.030962252709469257 -1.4713063278466854 -0.8994173943437608
Ni 4.657301719844463 9.19392119761724 1.9139161463724865 -1.4151539490248337 0.10017095049464683 -0.5453939725361898
Ni 6.725853038228463 8.635256394515771 9.84449711243497 -0.37728522054898894 0.9483524294815667 -0.29105787671862776
Ni 5.279880657162616 7.3088031652934715 7.2313571741265275 -1.25744428088377 0.5892675339906883 -0.41580857343516775
Ni 5.203693594858611 1.0778589762208186 6.482100031992587 -0.17730815909828174 -0.3898612574417866 -0.3772898485346793
Ni 8.901157430111958 4.084214597914072 6.315656237512825 -1.647610471160485 0.38777686410893214 0.5886972633095151
Ni 8.389909489431254 4.262027831991937 10.525036092473922 0.06009362285778683 -1.2854255965880441 1.4497286016759097
P 4.7801612668232245 4.495967148118869 0.9206584924021216 -1.826864441131228 0.811271493334448 -0.06379626852035465
P 6.849475572396884 4.57935606511551 5.737310086806882 -0.978365173793573 -1.8368989425490942 0.7659036067226099
P 6.837267777362339 4.86102860420526 11.911783919122938 -0.31606545450655893 0.00874200785868817 0.940150867507381
P 1.1815414915180267 2.462736553782989 1.5847737079475697 0.14895994697289186 0.07186927533647623 -0.6035207014755928
P 3.059941514684066 0.47388017783106073 0.009831369080411921 -0.9006471529858038 0.3441560420951879 1.536713649607902
P 8.464970680394421 8.75288668782882 0.43876415766309307 -1.2038612054509914 -0.557913188049123 0.954431031575479
P 0.8894085841524875 2.2458900116487848 7.853895170668651 0.30482382015446857 -2.092632947155448 -0.4678775262162652
P 3.689247765881775 8.584880630554622 6.337867538981546 1.0109091691678656 2.255203800043555 0.6462727477311386
Ni 4.23752849942642 6.810218951016741 1.3703919866248375 -0.46121631214600567 0.9768847325933047 -0.19707917107762188
Ni 6.950273623928307 8.924614633833063 7.556550688608867 0.9611544663422414 -0.22949692528669507 -0.8372848866790742
Ni 7.7018439199079705 5.7580130928677535 0.1818421786281376 1.411613282861427 0.16996354580775244 -2.884032384156317
Ni 8.81974111414224 3.189491156655081 12.965970752548492 0.013336312097589934 1.0319600763008936 0.14595278471545187
Ni 9.18751024427974 1.1948658531715852 4.061714850068772 -0.6637405654985988 1.3193883266867343 0.8920802372523992
Ni 0.5889526031143867 8.566029264136947 6.644513020977711 0.21597060866548612 0.874624760780113 0.6227165576777534
Ni 0.7756797607007073 5.701738135269483 4.768033492396374 0.2805284379422136 -1.7194738329596901 -0.34938720858714023
Ni 7.404706933144887 4.308867801659543 8.496207562033499 2.0312087784116954 -0.6767994555650859 -1.1450135391851635
Ni 6.6184393294793855 8.219642384753552 12.060632484631416 0.05874636480127302 0.39336978481567736 1.9402302930495938
Ni 1.59889548426154 4.032843228717637 8.434624260634005 -1.5943878643909188 2.029437288333569 2.0315646190892176
Ni 1.4839170366686478 5.77198878504907 1.998990148491656 2.691587883637229 -0.6853548013342649 1.6873702675569262
Ni 7.559193229607199 5.553886105468475 4.0563637045471514 1.4481980239639962 1.1454758235335627 -0.5323345682490703
Ni 3.756427857459074 8.073427985993765 4.041614789982169 0.9709151452734309 -0.12129102030271367 -1.0165391137601332
Ni 5.272241480544201 0.8066468054068582 8.80018351933804 0.5724535477571431 0.9096002484140334 -1.2820916471188049
Ni 3.492015577354904 3.1446703116235235 7.852642755110991 2.369639745097648 -0.117652652219178 0.6149142880245152
Ni 4.38119340440613 2.459703214468002 2.0600142361094615 0.6600875421270439 1.0918523817811518 -1.500357736686687
Ni 5.702901225497623 3.97599137836621 3.7855339578002023 0.5532062694917569 -1.2417728928951002 -0.2667871770967211
Ni 8.848660189574684 7.618213080143875 9.023988132453061 -0.40409822697677494 1.8410235062404294 -2.1277508739045032
Ni 0.7133399854168311 0.482690818927258 9.782206652176766 -1.2286677229717098 0.9651229640716863 -0.1939254559399886
Ni 4.486159971315202 1.8214272114308867 12.656846492658119 1.8388177568383621 -1.0449235784400972 3.6001784598398254
Ni 6.55058929793068 5.540580353258567 1.9315523161198014 -2.9562544148465215 0.2719088145940027 2.131373301148439
Ni 2.900709810090947 3.3836341775360155 -0.1509830686951581 -2.5951848848254464 -0.8816713832142492 3.819753755137435
Ni 5.307134187388367 6.252968465632689 13.003815847627765 0.5992693823984067 -1.6747250679890902 -1.0778912916153693
Ni 2.0975448315910454 8.497797738993413 8.304323727611703 1.404513438591852 -0.8105808950253265 0.5562496843037711
P 6.324354291474938 1.0559277468790327 11.58762508970755 0.45751958002070886 -0.692077464770079 0.9352526588748151
P 4.231061717757969 8.907047319027253 10.034541403351943 -1.806392289319805 -1.8795872254462405 0.9286438953090458
P 6.822463964938588 6.466930544001109 8.430239875710013 0.3330733019184651 0.6991909358864088 1.7353920468518433
P 3.3501185695219666 1.3753588471350817 3.4988666440347336 -0.290230495721326 -2.5864004537645973 1.4157468454138264
P 1.353120561973067 7.5262266001808324 3.4245237775964643 1.792266391441384 -0.17046722491704835 -0.9983267045171644
P 6.496091542201007 2.1704938506999127 2.4611175321854195 0.408426936259116 -0.4667205297936866 0.6517147446823163
P -0.11934422307323432 3.323628026485877 4.153026737699496 0.42785753417990185 1.5712438221742875 0.353835474166481
P 5.71910074619514 2.8256672285714295 8.03108405791205 0.42544866762809314 -0.882090473029539 0.13885371177682537
Ni 1.9652689061252724 7.833961665102716 0.7342169897758318 0.2646364493023055 1.8231396839814729 -0.14036911998008728
Ni 1.6668571724721484 3.382582743969778 5.974991762051873 0.7053081045277402 0.0068789865080204115 -0.8883685927287668
Ni 2.403242162433231 7.172972836090506 5.662980246979168 -1.2168889851692268 -0.967784055843617 -0.024368401542035453
Ni 2.778101490601464 5.25450668074554 6.942184098773556 1.1141443604101329 1.0169497189349905 -0.1961263202460493
Ni 8.967639667552374 7.073309960621746 2.128378818775097 -1.8765646365698327 1.5486507673651198 -0.7479701621726409
Ni 4.513050617389772 8.38576888821908 12.971404710094358 -0.8600558618270026 0.5081641416504539 0.33920229763433846
Ni 7.462693959558976 6.6302563261972765 10.597049987039366 0.4357881018808882 -1.7444654699080213 0.6977778575889659
Ni 4.176033592884264 3.149508766972581 5.687888987304989 0.6334054048501672 0.13474148938066471 -1.1129863355462897
Ni 7.781529557618218 9.177470449430444 2.999684136144649 -1.6168071126263832 -0.23719429393095282 -2.317450207578286
Ni 7.139401399745506 2.2472112821479504 9.96466573386191 0.7779931908972924 -0.18654947519089163 -0.6341551385319981
Ni 0.550215185212086 5.77575719738824 9.67556058297826 1.370606758542078 -1.068057336244083 -0.6420324843975459
Ni 3.939730877413754 5.336918601950545 2.948778933511651 0.3070611941254196 -0.6050175977360935 -0.8806182593593865
Ni 6.860613324421541 2.0615727770151677 4.966058443222745 1.5683680432883893 1.115374633272808 0.38786916671242233
Ni 3.8871685038237036 6.7118029082725466 9.276092126526974 0.6414681272536437 -1.0572787575713405 -3.299187897388518
Ni 0.4741667632632741 0.7486709446589587 13.09793310888876 1.512938401565175 1.401273848608632 1.0052188036513074
Ni 5.418372136807563 0.6007761131375547 3.9868546410970267 -0.9725534522078025 0.9891956887501739 -0.46468832985500613
Ni 2.763065060132085 2.135070774711717 11.439130103628427 -2.395799177101835 1.8565377998259445 -0.6546337181013242
Ni 8.97369704146052 7.74552028415504 4.6417367811754175 0.1328139333406487 -0.015466728177031428 -0.4011959657283155
Ni 6.901265654075449 8.409933250798892 4.963240042981918 -2.5305170123334157 -0.378231129402026 2.338715801825282
Ni 7.562589453073364 6.573218381409348 6.365621663241487 1.209491407153575 -0.3797825330495459 0.705885831408081
Ni 5.384996099620891 4.906082067282446 7.723935190465148 -2.217866754155993 0.6569078588474816 -2.187478885892755
Ni 3.3434377792515373 7.124467321216204 11.248200003193704 -0.9350186884871381 -0.24921008744490628 2.658420395746325
Ni 6.408413148442988 7.750470396165998 0.90349779394007 1.4667955844605256 0.011986482937914841 0.8742666061097459
Ni 5.329586481152358 5.977343995729262 5.08897847089337 -1.109100370228322 0.991003431382874 -0.12213537058087999
P 0.5015086883463618 5.246616276637846 0.26655794895704005 0.23856803435002782 -0.9473851804722909 -0.6882454926184985
P 5.907660933981007 7.585078965724656 3.2959250781959746 -0.8673721929827578 -0.5060095572012963 -1.8737886164865925
P 3.070548897564692 4.64402388180003 10.145068472023702 0.7939067768037553 0.4461275361336833 -0.4275631428679347
P 0.5328367562593269 2.182943568501911 11.320976884948807 -0.6920365842298145 -0.6563306461877729 -0.4616721687365017
P 1.1983365144123515 7.602106606664609 10.488361531400248 1.4908246003852714 1.4983533046621484 -0.1676256417031952
P 3.216186403571324 4.924765948707268 4.7951753659602225 -0.7078033601457681 0.556241456773655 1.8826591795033447
P 0.8116908951082507 6.50441926823448 7.158838963638162 -0.32386361039473904 -1.5022888922711288 0.3632539392669034
P 8.275284621267716 0.3631698061393466 5.967460520206629 -0.5543486106263162 1.387083930261495 -0.7408091256478274
