# total energy = -340885.35846596607 ev
CRYSTAL
PRIMVEC
9.13817729340514 0.00000000000000 0.00000000000000

0.00000000000000 9.13817729340514 0.00000000000000

0.00000000000000 0.00000000000000 13.37464617001860

PRIMCOORD
 96 1
Ni 6.391158790344209 2.2254750878482383 11.142109835928526 1.1522481092603896 -0.49976563317411354 1.5136367131837805
Ni 4.6939160272983305 0.5835676421556716 6.320082049191839 -0.12925886899953867 -0.36129373021673905 -1.5138747973365154
Ni 2.7553705608750425 1.5350127057460554 4.481696486223767 -0.07813685351274284 -1.1000326035990993 2.029979791100601
Ni 3.057231963611767 4.526011162045869 4.743371841532918 1.3798622157020752 -0.9841702105111244 0.27342088036315493
Ni 3.522337761301684 2.8583395399576994 2.7442503132139064 0.027138250977688745 0.4208345658948494 -1.1753772390786856
Ni 5.11918851119509 4.708135030799627 2.8505245709382208 -0.2355963533162136 -0.9797790234219642 -1.6909692977620943
Ni 5.659081149922678 4.693769816465412 11.32615820477057 -1.9261673871986247 -0.15908546544266794 0.15036762595369588
Ni 6.064807073093683 8.27153062162016 12.092311193621399 -1.081049891849009 0.41023673577434516 1.210015140867529
Ni 2.0912992341145986 6.609890196389868 0.29815678575765875 0.33759587237916694 0.346425554855655 0.31337068128321516
Ni 2.486808675335443 1.7133625073751126 13.272597228536032 1.4687385671195092 1.4484461354190603 1.6352496356022868
Ni 7.913844095239847 0.09110396999134336 6.581114990653856 0.22954783312928856 -0.2056455725903942 1.183331975149388
Ni 8.63125496148427 2.4689161246570763 1.1665869936878999 0.29695290204682406 0.593235774609817 0.18863078319995255
Ni 6.797332484191027 1.2454512893285767 4.644546111928081 -0.4611371221686381 -1.7368416348141766 2.545120106958571
Ni 0.8527509237351734 7.541664420046517 2.7194803704821484 0.11951695912142642 -0.31791870566521374 -0.8501846254598777
Ni 7.686714704478449 3.7970039491156196 3.7966877681894338 -0.010821258985220072 0.07114191025214844 -0.7559326115528272
Ni 7.7348272066856 3.8296637939187272 12.465290459307251 -0.32474472744811167 0.40911496346507603 -0.03781527107556068
Ni 8.114125521806637 7.102456216137238 8.921704608711726 1.7412994134752142 0.9303207687908366 -0.03381180634312241
Ni 6.633813943926111 1.2113933034356885 0.3986447497692347 0.04899082807640595 -1.1760470114522004 -1.1376090191909762
Ni 2.149637356448969 6.591166071599278 9.165618089274432 -0.6144067522604774 0.4846184931200299 -0.2648367382385697
Ni 0.2915937469950421 5.1254298861252865 1.3213548156026595 0.8049090414515297 -1.9982454361117974 0.9353871275701503
Ni 6.473173929434274 2.18322929531193 6.9759875009338 0.5076650905268483 0.05075383351409969 -0.006533430243143586
Ni 3.590535976680977 4.644469351240799 0.634062467121685 0.4448674384743371 -0.47023908446990625 -0.8592973863944233
Ni 6.272399041306384 5.753304893561413 4.522436307181018 -0.5789121588982933 0.4639776769412267 1.3728760141922292
Ni 5.763822935354468 3.1863452672556134 9.057069339280533 -0.27862350761001686 0.29992304041874157 -0.017137173900918873
P 0.10392757385597706 5.539425859533228 12.592549626826154 0.33953371283182815 0.27251199539564036 -2.453048902752924
P 4.243668905503727 6.258399354054465 12.636204526264711 0.42514064946937097 0.19796028813099456 -0.05414511858383578
P 2.3472047444297144 8.65302209923497 1.1793868382921844 0.7988134700767533 -0.6156892185173267 1.207925605328352
P 6.471976828239755 7.9055649068258536 5.817128663583334 0.11538416789997546 -0.28701301722529277 -0.9588777544929229
P 4.614148879764383 1.28463579255066 12.692110979684111 0.9528631728677266 0.022951980810483052 -0.4664667619116676
P 4.245962587945131 6.320630339815282 8.043739626839805 -1.2886592730339936 1.7358913550857653 1.5268200446432736
P 4.773107469677661 1.2350154911290385 3.7174561178310506 -2.08563157613695 -1.2203689732980274 1.6181872808033613
P 0.18312175768842562 5.337609219220797 3.589113162513142 0.8429850223876449 1.3837872617880942 0.41133074016947224
Ni 0.4999935300596166 9.216125707688324 4.52905600264139 0.1908283050719036 -0.2560898452838751 0.3201915608597905
Ni 1.9650279035356002 6.553507643945779 4.80024054499646 -0.3440699101392849 2.0802690262734562 -0.8099723149070502
Ni 6.061700092894171 5.89123653806564 8.979643392708688 0.13930494038163105 -1.5429578307454006 1.0431590303405067
Ni 9.090896129293869 2.7204444481617025 9.938271063466182 -1.1577258445455092 -1.4197865627008386 1.5488641689275067
Ni 2.6818904791565794 5.596046004580809 6.891687817579388 -1.4525912679356856 -0.8592019984671395 0.41117107466315644
Ni 0.5138287301245033 9.123866672116927 8.969599622304912 0.18046855910413437 0.10382423097651797 0.22422282137194932
Ni 1.4524035851472608 1.3608573273863398 11.253145997717445 -0.6552243004974716 -0.31780300602295586 -0.4171494037337784
Ni 4.599409000170816 6.855707159233626 1.5475932341009626 -0.0338323751684127 0.782639174309736 -0.25882267083400584
Ni 5.89946089741729 7.985688443265039 7.951427589841476 -1.062142513421545 1.1856341409200033 -1.0178614321159827
Ni 5.17605538702322 3.206440118604811 4.799196965176507 -0.5856934434861849 -0.6070747373754384 -0.22947892756456612
Ni 0.7054700102835324 7.810984774281879 6.7864955200186685 0.3159705807999074 -1.089359440155969 0.3701398677534593
Ni 5.212946207803899 4.988412059326799 6.715195807346098 -0.1650342268269351 -0.6945565224381909 -0.05982777079090987
Ni 1.2048046777773112 7.3531164128214135 11.558208503877374 -0.362619133896382 -0.23862434150925999 -0.29438565554028007
Ni 4.605321400726946 0.5147562550958282 10.418608374675355 0.3578350822441773 -0.8094213274995866 0.08326466165761144
Ni 8.204931587225909 7.027194189892585 4.664019567237377 1.9574392007287127 0.9352143494377119 -0.2693515953897877
Ni 7.609442279281169 5.9638941838489385 6.778070120771757 -0.7373324799531366 0.5947447550551757 -0.4787530354781883
Ni 2.521067701123594 5.245368460003514 2.568266385625007 -1.059971216801839 0.82338036078284 0.5369111318761592
Ni 2.6251515378072523 5.372206357560072 11.246766636313684 0.9996971025021298 0.9617746164247438 1.5780078803709983
Ni 1.1170507634952067 3.2125901117644338 4.0303692319009805 -0.10464929798097461 0.3899414758604188 -0.9113817657944884
Ni 1.3827980905011306 1.2134402550965437 2.2699981141072483 0.40735890000591773 0.5003942678970479 0.5718336547849572
Ni 1.4991453607958045 3.6487461645365435 8.39632156751586 -0.6301611868812567 0.6739218769069749 -1.9323814864291367
Ni 4.1203035152289775 2.9750249228034975 7.096346430956668 -0.8772143758841603 -0.8217273985604493 0.29199555804154875
Ni 4.3992920607910575 7.098545076356675 5.90229830139361 -0.17355203448995918 1.3634112692349036 -0.639053347164564
Ni 0.7414799107958787 0.2135445767478844 13.378524235532163 -1.9735816148165302 -0.7058094696441909 -0.48899553914180294
P 0.30418798261553537 5.773189566838292 7.93614033344217 2.269913081229271 -0.3609144925004494 -0.5017577239034778
P 9.001451652256147 1.875967229934289 7.955627496017052 -0.9194830547453843 -1.0358473271704418 1.0200134454619787
P 2.1367799413292228 3.5591554766659037 10.481027606883554 -0.734825911481199 -2.3472174115383897 -0.541577427003577
P 4.238131170206949 6.418582459693433 3.7947751477313227 -0.8982801954155241 -0.25701389976004124 -0.3487614020776832
P 7.37772552363696 4.360838611733566 10.04664618809599 -1.3926526825985244 -0.20074967795067364 2.389946317865484
P 6.500679842377014 7.9025949992822015 9.963295047520134 -0.5546237186645738 1.3974002245858386 2.530530639180171
P 2.4250894274898394 8.715975000983322 5.681776726462409 0.4918952292871013 -0.8572903832667236 -0.5878068902847619
P 6.789766073587508 3.840318908367643 1.5603528707261947 1.0003465631606707 0.24526138720980342 -0.028223770732383656
Ni 5.472187152744962 3.320904924425663 -0.034922457442517034 -1.0695442052022548 -0.5727744214316716 -0.3830007828765275
Ni 1.7282760123327712 1.131087003455356 7.0279078815207665 -0.1860825628568021 1.1714231395269439 -0.6862832266858052
Ni 7.2048769045964525 1.000995914866369 9.35631356810802 -0.14539305555723994 -1.0603355421197933 -1.2670560929419212
Ni 2.8058041600547714 1.663376678871196 9.191859278512428 -0.21961489028629275 -0.14695911449277915 -0.33828364247481096
Ni 6.2709186566230875 1.9253864914606476 2.6354201073666403 1.7088173816871084 2.4326996496726103 -3.2146880777722253
Ni 4.205398219987383 7.239410075696324 10.56686615925443 0.371059037133619 -0.6910125138406745 -0.36678020725260707
Ni 8.579715642880597 7.039293136316568 0.33766843571839644 -1.287640601961492 3.3933812901434917 0.4960961547423263
Ni 8.056107235669277 4.003280019832057 8.159871236155926 0.2769255510823037 -0.8033769210777196 -2.3633346288152266
Ni 3.1219119808239646 8.642476642910744 12.388279385973812 0.8209907775047409 -0.05104076862689919 0.20862676670590521
Ni 0.2665450898630337 5.013998955087488 10.255879372908197 0.630941773801023 1.804076239592119 0.28667080339452566
Ni 8.68371723597074 2.1587481189751854 5.880818102402511 0.7081134351870192 1.8369107696236366 -0.49270384123132566
Ni 4.1131209080618705 2.7872445224512146 10.979072877594536 -0.7610624765802249 0.5408765442818104 1.0684496865864954
Ni 0.9475375790806445 3.656486200504152 12.348208479577163 1.3051613844540748 -1.3500250777359846 0.9278124005466859
Ni 3.223071600849259 8.509525304902793 7.8609349638952715 0.15893377035615208 -0.5545748677045095 0.7807393861838618
Ni 6.273340273543296 7.99334623563913 3.497375916851721 -1.3408184715360523 0.530794220345144 0.3316432543401579
Ni 3.537269542613458 8.43874098541626 3.274715094671386 -1.3300478632831092 -0.5029805405669854 1.7180720675161574
Ni 3.641819426327043 4.395189019292291 9.058861335801486 0.9763322025239444 0.8137873177777663 0.22424673263134928
Ni 7.26910001295578 6.309728494585817 11.376433713487206 1.4967620489156286 -0.41177451257511016 -0.07804352246798817
Ni 8.138771185330416 0.18123746557919204 2.270680735933435 1.091882720798455 0.13921263777814089 0.30699897342891647
Ni 4.552411355564664 0.44880968654347625 1.6504717452307516 0.0008430647265856449 0.24997473352507274 -2.2732961387688913
Ni 6.398003284960193 5.641097217473737 0.4347231866095114 -0.9251014293734261 0.28138718639808313 -2.1104941437065845
Ni 8.361020789543169 8.486625033196976 11.181217578463327 -0.050408791469855115 1.8690019937312266 -0.10526122053336065
Ni 0.5639150785760513 4.731464796827141 5.801573658596247 -0.4723849271683154 0.2728500954613495 0.8798685256775556
Ni 7.472853946804379 6.102319289914264 2.374588205799886 0.4339212238754785 -0.011856128007637646 1.3178140402210787
P 8.595707452731027 1.8356404545800322 3.66792993963312 0.9221937688083278 -1.1598740012367639 -1.5017903553681555
P 1.8379249988443795 3.412935505570626 1.3697506012985907 -0.2913936627914917 -0.7592231093786409 -0.37724768244283413
P 4.818789216787549 1.2456888819320688 8.36930454704569 0.8967964117811458 0.18052255227052136 -0.2902114695579324
P 8.430909567678077 1.6682930181280713 12.282324964446508 0.16986635810825582 -0.2927488912678055 -0.28359704956520837
P 6.748141677091103 8.083713668559648 1.3415437901755487 -1.249294655193442 -0.9275136383593446 -1.55159416626416
P 2.1670455837432945 3.1971191780062744 6.25235262229559 -0.39596891300142123 0.008981377563003887 -1.0693593428849582
P 6.863767031398243 4.0481301928297215 5.783410617876981 1.8542281778561613 -0.5226211976160483 1.4546275816394239
P 2.345797465162877 8.771854953689253 10.185501702300717 0.524282130258239 -0.7535499702532635 -0.1930829054340352
