# total energy = -381162.75288419845 ev
CRYSTAL
PRIMVEC
9.26872302734090 0.00000000000000 0.00000000000000

0.00000000000000 9.26872302734090 0.00000000000000

0.00000000000000 0.00000000000000 13.56571304740315

PRIMCOORD
 96 1
Ni 5.5783531060918605 5.884934655372991 10.462718922555572 -0.2569277678041382 -0.4627620593665708 -0.8285793884852762
Ni 6.039027174549422 7.439596094561024 8.463485967304878 -0.4055125908257984 -1.5141547904707795 0.4768920710100496
Ni 1.6560612683483424 1.8831542495418296 0.9124677734490804 -0.26204452020541324 -1.7358838988865977 -0.8803644914773676
Ni 2.7070881081685734 2.158806070312178 3.1596307259750978 -0.5948247163634918 -1.0787168728404584 0.15197739364297697
Ni 6.018988195514267 3.1842697722142983 1.1004041076342819 0.151389639460307 0.1947546367095033 -0.5490027729333706
Ni 2.404353078915005 3.1667704232696305 5.25501834006418 -0.3820836703788968 -0.6415576016436564 1.508295760586841
Ni 4.223182391128448 8.813665735635759 10.890011685279964 -1.9781206403374643 -2.747392649311675 -0.9366958190792448
Ni 2.0630694308791946 0.720646917472189 8.11199745529233 1.3883147173448025 0.7321054272262424 0.10615802131601718
Ni 2.692990380549485 8.478545788367006 1.3669762873949924 2.590424487322326 2.1581022325028507 2.0690693009028944
Ni 4.157754475768062 1.388102487633118 5.140794305819208 -0.7058778609882811 -0.22842657504065178 -0.23998265530936735
Ni 4.859433878579039 7.422161626677061 2.3767267232664473 -1.012989705845978 0.4473200137798877 -0.04102066538673581
Ni 1.132498914620882 5.797437910649652 12.611419304226663 -2.575098655598533 -0.6771612097798789 -0.24556657715504807
Ni 0.0723961412801963 0.20165960539678787 7.126597808376084 -0.3239867662361646 -1.2236527862556217 -1.2483394903690244
Ni 0.05681078362635161 5.83412351611734 4.474474154220632 2.082330793898491 -1.5381524389369574 1.3336332666415225
Ni 0.008750601344629657 0.8440942579326477 9.521095454169867 0.24059714896491466 -1.4529918458082138 0.06068754768804387
Ni 8.769342702450695 2.498986740315989 10.962100104957957 0.43885259973882484 0.5221339735669847 -0.491105129285638
Ni 3.7879695046364605 8.301235118180832 5.239525669639915 0.16815965982979428 -1.1446970363860092 -0.780357834474727
Ni 4.543685562292466 1.455643671827924 9.105808468292947 -0.19160477822661193 0.5083469470852212 -0.29369531434147483
Ni 9.182097473215496 2.3694285308093335 5.694384541313638 -0.07134091363683197 -1.5105197648213535 -0.8625045804778114
Ni 3.1585305285599854 0.8050923985977604 12.733469848137355 0.6039734727422954 0.6394626667878406 0.8235356554137817
Ni 3.5710165063590043 6.766121415711181 9.153492340422574 1.9467513819975635 -0.12252180738602125 -0.33522325838193234
Ni 0.04163139603806649 4.4775254178183985 6.381880944254314 0.8191794353276151 0.7786755616762976 1.2236106201637766
Ni 4.642175012443969 6.6128630816009695 6.864101086099996 -0.4820471328484278 -1.3187188114235353 -0.44730690115376515
Ni 5.536282372585585 4.805573329470213 12.626233504130404 1.2594991065302696 0.528704941916283 0.9453918041913459
P 4.974375311980959 3.5956249658124433 10.749945524555846 0.6694952085941889 0.124564805957979 -0.534211473556809
Ni 7.005152512074548 2.856796521385879 12.131478341356347 -0.974837620256289 0.714019516258809 0.28230224201318477
P -0.05481708131808995 6.558668858465656 6.997601283480681 0.5719421553383633 0.9900600936329981 -0.14735866392404298
Ni 2.908395502092958 1.5694357835830541 10.5853126136316 -1.2176322910931545 0.15561576172651265 -0.12569094914262224
P 7.850830794760715 6.410721502610366 3.336528011117344 -4.478598168885997 -0.37270685714968715 -1.5730266251063232
P 0.4407833889897341 3.2066444694348637 3.3358087582158045 0.011610587655734842 -1.3426683802605974 0.7050311967172697
P 3.194354142792581 3.284288561653869 7.553687586067697 0.7954190996832237 -1.5878629187882074 -0.3884898310155567
Ni 0.8538727606533174 6.309312404727099 8.982604895246283 0.6897986960382314 -0.9040183834508818 0.9185973097063213
Ni 4.729328814417863 2.576519607859498 12.626748845126867 -1.2165400864702403 -0.38399785668247416 0.6155938305900429
Ni 4.4609065975547395 7.069115969207573 12.486696587487186 -0.19771500488940785 -1.0194074364468637 0.33139668554699053
Ni 8.44202701991256 2.6727011459944645 0.6745498507129674 0.2694878638573359 0.14751652965814593 0.1624538676942686
Ni 6.181246459616678 8.384199457377719 3.9839103079681744 -0.7994624165146619 1.6845261132399119 -1.8014645130008846
Ni 7.277226605783116 5.6303042982713425 7.535332733994006 -0.20324441934806936 1.803008460449237 0.648141168398445
Ni 2.365646891842477 5.49439701353847 5.308100316444535 -0.9647537536577256 -0.2858323666536303 4.045614883443755
Ni 2.406864902836618 6.220063871364702 0.8946625566467993 1.517248856015071 -0.997459985641495 0.9599334494509468
Ni 3.11480996236719 4.305497919718276 9.882540428383876 0.08171762888546573 0.055688037590923445 1.683303296576404
Ni 4.690882151588159 4.298008791568226 5.906701324367512 0.011189955178548469 -1.3041244585491283 0.545164630134203
Ni 5.2734677331120405 2.498412079492594 3.4477934689941288 -0.13206728498261125 0.7955096025145009 -0.8965089624477142
Ni 1.7129897647562604 3.108896517119998 12.072643268635973 -0.021015425909402516 -0.9665884928736193 0.8806938497923283
Ni 6.89805241829508 0.9200264170213137 -0.1582495414230849 -3.4489718829246017 2.3050484914798237 3.2838636083266217
Ni 8.167468908451255 4.811097488353169 13.038915978856133 0.02086913013952535 -1.5186159115659266 0.7459166220777218
Ni 2.5826369650117655 7.612652420909483 7.270462291768382 -2.321511522131854 0.47459813276955026 -0.42960511299862786
Ni 6.807320889259406 6.212713774059023 1.0120676166109503 0.7443472207080729 -1.0557281252547688 -0.030167267611999657
Ni 3.9752347832795043 1.6139998035650258 1.3275054306784313 2.0929427650863826 -2.3312333774053076 -1.398000577173999
Ni 7.947577724996118 0.11513978407322048 11.899938226887622 -0.3095646772735636 -1.6192105798615533 -4.679289997015541
Ni 7.072999564126968 1.3579791380196806 2.3760482527459232 -0.15472795980492063 -0.3947790064583782 0.13855494958948397
Ni 5.454133681009002 1.8394336833490341 6.97543513252667 -0.4791605553292522 3.238795255233074 1.0610857900222563
Ni 0.9307929656093041 7.916166022891521 5.241682501472237 -0.14497859372764066 -0.5267341913431574 1.8718536042474083
Ni 7.979851418335808 7.037027650327044 12.82734440112808 0.060654380457263284 3.085991251923743 1.6796232766216554
Ni 7.0981548782349275 5.080048022424898 5.343764508642255 -0.5033422947817784 0.09355138829560017 -2.09731621156373
Ni 2.4872154621593534 5.1900677639361295 7.8288954350083575 -0.2481649340098436 0.5691468519814133 -1.8069900708048041
Ni 4.758794084701283 6.079985661300738 4.42833723195269 1.6724804949292875 0.44871123770045945 1.1384374286295424
P 2.9245416174857604 6.276538200347679 3.6618740900269064 -0.026668510430121816 3.177547721276502 -3.7129113061598833
Ni 8.473188466497293 4.289110817528566 9.014239973574167 -0.10095487984852292 -0.31327915001067336 0.38640518057238615
P 6.195659323816339 0.06451865363820843 6.489809661866225 2.2604501360441587 -0.18591544115131853 -1.1320250973452957
Ni 2.02191630094576 8.217000963938704 12.977883291922419 -1.3378611886799412 -1.3365455551923109 -2.944781895430548
P 8.353594134170466 1.8715498083984377 7.883768128664196 0.335464427858461 1.482634608375311 -0.05700495663013408
P 2.093100093263052 0.4787814456282722 5.621509207056515 -0.30559052311716406 0.48281769246586526 1.256264658753372
P 6.323539894467599 7.669469692641905 11.296982772918986 0.592024013689903 1.0460661766849726 0.08664386254248949
Ni 1.3169001578699098 3.0981447984887405 9.017956731480318 -0.18477952777466242 -1.2673795377196106 -1.1282016098341472
Ni 2.1736638332138214 4.363464513097487 3.144572758657562 -0.29258511199643156 1.1721780154150976 -0.787341979102044
Ni 6.555684329673186 7.475864607495602 5.845682540518238 1.3983201652969466 -2.4964997748477074 1.616238898827739
Ni 7.705506487502534 3.6858096401935962 2.808387835120937 1.2808549464982264 -0.9033203289425927 0.336204391348279
Ni 6.734385308303056 2.3347264320546532 9.211797242189752 -0.1815013712440229 1.7146401590164728 0.9406290926953802
Ni 6.0310282666366835 5.009077410735639 2.836196784611767 -1.5107334234940564 1.1222998996377316 0.30488295552717815
Ni 6.697356760085922 0.058248362557134434 9.220710046186147 0.39206366440974416 0.7635572179776204 0.2654610020861299
Ni 5.7224632106425455 0.892226736253442 11.23224723116356 2.1225950407351766 2.2394856179773495 0.8542284565119482
Ni 2.1239000596524225 8.988334819778906 3.5233548791644758 0.018183355777246106 0.30049202554833404 0.42729729080105766
Ni 6.891990673480561 1.6599541319906943 5.03011185061648 -1.2058653803652135 1.6056040448217122 -0.26430657676671254
Ni 8.431089926822144 7.730235440354427 9.068462002878356 -0.799564746420481 0.4947290991914705 -0.468003253160852
Ni 7.105653275107933 3.467864888559636 6.989584764994324 0.2004786836774741 -1.0988655798741913 -0.017013760949177153
Ni 3.5192506886386816 3.6932338872829384 1.2774163249412074 0.9711390883587792 2.6205614159170225 -0.4986366617759928
Ni 0.10795003567471478 5.5723191674462145 1.8639429674668229 -0.9455378428509071 1.1895075078324804 0.06928634510064842
Ni 8.172019851423624 -0.05463448747581773 4.834114508074723 1.4866768967654846 -0.7615856960735464 0.2637931274654038
Ni 1.3134521929295409 4.017147948495493 0.8035769623941306 -0.5598571991493713 0.46933097083334013 -0.9130396131128856
Ni 5.2921534785953295 8.638579558959501 0.2958289037775768 -0.8551388841413595 0.7213278769947642 0.14722470944934002
Ni 8.932694675862148 0.2998932387946514 0.30667052902152697 2.0036848619598135 -1.4843909289447856 1.9278707430429767
Ni 7.093539054201853 8.318762273294375 1.7600424368524499 1.2246655437908522 0.5356142674416066 0.12268970042245322
Ni 0.13989005498791657 1.0430093944615775 2.5758439179558614 0.31037714587252996 0.641774859860785 0.7194789967114835
Ni 2.459881998156268 6.670727719027643 11.082821513996473 0.30699537388449066 0.6912742521424934 -0.29983922245568356
Ni 8.167978688213944 5.993656775670105 11.006229421833199 0.31187712745682417 -1.520300498357201 -2.8407692025923077
Ni 0.8093272781172618 0.8419976727995525 11.91982612573856 1.8258635106705392 0.5172727888199415 0.2921958469778129
Ni 0.3667494643628626 7.8838830608288735 11.267450767830267 0.8072137783253066 -0.09763275745382541 -1.4494141557592843
Ni 4.41991103591159 9.091606930976727 7.390220680491564 -1.574802486059823 -1.0516704102456274 1.31813208568213
P 2.455080799664034 8.514730882794963 9.647311362177875 -1.0123052781844437 0.4483664527665311 0.12237088363045376
Ni 3.1964025305662953 4.785552887880974 12.396904906959453 0.9714463351865528 0.1779329371664742 0.5487811438408677
P 0.6672803912970232 4.275115045862014 10.72079261023611 -0.4199225956035413 2.4296446648963705 -0.2030423306395923
Ni 4.935252032375322 4.6992888833110475 8.375227333554394 0.7590626725413766 -0.7593670911556728 -0.14593195877984544
P 4.221949650975037 0.3060726963907372 2.9660349095517526 0.7312996434954955 -0.30162562493214506 0.9443247963794124
P 4.760036093577653 5.854737155975889 0.9983601022283924 -1.7136382001145198 -2.0430235116584363 -1.4404268646590097
P 0.7332820406085085 7.693716671899982 1.0719055651553784 -1.215887540487906 -0.46762504388582693 -0.09164260130866153
Ni -0.021271719188565897 7.91686117711337 3.091992220189233 0.09252988900962128 0.8566874595754022 -0.8650183480386006
