# total energy = -340885.27830735175 ev
CRYSTAL
PRIMVEC
9.07942314514548 0.00000000000000 0.00000000000000

0.00000000000000 9.07942314514548 0.00000000000000

0.00000000000000 0.00000000000000 13.28865353507808

PRIMCOORD
 96 1
Ni 5.4554712079119145 3.3405648812510833 9.512164686223887 -0.10308940969302245 -1.3464273330823973 0.10307835394942892
Ni 4.468746750071843 0.5779170798174014 6.149563137309695 -0.7819997409535241 0.1960080495006302 -0.33666847546889117
Ni 2.8191517748454995 2.0551546436272043 4.907459931707363 -0.20117956639924064 -1.066863058825666 0.7444891456025758
Ni 3.9015279544237966 2.7610162291131917 2.930799624097575 -2.111982555326653 0.3806261119967638 -1.322075129490278
Ni 5.463215955765992 3.4365071445266246 0.3486689115674909 -0.6006086700351204 -0.8230569160051503 -0.6998720211138333
Ni 5.190161387227274 4.548500402065063 2.921191778635459 1.1747102949186479 1.0614436875823074 -0.2985246174093181
Ni 5.095226939909296 4.841647733793787 11.748950463961835 -0.04323335676733844 -0.5394606377708903 -0.8089490158488585
Ni 5.71677700303542 8.05587244342765 13.178251397941423 -1.176088149102781 0.515136459203229 -0.9653931870139374
Ni 2.372326128722737 5.451576135427273 11.567227627678376 0.1575327762435674 0.5346868705313307 0.9697563490786395
Ni 0.5127595083050899 7.6622249780567415 11.363804970326633 1.328253490386848 -0.3213549850402724 0.47260141405449574
Ni 8.158179382255017 0.14722284461180157 6.788986952634573 -1.6836653079015134 0.18481963698397846 0.7843481865810427
Ni 9.009084750822938 2.4692126519945554 1.2834699649199908 -0.8090893980814647 0.4825762658790205 0.5905127192516991
Ni 1.786558071801677 1.1283725367046238 2.7012645460795643 -0.656037026206754 1.79030618239122 -0.031223219680339774
Ni 1.8817558223878466 6.897183713188718 0.3452123752157355 1.3711495184194256 0.07656230993677138 1.2090144675171564
Ni 7.519886863041064 4.158866041678332 4.100758642157452 1.3735563280887053 -2.1203298988500836 -0.884325790117961
Ni 7.922613751453094 3.9269594183619807 12.587158259406744 0.5215657597683404 0.8095647950559863 1.3448797860896193
Ni 6.596700207642767 0.7622965552826928 9.291293193671716 1.0223096976953232 0.5490896762202221 0.7382819883505994
Ni 7.09238222914981 0.8590414395550697 0.4736526173823669 -0.5353144768130006 0.642098818859107 -0.48040214104583717
Ni 1.784624154693918 6.448079131882634 9.412153933483618 0.045440905941618516 1.1941084969396014 0.7578162017287853
Ni 9.164769617709066 5.846639990792595 1.6422914873320649 0.27247908527517584 -2.376795639416139 -0.9263550992748693
Ni 6.342703348067365 1.735876732386131 7.154292091040313 -0.3981579502329401 1.0005136848661542 0.2850895749503348
Ni 3.345440531424166 4.562092298357625 0.6100073926139449 0.9421534997597064 0.37667252666565454 -0.17577038229751665
Ni 6.307520583783016 5.741100777362588 5.076956416923647 -3.043909749372661 1.0515511110589437 0.35392263456364853
Ni 6.449259456877979 2.2839924219556558 11.552025949680624 -0.8857028729711455 -0.6910464524024035 0.5390559461333038
P 0.3435862505490705 5.847302788674598 12.794395182378063 -1.4844174113073467 -0.5663518057347794 -1.9938568201257987
P 4.359212590503741 6.353598655716712 13.052554049475514 -1.4040606673251497 0.010077438840660065 -1.0627971162864083
P 2.4544585895527313 8.443836189974814 1.8011305457826785 -0.32086416144678287 0.03028888079152848 -0.45512408320533876
P 5.927728317972861 8.150016980941048 6.519865590157269 2.9990987637055575 -0.6229340730051981 -1.353772203483243
P 4.982297076123815 1.2305796018785398 13.047690202552385 -0.7541140702868496 0.5220473273904492 -0.6747253466448767
P 3.693627325628173 6.340433492307085 8.554185681732008 1.3913691879004102 -0.5130808622257809 -0.7418069707847225
P 5.087872607245988 1.3826145407021364 3.95285574875987 -0.6409006847859477 -1.0470493665338485 0.9602766917229784
P 0.11422731333805825 5.583527390483907 3.8905191539864354 -0.2570972035024669 0.5537186903518012 -0.22950386726523056
Ni 0.3186686819550139 0.2853344882018367 4.769470860328383 1.7033805269422535 -0.48803163256663695 -0.12703795008881993
Ni 1.7009754302160562 6.616611382371949 4.89734727032416 2.6883320957040926 0.04303409627233879 -0.32066772916526065
Ni 7.933354708910742 7.572093545527518 9.255121680218188 0.1551848448366811 0.11356665507526248 -0.054969928477976306
Ni 8.404195428977273 2.495651931890304 10.091842266168962 0.7596283152368595 0.18682149790535565 2.4085683038420456
Ni 3.5881607475824944 4.477916967343377 5.126443812209284 0.04612276249999153 0.38593081203912893 0.09490018901401075
Ni 1.4843857935700786 1.3849570318467461 7.377023049431306 -1.3084583100377918 0.8850644680561983 -2.3686503846011853
Ni 1.8641599005341511 1.231850721104297 11.603931195322113 -2.37996478117274 2.3137712160648025 -0.03538583569846164
Ni 4.2368219679094095 7.070764122888898 1.7975296466045694 0.18322581013429734 0.1124615949365418 0.5573097501371693
Ni 5.062286793116105 8.032756232364951 8.486559415094817 -0.152131402722338 0.16308404507909977 -0.02723646711844987
Ni 7.05865217255204 0.9199997779108621 4.581183601186192 -0.056687425389715274 -0.06931179902194515 0.41981512349139954
Ni 0.4662547034884603 7.544546576020752 6.541299384130447 0.9157053328705067 -0.4334494264453825 1.720556781611224
Ni 5.066272659831157 4.569083454099288 7.534798907443803 0.6851583690527426 1.744497608697538 -0.647699452875336
Ni 0.4284498018298344 0.19810574721886035 9.423223566055354 -0.16231297124103014 0.764374057451961 -0.3801635705380485
Ni 4.434290339630784 0.5346055080843347 10.725843850053682 0.2657080850999295 -0.9931009373418508 0.4800175040129088
Ni 7.865803801484791 7.361069595205748 4.8100141159762115 0.6568775198301784 1.018838194206955 0.3050891580007133
Ni 7.312449284820538 6.303952370527855 7.2170944602157565 -1.0216298980194793 0.48420505973169514 -0.3460895116724749
Ni 2.5971417226439715 5.206613301777788 2.9045146943935247 -0.846923952430735 0.13309084115111916 -0.22811727133034906
Ni 3.31036672021631 4.385279614054804 9.551113595185694 0.5187977101049001 0.07648543395224892 -0.7557822020178919
Ni 0.9996717150967122 3.5222532157269857 4.145076213963475 1.0139111892189827 1.268425719595938 -0.7509302732422293
Ni 0.7341267373553061 9.361611509240602 0.18538093582672716 0.262475951315877 -0.21456884322195302 0.31616572752984906
Ni 2.279670616588082 5.377315534373932 7.16904252171292 0.9315996355032602 0.4986091509721671 0.506554888181805
Ni 5.597754846389345 3.018735652135455 5.2583069968624185 -1.154008286484606 0.21715537300220666 -0.5207378645504064
Ni 3.959609023617857 7.1751956467078895 6.310197197695539 -0.1654360902510441 -0.7225879746541103 -0.5558470495487138
Ni 0.6584561019036786 7.512151194610027 2.968751612409467 0.9774624594736456 1.4488045471997437 -0.017151057857989815
P 0.07337898907604803 6.0812704410212834 8.259349577317638 0.37611254039712644 -1.3762531581945783 -0.5140499110072695
P 8.370646960840325 1.83762074698495 8.153240176120647 0.651944087084303 -0.648922783759476 -1.0275609187919337
P 1.7287403058758086 3.543462747951048 10.737046042201818 -0.19568151939914688 -0.9381644332049713 -0.6393665075296086
P 4.27475579737522 6.278248523898437 3.9116742096722508 -0.1592361320879193 0.07570433281185027 1.1207065870086828
P 7.052314735269337 4.319063381815898 10.72439477413632 -1.0931608161799302 0.12644659636172415 -0.7009027763711928
P 6.162177179740727 8.064815675123155 10.380604236568821 -0.6396305598242726 -0.001962780153325652 0.8239110364753294
P 2.2900574765471258 8.729674586155433 5.8465028915046755 -0.5185645110481715 0.5277801161091685 0.5967802974279657
P 7.110041706964793 4.024526898361883 1.6760578616219997 0.7453656346702582 1.7581979890027657 -0.08791964393111955
Ni 2.8064224237418456 1.6868206096949463 0.3404129921961982 0.9780939224100574 1.2199138880384797 1.7160378106949479
Ni 0.910884037177575 3.609797012689489 8.397844372560009 0.3965510107571364 0.35516190628738836 0.3602591183046376
Ni 7.762443649584651 0.06717229548513669 11.569872463610256 0.02926326774049154 0.5196451457068599 -1.1350574564137161
Ni 2.625088186764547 1.747943285607783 9.3683675079255 -0.1564086899414532 0.7823105873257237 0.05847177098364769
Ni 6.229001733323389 2.2233872731561632 2.1493200638135983 1.2732917894389877 -0.5824425406490549 2.2377118139063783
Ni 4.302275528612862 6.992762799542614 10.75440045140262 -1.3727852542506358 0.6558691331703221 0.5890366489268049
Ni 7.330199556865932 6.887777430918114 11.613805067879333 -0.2020246880083553 -3.0295701928215375 0.19443479147623932
Ni 7.608774414613653 4.116283547615467 8.52099040315136 0.00966426256264142 0.5657884770321417 -0.9511865564962522
Ni 3.1362233862875795 8.590977319779245 12.6378414147069 1.20078770873199 -0.6077331968950437 0.10349692954408628
Ni -0.05941846820801807 5.2918690841339275 10.521278093341062 0.09181589366173219 -0.7336794565815816 0.10000460012011164
Ni 8.408789617036081 2.509380019528481 5.8971851388625245 0.5999409545441345 0.7425168523675535 0.9580791698510275
Ni 3.7363187727675315 2.662477250847889 11.370210503282147 0.6849863622512525 1.4968504948643768 1.0998893931530154
Ni 1.3224452042086174 3.749937907329215 12.9876388985584 -0.8170281933125672 -0.20524396627660138 -1.0210418867264932
Ni 2.5245063383149913 8.614910678915644 8.18967771666928 1.011446272618258 -1.3864771499154316 0.14139036215575004
Ni 5.64066419968169 8.155973082456025 3.9263056999030197 0.06433979972865048 -1.035565534263965 -0.10273742567024241
Ni 3.3554097379233183 8.844438493395222 3.91067819696464 -0.8176956516932369 -0.9078840370538751 0.78933329850046
Ni 3.7434461198548123 2.832680115176772 7.131475500937971 -0.582672397271674 -1.1838477384435417 0.5346354484681051
Ni 5.98457458563333 5.804584103266117 9.57369048851975 0.18673870838356227 0.5666251140008242 -0.734352057168574
Ni 8.564056830462318 0.2757983701817457 2.2583530392298306 -1.1349273585937552 0.37023988366643334 1.0733820908911063
Ni 4.5562360704961 0.6021691267025439 2.0229054409274414 -0.3036645097390448 -1.4726155335764122 -2.084063974539514
Ni 6.402990717060419 5.729515433562116 0.4684646350566695 0.2763318833623628 0.2691811312501945 0.19746920742718896
Ni 8.123514145084012 7.693558066971655 0.37179783382244636 0.7962454522392609 -0.7891098696357443 0.5265976657652931
Ni 9.354438765038115 5.106866760248016 6.089299374816549 -2.092045450083094 -1.141001589812293 0.11407239106708741
Ni 7.210115107724047 6.183813444847722 2.7906968630346216 -1.0246519726752545 0.4565219919941299 -0.20265332273128972
P 8.701891551649599 2.0481998055777044 3.7432545440286447 -0.7207833173452038 -1.3170195693442415 -1.669252474910293
P 1.8794133312432368 3.4109758069349883 1.763124988874844 0.6664199121029748 -0.9217278849155028 1.2560186041808368
P 4.580596162515432 1.2458148737415435 8.665743644695977 0.0538008478705396 1.1405699015915132 -1.7660336829971006
P 8.580163726937268 1.827615222793633 12.376546514891043 1.077648579476944 0.6231420752509462 0.6114127026291599
P 6.570460675053924 8.174467867190792 1.8466574967377791 0.43593542609202984 -0.32788687262151917 1.3527946700613218
P 1.8085938315224814 3.4583431569405243 6.2463180089474175 -0.06251920158014394 -0.5806293986997162 0.4706874848612346
P 6.968811281560133 4.170206241056694 6.3948718969770475 0.0969645277422072 0.35714679792790105 0.5126887689936848
P 2.2664328177941253 8.71556516274953 10.465784659713721 0.9656675237212466 -2.2861897069021078 -0.9876136889750345
