# total energy = -340872.43077573087 ev
CRYSTAL
PRIMVEC
9.20123124961110 0.00000000000000 0.00000000000000

0.00000000000000 9.20123124961110 0.00000000000000

0.00000000000000 0.00000000000000 13.46693200851218

PRIMCOORD
 96 1
Ni 4.413388932025737 6.452519777244527 0.521691404743429 -0.1617694400327343 -1.04648475227963 -0.13339114600035737
Ni 8.46450699051875 0.36783485801980026 2.8738159299765917 -0.495073884125399 0.012353893579662593 0.8647177860790463
Ni 1.1558586592802136 8.166791954858262 3.360551857514118 -0.8729062354271095 -0.8223609183793901 0.6879747554556152
Ni 5.420123237771843 0.25975535647834797 11.027989316411539 1.0913810985716883 0.08907638324338207 -0.3828652857399277
Ni 6.111466942784407 4.819880922550186 1.3715263166187657 0.6916311212612799 -0.6071133039228577 -0.12537367501251956
Ni 8.217996806306235 2.476428557692533 9.625650836981661 -1.225047609720619 0.4286358071068231 -0.04885610227075456
Ni 0.4298594371978133 3.191189396026765 11.35893919904958 -0.9215185971181742 -1.027409480815734 0.842207520791672
Ni 1.8490426105263063 5.567342936454246 3.811748029666595 0.10426466094804623 -0.022363969517496966 -0.9700844218420196
Ni 5.567655778313947 6.936311310808406 2.508485647080626 -0.2993237162718458 0.18464505907932716 1.1157713544905947
Ni 8.452149737060596 4.434487355093158 13.280078056390009 -0.44777252793627403 -1.1728447024648188 -0.443299836876901
Ni 2.1986157850476715 8.592330493899746 8.202358393813697 1.8757421406685373 -0.7839851468146691 0.7228054899815551
Ni 2.5367978353834855 3.590835670562482 12.221025550224642 1.0647490978064567 0.30248154517453707 0.04906898961250904
Ni 1.6307802059984768 3.1403893987501688 2.4687712931148145 0.5251478206926439 0.46950092075230115 1.4180582671558224
Ni 5.509421186253888 2.404576143504353 6.760749979883407 -0.41191180948392286 -0.5111461070969132 -2.705490095540618
Ni 3.670766765715859 2.278730904824401 8.29475439682989 -1.3507213324720606 0.16544097534705057 0.906384312579897
Ni 0.25242473560708106 7.616779160580806 7.336016473223595 0.4325495403389325 -1.0152525337382259 1.5902373325576546
Ni 4.7705255185669095 7.021661931119528 11.796534111290036 -2.1626438291269463 -0.47231653582422534 -2.3079749210979994
Ni 2.2158864959493507 5.62919361236319 6.182829851474468 -0.8123318162781623 1.0147478261876655 0.31372035131315007
Ni 7.310148131918864 1.3207355205733369 4.719445803862817 -1.5362691058713156 -0.4110759438461888 1.750626604413411
Ni 7.06465008313479 7.202042866930142 10.602663325810026 0.4579679804120371 -0.18656798713365289 -0.5042038714511253
Ni 6.336575063300968 8.171328161823913 12.822566159164056 1.6201678015685002 0.29769646508106795 0.5835350023822854
Ni 7.959414606801762 1.6798135668908845 12.769317714273747 -0.10307166908120957 0.22151339286058624 -1.1002097526069117
Ni 1.6246889909654925 1.054111445028338 4.220078426178341 0.13757355951282116 0.3795789016791721 -0.915345892648559
Ni 5.469414233136946 4.6445238589571085 9.18859511688763 3.0218527695726216 -3.4339301581001314 0.8983969234990463
P 9.105529162275435 2.2650762777716085 3.9168435719403782 0.5082333043254925 0.07728710391793786 -0.4550004131432809
P 7.409687050690504 5.842929011156537 3.0641176332321662 0.4347367777982384 -0.5100531311430506 -0.019277103062057124
P 6.7435271153838 8.84848356837596 8.409048409901972 0.40400181060822676 -0.6932352325236061 3.5831420731828287
P 0.6167217202429199 0.5571143044926485 7.492799011458538 -1.8988591863019753 1.3763511172250231 -0.518057746615082
P 4.047584785724637 5.877838482206601 8.970969437556601 -2.7231710577601485 3.9200319206339067 -1.8549861390681086
P 6.448388424450253 2.180424951029227 11.067986148174198 0.758321680610294 1.31959581471185 0.6983787243977585
P 6.077937656409489 9.508000214779619 2.990345842222414 -0.14353774751605602 -0.7717410393399935 0.8167736540995998
P 3.9379153114374144 0.3625239073898326 7.32757342350416 1.647258487137705 -0.6690277820394671 -0.40078536055345815
Ni 3.944604606496296 7.350467926895507 4.435482008182381 -0.5640853782981059 0.9285104550549752 0.7694540430780297
Ni 5.140755457059649 2.2691156182542067 13.083582084312372 0.24645232219411103 -0.9124749988586673 0.2521210904441142
Ni 9.159917639707414 2.8080593314369797 6.0853023218360764 0.21652648116895615 -1.9366891126655548 -0.7497948740862055
Ni 6.7394325675141955 0.4553726109794736 1.0047459196907782 1.0066642778485824 1.3618896903840545 0.5066970701866241
Ni 8.85126234018859 4.388462796792572 4.063538800446225 -0.15806396615668908 1.0822932773378071 0.8472916201827989
Ni 7.1341929882998905 2.9516077388834905 3.1170964820492624 -0.7613005607329599 2.049863674508721 0.49090406901842554
Ni 6.226657155772219 8.913094613635199 6.535043779340948 -1.8501110703639942 -0.7113792504224845 -2.7825486283875174
Ni 3.1184260599529874 0.2063118454872855 10.244739113880902 1.2869595167340673 -0.35450473231936364 0.27221888963525376
Ni 7.63786838241706 1.3816200672096781 7.470281758545063 1.8385902142085881 -0.0006815994480568906 -0.3230884227916113
Ni 0.6981719386620759 5.520720298127763 11.41641652978454 -0.2912052009297695 -1.5987494837937242 0.6310585018845455
Ni 3.9488095691399123 7.201131945044544 7.080144956421113 0.7415452324829035 0.02196596274812991 -0.07411796216133687
Ni 1.2885036077930583 7.631317105825693 11.239313072515843 -0.19784895936411087 1.2275372089116923 -0.9284256086506526
Ni 1.8008833665948254 5.504884979288237 0.3574383869234724 1.0503743171420232 0.45736608516198 -1.5292294254157146
Ni 4.948615347816779 7.948842392190133 9.410719278136522 -0.4165385096226568 -1.1228328893230664 -1.4303977625577817
Ni 4.172289071739799 4.43537987451642 7.09099964882959 -0.2568629760044738 0.3153512020483537 0.44972168124284484
Ni 7.8720857217895945 0.21484782764151455 10.26523577642996 -1.5106238944993855 0.6702631971084649 0.11762616985661677
Ni 7.769878445979337 6.892927505852935 6.150670628420414 -1.2857577831164824 -1.4926068890966746 -0.1381507721725298
Ni 7.735557853724002 7.483296900031705 1.646116818108716 0.80093025930944 -0.30716018159712905 -0.15915925610339685
Ni 3.716993751102134 3.936203882440231 0.7829980887966427 0.13975925431023029 -0.2075592446733393 0.6259762022656316
Ni 8.739154539641941 2.346442764987139 1.6120050938008867 1.5185369786988752 0.19569000403957912 -1.5042902389718737
Ni 2.2826230256083173 1.3876100686998183 6.366546233583355 -0.7553281451996088 1.635809621870815 1.3887150381070148
Ni 4.027792937483021 0.5248998740515886 5.082796901934621 0.9760015586574031 0.24624971926500172 -1.1319554204496247
Ni 2.0500619078459597 8.314664940953568 5.861267064873664 0.9046087087367132 -0.34545933428764375 -1.2233496531929062
Ni 4.012279661734363 5.067624071739166 4.843113111125385 1.9170852223916983 -0.20938447080753617 -1.4655020624600825
P 3.0411541206070614 0.21421662318341378 2.694934794846305 0.1392378345891215 1.3052691136765329 0.7934012979222466
P 1.2334986478728458 3.2448693786588363 0.3603791004046534 -0.8483262320949002 0.5638802042658354 0.042239882505817575
P 8.523606498308569 8.751714220185784 12.234519155732002 0.6100662159035946 2.3962347219773568 -0.379250828915792
P 5.572495625908131 6.584134187866595 5.538221959931751 0.8935205692433515 0.2678040483970098 0.5728361279075425
P 2.1127406945599927 2.226431106867478 10.393845064952673 0.018265888188723378 -0.059502269130691086 -0.3471737458755892
P 5.538957138302045 3.0680033131542648 4.661336348546639 -0.7915321059239917 0.3720561109395657 0.3025319387964983
P 3.9523704456017925 0.008552544370330827 12.486646691572366 -0.6849454817109881 0.5777870441549147 -0.04223499740981113
P 6.996432155257831 3.5304479904091943 7.854116637442291 1.2280948811873753 1.0323002332491318 0.37234690270710713
Ni 5.832448808856583 1.9821292181351984 8.960290488663427 0.27584105976887335 -1.0235872788561662 1.9697650692839175
Ni 3.0665587198609434 4.324182995855368 10.017970171138579 -1.1727575420676513 -0.06006122695795462 -0.581804907065056
Ni 0.10240602240347926 5.107888659328803 1.8229782829977037 -0.8684569414065043 0.7582682016645392 1.6639531741845663
Ni 7.366220434654524 5.795423054637959 8.386761187767691 0.19690947826897703 0.22949692528669507 0.3619223649396735
Ni 4.554627830449166 8.806958412116353 1.1006549527667797 0.44992556972353476 1.3283321661435832 0.6041686194722369
Ni 1.1314201892989348 2.6981690276017343 8.45898349144881 0.21566644716150601 -0.12516387299455864 -0.571167739066184
Ni 4.203959709418851 2.293802521477012 10.911635147681018 -0.07641909949068774 0.07734341107717002 -0.834977064481504
Ni -0.011714087399535425 4.587862677426719 9.518440851785554 0.2115107731219196 0.7588089046593577 -1.6600746650657667
Ni 2.5642359067254183 8.086051151362133 0.20007709124808576 -1.3393058915462674 -0.517923792140379 -1.8504283444940972
Ni 7.324667674701416 4.833848391462679 11.077345640517931 0.10102095719976795 -0.6362865830527041 -0.14067636680786094
Ni 2.0639281632156083 1.2326429333742541 0.9209714702786738 2.171303561684473 1.282629779010462 0.06546260047918404
Ni 0.2852639296444245 9.209696300324403 0.8582991244264582 -1.6499535174713649 -0.8429333432141031 -1.4945246749446777
Ni 3.0011747711836216 7.3421408126887835 2.3428423232312374 0.6612383679020354 -1.9999847874004069 -0.6621176851831951
Ni 3.1972346049039113 2.9559783236881243 4.577477247807792 0.05654318650236713 -0.4645898566039289 0.4374680606864724
Ni 8.478428453275406 6.840866939906371 12.794945903445004 0.3795624466189399 -1.573945794486483 0.9696015686683302
Ni 0.8759691687608135 0.47914675207044816 9.775941906627827 -1.077676861611718 0.5473480109387671 -1.2112531270396882
Ni 9.114113910954853 4.80361314584578 6.993539288178723 0.6434797583670336 1.3867270611427085 0.5339865020301965
Ni 4.946756699120913 2.303730649906907 2.617850560616199 -1.0974136779190133 -0.93824156629981 -0.45529197624177076
Ni 7.018432298979683 7.9642176494712755 4.287978911580015 -1.4278798812319344 -0.4379694258029231 -1.5422332938745502
Ni 1.527652807071454 0.6291452225654811 11.921009286649126 -0.405663771691682 0.9381361510701973 2.484349255528102
Ni 1.7494944905234993 6.073824706077549 8.514615975334657 0.9278936474065826 -0.1750561298393114 0.4441452155963319
Ni 8.833964025593406 8.786632892467015 5.420709356197222 1.0475327339281701 2.1879069745691093 -0.12128613520670725
Ni 4.942413718009783 4.389217297748319 11.484329896909848 0.4267187925897683 1.0081357201877865 1.981877022056103
Ni 6.800721968321913 4.732165585828977 6.023462687404534 -1.0515282282408085 -0.9840694232672021 -0.6604305272887594
P 0.6676128097080761 6.849681719364979 5.163208301354949 -0.8499059178771944 -1.236040361286697 -0.4684038310333804
P 2.039922151099209 3.580475084267708 6.595496788235526 0.23332349812163689 -0.1740863097268744 0.12085444698592734
P 6.466836892941391 5.97902442135725 12.787094492889647 -0.4650333718992507 -1.4061013519042622 0.279379411939435
P 9.097119236988203 6.904705081747528 9.374102058581741 -0.47264023771223124 -0.612874374776351 1.0621260583613128
P 2.750846076036531 6.012029237555612 11.592133361516272 1.2215838195417348 -0.6728427849101831 1.1109469365187574
P 6.728676328279212 2.683557472507506 1.0152380835912496 -0.6082690147938556 0.9300641726953403 -0.9588312175257037
P 0.873978022336134 7.231265977118599 1.378690395205898 -0.5415326898085706 -1.3380704764772695 0.5540339075993749
P 4.057844158476566 5.231645218533698 2.4931333928774015 -0.48595726653611154 0.23546522705498804 0.38639309638752806
