# total energy = -340891.43225446774 ev
CRYSTAL
PRIMVEC
9.05016464896941 0.00000000000000 0.00000000000000
0.00000000000000 9.05016464896941 0.00000000000000
0.00000000000000 0.00000000000000 13.24583076842991
PRIMCOORD
 96 1
Ni 6.274253024787093 2.108751757306359 11.389639682805491 1.1331586967291065 -0.025476032783917416 -0.3169298593893832
Ni 4.760441003290412 0.2336408653687333 6.023475672306559 0.18739716790316757 0.9835750001292868 -0.5465777084316458
Ni 2.5822563813831843 1.4256634160206068 5.071073430928761 1.289697484490521 0.31019202644491745 -2.1038653255361575
Ni 3.274630191787875 4.183284841378115 4.853894815391752 0.8191251850509119 0.17308357949397288 0.45183512804142184
Ni 5.1507474620549605 4.389936305181063 2.8693647155704087 -0.0748674387328517 0.7172974156791324 -0.4637269943830014
Ni 7.1183799991161 6.206422039361715 2.574513060351836 0.670651176575503 -0.7257527455353371 0.5491320994223833
Ni 5.2620011383503815 4.7152806807723815 11.420091677436487 -0.15196479523748666 -0.5635372191041198 0.0007600180944761104
Ni 5.753334587148753 7.6850651203163 12.465558573827792 -0.024988808734853735 1.576391170703182 -0.9981338717800681
Ni 1.6610220026746951 6.801054069567061 0.4307362601242283 0.8617651312086255 -1.5142229247045533 0.7645221529940511
Ni 2.7996594410080595 1.831101750386388 0.45034887233441345 0.006015867176776737 -1.8726259636370588 0.37008561747675617
Ni 0.6828086911924047 -0.11186818248759985 4.352116571359299 -0.9056137529624597 -0.2517017435185085 0.6386923642807194
Ni 8.587864313259413 2.0306488347952163 1.458140837541289 0.30930191053048023 1.9804482600293762 0.07013943712956308
Ni 6.923113642673409 0.6112617080864845 4.382184839001365 -0.2961252639392062 -0.46021281058215585 1.3893105055991686
Ni 0.49951751285710044 7.29827012550706 2.5573991986521176 1.470527797809448 -0.9255112632173351 -0.4008591512141871
Ni 7.751049872115691 3.590408543150424 3.735165024642137 0.17701068246252094 1.340236630890653 0.080672475450403
Ni 7.726044266681359 3.99113174163807 12.46602284728374 0.3598773094851867 -0.5859937483354231 0.11104903085973133
Ni 8.084304091771289 9.092067096450698 6.665871757452467 -1.123348138396588 -0.42945650323590556 -0.14159527907770453
Ni 6.6024844029602265 0.8375058737369839 0.3215758869547436 0.764821943622657 -0.31699773651284113 0.07872666457794184
Ni 1.8707324221912889 6.638857015425149 9.401361004710209 -0.44154711585185247 -0.30815314163801766 -0.4193096446098908
Ni -0.030175059587097656 4.7947320778436815 1.3559228458154078 -0.182779209515182 0.018081282981743056 0.14400645962235845
Ni 6.242640799024472 2.1424183704861335 6.838398669735078 0.8537769707968265 -0.6311006679763905 1.015171543988645
Ni 3.3821280496774873 4.00852615844762 0.7287500429355466 0.14562702594491694 2.2335723378167085 0.001869449108570974
Ni 5.855185142182404 5.872606709486454 4.771134678057407 1.3935037177449097 -2.0612215227237023 0.5236684079336401
Ni 5.063603424875379 3.108668269075321 9.449801106963816 0.8494498041763822 -0.8920121030186251 -0.3380309030340566
P 0.3484630216579134 5.584530912678551 12.452127224198733 -0.08202564704418777 -0.5999129295196766 0.27837231083115926
P 4.216236491536061 6.175741980576921 12.598414993580235 -1.0243699226584615 -0.6734765618394402 1.1481209744658938
P 2.387985543072154 8.413540038240916 1.5931023256339505 0.21062631363443723 -0.7791123921034001 -0.2379586829008031
P 6.432115049973868 7.67353521031871 6.115414486814809 -0.6866172129864562 0.9929628691020899 -1.260661759379803
P 4.65618310441111 1.1546381297585908 12.740528826940633 0.11495582211330524 -0.6522994135411928 -0.8813697928134304
P 3.936740250990102 6.281230701873548 8.10138899294354 -0.26643107930888305 -0.321132327506505 0.16101739235805818
P 4.769925576035681 0.9345290708485667 3.761326336125678 -0.41029304293357727 -0.1451598565005113 0.11623417460509661
P 0.1297875088574797 5.555335080926414 3.725032460094804 -0.5381861419338408 -1.2065513506886445 0.1484812075642604
Ni 1.8674200618623111 1.1338680014662301 2.636662352294886 -1.8729491513044323 0.6998146855133367 0.1264766782687112
Ni 1.804611917919399 6.4050279066278835 4.863392058367788 -0.16279042509808092 0.1985400718938645 -0.41801020907217684
Ni 5.807934231587888 5.555163127794582 9.000158147486399 0.5729245738562907 0.9273912538488674 1.2118012862336742
Ni 8.802624724752972 2.335784192313837 10.237769093452915 -0.6188012817837472 -0.1592988670050547 0.15304388723427836
Ni 2.2939814809489505 5.430135100622921 6.9970172887019135 -0.22712816794420237 -0.6037870677631021 0.47392578929287416
Ni 0.4117653046007222 0.026678075895521108 8.934260277269408 0.5460277494654467 0.4275245763205153 0.20483644642553753
Ni 1.3805573944915757 1.0590683891192316 11.829771824059625 0.9129287985666342 0.6458590572324877 -3.103409704510507
Ni 4.226481278127325 6.320997126150947 1.617912447507884 -0.25602736747705584 1.0828481214000125 -0.4324415540061584
Ni 5.442352823147839 8.047850027822866 8.0729370847407 0.018453064498864993 -1.5417509549214932 -0.015059979656915998
Ni 5.415455733263352 2.789387503922295 4.617072817084123 -0.2274117606228922 0.34624429208278434 1.2733915482416458
Ni 0.49792739889589444 7.410528370098974 6.828133067764696 0.8044986933869887 -0.9106870537203091 0.34848295160531595
Ni 5.049937675977136 4.319335969316703 7.121686929346177 0.32015710807742925 1.4257872603689636 -0.9010371893353709
Ni 8.228473217565323 7.090523591759286 9.112310505149763 -0.2118491302979448 0.5271203710379826 0.1443666711752546
Ni 4.70886411390559 0.3218817825261082 10.495439956486955 -0.014887201524477586 -0.3138933865559046 0.08657675674997993
Ni 8.010065589643954 7.260476637163314 4.640107296617769 -0.009160583453345514 0.06914776264025511 0.3440740239043429
Ni 7.19133337783711 5.960863916940529 7.065670934110637 0.6725401660680999 -0.4522321063695243 -0.7422044633334571
Ni 2.1270783410937364 5.1617705628218875 2.6613919277018034 -0.18617306568807937 0.08080308749099634 -0.257273324069015
Ni 2.4807316322835318 5.1232983121156455 11.46442571990524 0.05761533652062336 1.1776400669709333 0.5850506676958633
Ni 1.200585816617116 3.2902145756307704 4.10146592118643 -0.6355530473207893 -0.02811064219328707 -0.5162901131916979
Ni 3.5965717054018826 2.6226925178582468 2.8401580236204715 0.36058719106801773 0.2987385331923371 0.1261987420169762
Ni 1.108572790757233 3.261407900966464 8.316686079211715 -0.12361555467083227 0.5949946662824528 0.7065548324506477
Ni 3.90664845291947 2.426367292130063 6.798329969952246 -1.2665110190717284 -0.35334645034520434 0.43661522576787387
Ni 4.192416457694887 7.065653738797454 5.748042050754256 -1.8113637743924675 -0.23088274989062818 1.429612547652325
Ni 0.8176145164499341 7.567150522703591 11.65079485930034 0.45583010813342784 0.33840576987497206 -1.0103975196387696
P 0.198884612343033 5.551850767465605 8.075003237372135 1.1408619789106351 -0.41057663561226704 -0.06705359911538775
P 8.422038143019357 1.8177980080814773 7.901416550787549 0.8776632904961208 -1.4971793389587054 1.0136777330519382
P 1.8642887048299988 3.2461131223982327 10.540091659741355 -0.9332196876051863 -0.27432513734497915 -1.1686484049952839
P 3.8021824002490043 6.096562088450619 3.79334129422338 0.3543190986711188 -0.25752889172324683 0.04732141079378302
P 6.985976087605321 4.072854730082522 10.234695657475536 0.2538943802944531 -0.5278721616023425 0.3810860823523179
P 6.394909822344284 7.759557027058967 10.07557384934397 -0.5346560172933953 -0.08067093278850623 1.3066374547789692
P 2.2034617322865575 8.412218714175257 5.773486589183001 0.8854493621994427 -0.2661806538609739 1.6596208653578
P 6.911601833005487 3.990262925814076 1.666510927646075 0.12958797020418328 0.2991491383671945 -1.00694735630664
Ni 5.481413334568244 3.1399546889039445 0.1721268949969791 0.2258989235227916 0.36841388620128807 0.6660779553825238
Ni 1.461755473375698 1.0469773689019792 7.020873523202421 -0.7647221848199991 -0.5158463407860601 1.2128235568506014
Ni 6.938073565142809 0.5503369034453763 8.877249668918688 0.05563018776979451 1.0457098217868184 0.9513899307563098
Ni 2.86177072225881 1.597317892413289 9.387863588877863 -0.5404325147658563 -0.04937752199186335 -0.5145314786293783
Ni 6.335341637411684 2.0352372683656856 2.480043819756203 -0.5888630994634181 -0.39324688608456787 -0.5557524329523783
Ni 4.139835000013573 6.844540111590936 10.539482583648075 0.06325607974616848 0.7267215372065098 -0.9174104884870716
Ni 8.112033796820437 7.485083627995474 0.2335241182423841 0.9620949758786399 -0.11942439940762013 0.0037185865021677894
Ni 7.760688297663126 3.804761697226487 8.049240133141259 -0.8699823769120952 0.7942502761861031 0.8714908431368216
Ni 3.253742411352681 8.357456166769126 12.66486854391799 0.08813484526571917 0.30689767196436174 -0.3982705645514044
Ni 0.07471635083053232 4.784849297845748 10.373592157237704 0.6634163493899606 -0.1864628290143563 -0.9447693401159988
Ni 8.387584165499089 2.1453325235624474 5.742080707178579 0.8492155766783891 0.9808658287282398 -0.844726430558784
Ni 3.6088165784213 2.7253032867378915 11.59555989328991 1.1175909241978363 0.2460412027986214 -0.14732883912737205
Ni 1.287087292093536 3.3527240641341844 12.678856478684295 -1.668996907256061 0.7282518578081071 0.2712045894381265
Ni 3.101002779461539 8.371827828524362 8.061889548528724 -0.8087245585428781 0.4281400984173272 -0.1912625643958448
Ni 5.472462721548137 7.848149090611874 3.5051777108165956 -0.03496931698633332 0.1439712355090488 -0.3807670084500023
Ni 3.041651798484937 8.406417558517129 3.7145677544980913 0.8585054866207472 -0.8247075642346957 -0.06662448199776913
Ni 3.19829205141922 4.375175486337994 9.106707548101484 0.0803523731068229 0.540489593256037 0.009203777986455117
Ni 7.614265680825608 6.33682586444434 11.375096067918424 -1.3255607740460333 -0.20527996172085938 -0.23313632181149527
Ni 0.779681655567755 9.311443092009227 0.501264194669922 -0.9617033968671762 -1.5816071676864825 1.3468857607760545
Ni 4.363220218593242 0.2790935082108785 1.6076595157682696 0.8942335361499761 -0.30358840508547075 0.14283943589745077
Ni 6.332816641423201 5.7435785094584855 0.38754525347391794 -0.3706425184214907 -0.9762740955924993 -0.3969438753201809
Ni 8.114640244292419 9.03026352080428 11.017922262608485 -0.8742187835909461 0.1333626067552671 0.8312996156299166
Ni 0.14456190294779728 4.494040351258198 6.054033553866104 0.11168409334056895 0.924683367999401 -0.4489809464220783
Ni 8.066430016225576 8.891117236492713 2.2984033914864876 -0.6122843066008359 1.1409686796918286 0.5833933345980985
P 8.69363358966587 1.6037797101042457 3.6011709991701517 0.24705370322353581 -0.09675086906950434 0.07467152067196173
P 1.5531530880269184 3.1638833247231175 1.7403032566471301 0.8989638517461099 0.5300853672035775 0.10847612792623254
P 4.810406963334909 1.172376452831805 8.351112001221 -0.06976225629580243 -0.1702913614608164 -0.37198103472725613
P 8.451568830870327 1.7050058037644003 12.570121463261977 -0.9193023061931458 -0.13570256774235337 -1.8198676980984207
P 6.389298720147656 7.954524728062159 1.42862915503647 -1.583187624799725 -0.6693910789161568 -0.01643603406883621
P 1.858351796699372 3.0468375429344023 6.3493630577878735 0.6001363583843922 1.2856212575386181 -1.463823389206079
P 7.002655541393042 3.9850409807052776 5.839703025202124 -1.31691672521779 0.8395608271974444 0.057229671046430466
P 2.1370335224103365 8.699398544664666 10.23466941199752 0.9147272852279538 -0.5519896234758364 0.22848236797925164
