# total energy = -340889.53957809176 ev
CRYSTAL
PRIMVEC
9.07544499513744 0.00000000000000 0.00000000000000
0.00000000000000 9.07544499513744 0.00000000000000
0.00000000000000 0.00000000000000 13.28283111042597
PRIMCOORD
 96 1
Ni 6.311699516377556 2.4015986257076896 11.309945317458679 1.8650990591323942 0.4308862937038966 -0.4332851329533764
Ni 4.975930190140579 0.6286006932469027 5.714313815131143 -0.3060378950672278 -1.9881895945376922 0.6639729932243791
Ni 3.1007708843841635 1.7424763044343743 4.677602172393784 -0.5535171158639565 2.015428632759303 0.5526858782119127
Ni 3.6674053488535856 4.75352734264414 4.541014914767452 0.29473455423926664 -1.2745791407918436 0.022260096949781018
Ni 4.034343728433117 2.9453448186768254 2.568248293859279 -0.7776419782054608 -0.4041596763423298 -0.04009943912404707
Ni 5.0485609739696 4.995115680208621 2.537831033446766 0.6383612061935457 0.36918264604651263 -0.2595243248867208
Ni 5.432651944007317 3.037878052704153 0.4726482517477266 -0.9200908635327122 0.02997906286059353 -0.5424336043562852
Ni 5.690539780229417 8.22441301224824 12.464382721129649 1.264480361794945 0.35910983519154277 -0.38137970233333673
Ni 2.1182360162495444 6.694193208150383 0.09742489871355063 0.2517714204141793 -0.9916063550741955 0.006446526956292124
Ni 1.1068503094553654 -0.17901859171532503 13.138366990622183 -1.6947958705970358 1.6319480820328798 0.45475950077706845
Ni 8.265669983794751 9.03331647263366 7.0092962778563885 -0.7411063451732721 3.150611044786658 0.9093086853155435
Ni 9.226913858693973 2.617421775806148 1.4626522108596396 -0.19540229759583122 0.6769586068507696 -2.1095096683061283
Ni 7.103586517975094 1.0275581492261814 4.714568273692343 1.4646656826017164 -0.39219864732571164 -0.5175568957192634
Ni 0.8432939504818454 7.615577729984872 1.8940253401714808 0.6766328480802346 -1.0878612583438878 0.8529529322336342
Ni 7.967459946828885 4.153676750620773 3.8108046352618827 -0.5596857065685135 0.5364565608372438 -1.112441261676097
Ni 7.698100748522582 3.7035074678179547 12.935272151697058 0.821622754661785 0.52610375684801 -0.49500266456783126
Ni 8.345769858601066 7.372528245825802 8.832869848468164 0.310741214080168 0.06756524864448364 0.9036327179766889
Ni 7.146831011908031 1.1284498678101162 0.2452729681073516 -0.1644582997188071 0.12125785307193311 -0.14256098542508353
Ni 2.0682756932483244 6.677639597041532 9.31283200108904 0.5460336630027177 0.9733358388997817 -1.9771906723240271
Ni 0.4018743039016388 5.221856590265385 1.1154719819078922 -0.18878916315468777 -0.7319393339620233 0.8066681902344817
Ni 6.553750701621069 2.0544719418795947 6.887758830154293 1.0646575665339149 0.40247766065421653 0.9236428425500287
Ni 3.5432986427606368 4.638169365229333 0.1389450581559814 0.6904029052811336 0.2218836317158114 -0.2834502395746989
Ni 6.265423823919204 5.960951730119399 5.006657830761383 -0.8541634076019677 -0.4104694206104415 -0.8043631962503889
Ni 5.399218005780887 3.1315094155385923 9.21457851427558 0.1173628888929011 0.27360471423918686 -0.7791530155333485
P 0.24330541169923814 5.799980567708385 12.338195923114469 0.07910487385296698 0.43464576074632894 -0.9877196184252797
P 4.337145940410539 6.566973624529838 12.394900209062502 -1.5037019705685715 -1.0102211419619054 0.5583659593158254
P 2.7436702868451976 8.550929361192452 1.581998846214325 0.3333296409036453 0.4045833941433096 -1.0327820579815568
P 6.789639659922196 8.060147463415891 6.007505131185169 -1.5939939713866098 -0.3444776871006648 -2.4001993630520597
P 5.002929638084017 1.3059837167746695 12.381617388218798 -1.6001715609522311 -0.6588305297914911 2.5087968470475053
P 4.0741667797191035 6.265550880144821 8.088712425567813 1.1499161186931035 1.728246694056314 0.3469058369261832
P 5.1611509407549105 1.3363229283628761 3.5483618333514415 -0.4890307632551126 -0.1195555256688457 0.6728240158571057
P 0.2305861759705897 6.0012194781950425 3.2521148150713466 1.0201890518078944 -0.837638413363751 0.5830670616069312
Ni 1.0038803140381374 -0.06415431849148481 4.305429983863334 -1.4207869789408951 1.1417315259997822 0.28188855151453385
Ni 2.024287012851065 6.886873974297323 4.474587197381906 -0.11118298533443434 -0.6584628620394273 0.5468942112308001
Ni 6.2367000414852605 5.7258704863954035 8.94302396589952 -1.075650575210309 0.805129127882136 1.0210845670389705
Ni 8.792490472422873 2.5393457251650045 10.498085077194277 -0.622545836427844 0.7071407868611047 -0.13220072523668203
Ni 2.7507763600350175 5.369368868205771 6.591564449453382 -2.5313263956085885 -0.36078722289396575 0.9448500727552631
Ni 1.0057498556436326 9.142784486446686 8.830611877830071 -0.3103645474670397 0.037561246083225634 0.5345791413088729
Ni 1.7156402144952994 1.3550546461965762 11.12186035650117 -0.3022668580605698 0.04380928387546649 1.2408658076997985
Ni 4.763610161691252 7.244764135524045 1.3435578728672493 -1.3801064705023973 0.14020611203966177 0.9952704341893439
Ni 5.815926124023215 7.942393568603751 7.842661691850798 -0.45223879123774374 0.2503837960380333 1.2777382552461156
Ni 5.653884059139149 3.073254136093573 4.885611364616847 -0.6915953829273379 0.7164049857718501 -1.1164118162880707
Ni 0.8437921923951546 7.755012862153943 6.687493714882536 2.079329802288638 -2.2746642227610114 -0.2099578268125029
Ni 5.0339041308003045 4.695970872440009 6.843686655665914 1.604841712734391 0.16722892048540877 0.18776714964807661
Ni 0.7047935891155207 7.6296900464729545 11.042747890076786 -0.2522511882640753 -0.31510026237981215 0.5928375107301338
Ni 4.686214769401624 0.4929001065664773 10.44539213779784 0.537340506104094 0.23290389408571502 -1.2092669498475948
Ni 8.331711994781106 7.195366490093411 4.761854970688811 0.8264831680778798 0.8065542903644366 -0.052558233712690125
Ni 7.687482478238944 6.069330690570003 6.9755846310225404 -0.1325018014168686 0.3951824125443839 -0.7508089171730166
Ni 2.6167411174546324 5.608633891930415 2.551671994138711 -0.6686865966499645 -0.49184380722387555 -1.487640803340651
Ni 2.759470636045039 5.531710422764504 11.146898600847775 -1.03903060999443 -0.8783641732178873 0.9456666551192875
Ni 1.2994766229341836 3.3610818643376583 3.487699745975464 1.2046155671185124 2.03628902114808 0.8234783198132851
Ni 1.949314764292831 1.331649074349138 2.537299212388115 -0.14550232744159455 -0.6753300701084111 -1.1305176595618336
Ni 1.2554516407581768 3.687325949941265 7.795852363244859 0.11391092578855866 -1.3427791948068488 0.21372963515010934
Ni 4.102028394907795 2.584169346473456 6.72572130299257 -1.243294471745949 0.14112451008887308 1.1183000344497191
Ni 4.166690938301745 7.015473025510271 5.980182597410877 1.00279656736306 1.9310519689844352 -0.449983933765296
Ni 8.259117512730832 7.5323377513168985 13.343798756554174 -0.8069124450348039 0.02532896568309186 0.19118568841132236
P 0.7017760037571363 5.734174518283889 7.787139028800995 -0.7735750072249388 1.5474122669723285 -0.18407864505289587
P 9.004501935752847 1.9141201897971485 8.27164344148765 -0.4897519576918533 -0.41615772924447036 -0.809861757471115
P 1.864550110917464 3.5035391195874586 10.233916125704392 1.55923625619045 -0.802318140795902 -0.281322908819051
P 4.339478329695065 6.651783655128639 3.729274470372916 -0.26306833348423725 0.1342108136881753 -0.2114485524254165
P 7.159200843016235 4.201105024554356 10.392074807806948 -0.5710993477220938 0.7204763276277463 0.39896090575020965
P 6.605235699329682 7.959537083617248 10.03726394496248 0.04415843968476911 0.17172500858354942 0.37587368491344303
P 2.60903606491548 8.72152049497155 5.781484811436544 0.43608840673012633 -0.033155403706046124 0.23941778394483282
P 6.867969823014572 4.307115293941686 1.6247160568109538 1.485877026572009 -0.06675740803120761 0.8231582174697049
Ni 2.9557452782879783 1.4201618863801824 0.22273410122750967 -0.613222502144389 2.652523827756232 -0.04071521833117504
Ni 1.6878239765300425 1.3603456304490213 6.750361135317423 -0.4004174356910781 0.4271378824050579 0.32906829452413
Ni 7.099311983527579 1.1034288668084156 9.180600956912405 -0.35186138115924565 -0.5208851887615481 -0.41848740581891153
Ni 2.898016374634798 1.8240736276140235 9.069051943632678 0.4736190566857327 0.4134030493174687 -0.5195762401421374
Ni 6.821984544786201 2.244856620520756 2.401761983712053 0.026099525300529246 0.15898904907411973 0.40987703844208123
Ni 4.426493693352775 7.1627947191122345 10.272064757445651 0.5269943869830795 0.13278487987492615 -0.8424569177983169
Ni 7.14909079763506 6.292268989302967 11.459801782761684 0.9797731098846932 -0.4883815597068879 -0.7319740438547007
Ni 7.744158630308447 4.1241271027203235 8.282575722157452 0.7654199822179721 -2.3932604698403814 -0.6842607969391377
Ni 3.197043201622481 8.499680325045697 12.494295386817571 2.354519858737074 -0.2765475989175947 -2.013874400898306
Ni 0.34629355800584016 4.940372597857421 9.836095822944378 -0.5482445546111073 1.0915605615723458 1.403341529770938
Ni -0.2394746664969103 2.632641296546029 5.573874031235233 0.8246803105411862 -1.2467559479319883 0.4066248500533707
Ni 3.898910867370955 2.858447435800044 11.243637395943 -1.4707867078977894 -0.17221120419134858 0.27074281931035954
Ni 1.3500903779528584 3.65480863162821 12.367736495570231 -0.5232860848935568 0.1876177685544059 0.6418417085429785
Ni 3.4037727561446958 8.732111538921128 7.909540458837281 0.13509270207249638 -0.5903072881091124 0.10901528825915417
Ni 5.860985706893525 8.277259326659884 3.641288941678179 0.013783426937337553 -0.22118197766309652 0.06163602764424223
Ni 3.4221686825249815 8.87467769950717 3.741494556643787 1.4002106974514401 -2.3661579571966347 -1.6129520005463511
Ni 3.414282121092091 4.469919696179448 8.867007133657827 -0.05526303423836289 -1.2141170788510445 0.906228246618007
Ni 5.106099293284356 4.829307305779505 11.292703787642562 0.9645915170482484 -0.08985131373619365 -0.8597676411626225
Ni 8.298677376120898 -0.08134139563947942 2.4835834703754682 -1.0847458526433575 1.0386333745560115 0.6044802371753848
Ni 4.8277191029593025 0.6962853597215799 1.341791791331184 0.5606033332867765 -0.3850478952135433 0.9393337709227242
Ni 5.920239285254101 5.532754098903494 0.17147780472500468 0.8798304733507687 0.17442492401321572 0.10788991640545936
Ni 7.83354268502943 0.2770188736220232 11.349461618714248 0.4781940776509249 -0.6702323438705295 -0.03345082345927788
Ni 0.4447022349234475 4.941697612781705 5.67425298719436 0.1097061436785917 0.8448932951539514 -0.479126102546891
Ni 7.192371593346745 6.489378572457099 2.636947595049949 0.27399115104432814 -0.5246955636465738 -1.2499659702288537
P 8.803998136285825 1.9343221296701214 3.377318742426938 -0.4561977758854917 -1.7738734907564935 2.0950420708175725
P 2.2706853360995884 3.4375061840457914 1.248271148921925 -0.9649640698963188 -0.6724252377567904 1.3428822960436162
P 5.001650000383169 1.2000097491660873 8.249925902351968 0.08522127116335002 0.19770446336644662 -0.6868995201135654
P 9.039741887471964 1.7801666262189457 12.668008473568953 0.4846071802661202 -0.5082728993141762 -0.8661753444611793
P 6.574188603055899 8.408608237612954 1.324724510053056 0.7470990724215972 -1.1224050577570284 0.35048738362985443
P 2.132593369744173 3.42539046538882 5.668022694416824 -0.2054648240381558 -0.3860200293188255 0.13059892796720088
P 7.252968337520976 4.027346560579541 6.002657028633442 -0.74862039416213 1.468526193998387 0.14935306864625245
P 2.667454702364863 8.745352612719271 10.226105798006872 -0.7184191879884014 -1.1042422708050725 -0.41388718804273883
