# total energy = -381176.9519460712 ev
CRYSTAL
PRIMVEC
9.12585075960815 0.00000000000000 0.00000000000000
0.00000000000000 9.12585075960815 0.00000000000000
0.00000000000000 0.00000000000000 13.35660504182903
PRIMCOORD
 96 1
Ni 6.753312207197872 7.116229047088477 2.909897118530521 -0.41393526767185485 0.6028388449172198 0.34413778726274286
Ni 6.694988893887149 7.913572894778124 7.021300120516608 1.792835633681293 -0.1852173866430294 -0.11118478510664723
Ni 7.994856849035457 3.163558358470051 1.7284653693715575 -0.515748381755615 0.9402110313213549 -0.5245407832362643
Ni 1.779066387623052 5.302767327300174 6.840599146198719 -0.1373303331537635 0.778518210162827 0.3010000755330042
Ni 3.37148174612011 9.277157541138365 9.46670785310567 0.44681144957458535 -1.1212174652068303 0.0642994334090183
Ni 4.12444658072416 3.628675602955678 3.634252410460636 0.6978246516665014 0.8439561280516626 -0.39351273815144483
Ni 2.6325615961014455 8.525479451515823 11.83929494559236 1.3282303504583963 2.236013343158033 -0.18064673655321148
Ni 4.488458522726685 1.473523772546173 4.318537916115563 -1.421658840022887 -1.377917690381195 -0.4435762304667393
Ni 0.45296799913895763 1.567985455550288 2.4809091178873524 1.212062510314861 -0.3057278200259767 -0.4872109364375544
Ni 0.8230212544589134 0.8586686533721272 11.728608412215044 -0.45636489759097537 -0.7134495026879519 0.16931022849446972
Ni 1.583745800111017 6.714426956373746 5.05650350212667 -0.12909868927259058 0.6690015567872221 -1.285315039152109
Ni 4.434588624671107 3.816823271634631 7.143793679830621 1.0777305976677891 -0.059904389665116194 0.3634537139825354
Ni 0.697945079330955 8.506333416259071 3.23671939281221 0.6156025723407914 -0.158567645265985 -0.36077719559163673
Ni 3.933798428889655 0.6078154377645806 0.3895999154326516 -1.1014991608422966 -1.2330524823029667 -2.8292203214124436
Ni 2.6660078397696982 3.457146108825126 5.703738052994938 0.06224383643157022 -0.8552440422606561 -0.14693391768179856
Ni 5.504667653334668 5.079284363809905 9.539487426878845 1.7486738515624143 -0.45779211695580513 -1.2027358335972964
Ni 6.79039053953733 4.642238236793185 3.6546340859336715 1.2896378348971789 1.6596257504538063 -1.2658890692170135
Ni 6.106198117561915 7.434128064328196 9.624368791573836 0.6941793416044303 0.24560977168815767 0.03511895519032016
Ni 3.2562496263932275 7.1413890181098605 0.3413524541366942 1.2359406024840391 0.9738192062941033 -0.07731358628049911
Ni 3.763263652510764 5.122969812224619 1.251827650668522 -0.22675535798581592 -0.7212764549315385 0.8013586050961102
Ni 7.558476909136822 0.04830039123136696 11.800974584940967 0.8430025058891417 -0.4631587805843572 -2.0778439617717313
Ni 8.966230674011207 5.150840160973007 5.324516967828018 -0.7225748620279878 0.04910601349803156 0.44744908315858417
Ni 2.3274387701674697 6.425821920627911 11.646358942929034 -0.5140797358039404 -1.580562785582368 0.5191784904830864
Ni 3.6117836528792977 4.398632771996369 10.466329837058423 -2.961469383388558 -1.8606219971976474 0.12640057361513715
P 2.123530756927788 2.5431738862158975 3.87922584031226 -0.2679637139033256 -1.6431231248130929 -1.0778552961711114
Ni 5.705783156188951 3.729059963215099 1.6120888679377177 -0.5379120623368479 0.6348256822364615 -0.644466033539703
P 7.700648540816959 5.422416358878471 1.77641532792711 0.0475900910741374 -0.5203737963427684 -1.1337199685492152
Ni 6.052976154922557 8.694106925049784 4.726928871203685 0.8516532395856042 1.5060714992420128 -1.5314436594582141
P 5.715702956152768 4.262721474056046 5.349026265677901 -1.130108597048873 -0.5554220461961531 1.3236429881980303
P 4.266563457298702 3.1581376030160424 13.306371304454599 0.30487138556295235 -0.33862662763652646 -0.05769504071862322
P 2.575944816915132 7.186644112884994 3.027208107099866 -0.4495316767192258 -0.44933215911391006 -1.569689333202974
Ni 1.2513366798883439 6.070862822750599 0.7871612232189686 -0.5596491969036232 0.4306101572243745 0.5759096246265436
Ni 8.176342646533557 7.468687661810235 4.72109288953224 0.17610179749500637 0.3036953629769802 1.024580753117687
Ni 2.4943779612788863 4.478447464253541 12.787573979612795 0.08672845183649579 -2.1282350126297733 0.3234406639247075
Ni 8.998736955033396 6.84866822359339 7.209775407244044 -0.7847032559276162 -1.3465294058779003 0.9411551404021792
Ni 5.84567332513592 0.3972893574285232 8.471626892577016 -0.8746317027586485 1.0240559909624685 -0.1901230514747629
Ni 6.239061381290725 8.925100463857644 0.21478328979615005 -1.984341938656828 -1.6165674858117516 0.8976479611481637
Ni 8.04649091361253 2.6453742908109206 11.496256946788401 1.1375182592493829 -1.20853341411568 1.1528752013214272
Ni 5.936156137133389 6.344090799674877 0.7372218291600933 -0.5233506195829051 0.36612380461553073 -0.2946227112517507
Ni 7.672969834938157 0.917996722870538 6.847490988823075 0.6507755206974986 -0.6550553790197751 0.6884213560747305
Ni 7.633792556884185 4.3850991350632125 10.342260243288338 0.6284837991788338 1.9503807512200346 -1.6000098385633863
Ni 1.4190880717327687 3.8270898539338902 1.6868861673521056 -0.3675782776738702 -0.6158532548990168 -1.147195891548463
Ni 3.407811758683087 1.266649857753372 7.231172789925886 -0.40732213323071137 0.3296871590550516 -0.6370728263994254
Ni 2.9644414169700237 0.598997128008337 2.6547054733895803 -0.8749842010020609 0.45769081549125046 0.10928294009824406
Ni 8.135148555423463 8.723446535798333 9.296077255291985 -0.16315475041603514 0.5017268706655423 -0.6699724053409236
Ni 8.783439879829736 0.9767398253241646 4.727115951147805 -1.0470653073734484 -0.09299345890960113 0.10357997617619581
Ni 5.552760887749863 3.3314101346747353 11.354089878033731 0.07388502021492438 -0.07488415090340006 0.024708815600589705
Ni 7.554899575571213 6.616397065654955 11.376301286618768 -0.02530479731337577 0.7478061257909508 0.19849430625759362
Ni 3.6666391428356047 7.933978297463583 4.642088572837889 1.8654872957097486 0.5066392203654952 0.18510914319993924
Ni 2.0686022601640195 0.4827018466477981 5.085474428497539 -0.16779970538721423 0.9041870478182622 0.334268864888463
Ni 1.488581426585086 8.806884190875778 0.8297734715639994 -0.5447578816140876 -0.9733803189844719 -0.4045430278236775
Ni 3.417384776311463 1.9197596314520964 11.439130945120045 -0.33616685324212425 0.2911818038910018 0.7522039977483304
Ni 7.394786520957437 4.763502543986565 12.876488970420029 -0.9385968927566998 -1.1155073021959305 1.1545147938073796
Ni 4.32241366500667 2.436711709235316 9.122614905933894 0.12724672366551634 0.12085547542719186 0.6992166469180215
Ni 6.124924363675763 6.460901691613112 5.236523687964983 -0.6440011780881425 -0.7051726073911403 -0.09601784755822172
Ni 2.1665682699262816 7.1116661216221395 8.634030535774894 -0.5438556815147924 -2.8778545374803794 4.849899918158041
P 4.943747225757822 0.01589266939925285 6.417061103732543 -0.95622874690585 -0.672408782696558 0.489687423002505
Ni 1.2570768401249963 3.101018902028432 11.120162378151015 0.008615509583152905 0.9690256415602022 0.13900566397365738
P 8.342497014464763 6.298233398738187 9.15398958144043 -0.6121449528094942 -0.21071090292844358 1.7434066896262037
Ni 4.639436600556854 8.181754276136632 1.9606963735658882 0.33537366791686757 -0.6660949246633884 1.192961527819352
P 0.45397640566701813 8.332440326736956 6.0378135535979185 1.2594224876560631 4.11729364003598 -0.924809352054304
P 7.088449956849415 1.6381815009244212 9.84364473778414 0.07694360453559007 -0.7043377701946708 0.4189787436330332
P 3.552210097990798 5.195538578841247 8.485691654034454 -1.1883322565774566 0.9778458109549933 -0.26983110612936756
Ni 3.792858787085428 5.620748477198289 5.6089195492193555 0.06624087340610528 0.02246012877572906 -0.6982244582080814
Ni 7.985356838214542 3.082630312399093 6.201178148899006 -1.1305870793471884 0.7209985186798035 -1.073025993103268
Ni 6.672238147511991 3.156358062084171 8.366297233697178 -0.6166022172498994 -0.5722272906789501 -0.1923668532036171
Ni 0.9147570457894385 2.2371932302942503 6.643134896302598 0.10806166609663324 -1.0951750183964817 -0.5731701142081935
Ni 4.534334175365241 5.540039451549714 12.09117390684474 1.9927779852393228 0.7856967301891372 1.9347548717573195
Ni 5.233876278609413 1.4434449678720773 1.7925361435996794 1.9482827310404254 0.7901108000964329 2.5805141701871492
Ni 2.6741389729507112 7.695255162915749 6.870718104616918 2.265204620010009 2.575405131095358 -4.772825187361225
Ni 8.255701046244095 0.7864849976648574 0.5238101547591242 1.8730106006699871 0.46094454654185774 0.9258380504291345
Ni 5.355259221864919 0.7430432094700464 10.838297695904053 0.1537591681337481 -0.6045493998504233 0.768172862372761
Ni 6.798850203351918 5.166481869471611 7.120767332757295 -0.08910235138531106 0.4457974064877742 -0.05984114052734855
Ni 5.702534353256919 2.0594855350822776 6.104983466802776 0.8820915014708035 0.49963527824383636 0.9038517759660305
Ni 3.9895938814920267 6.726463953753943 10.176090361410546 -0.4853175760695835 2.0863586841109614 -0.7398074238561905
Ni 4.934657878228879 6.66578617090259 7.49265488411472 -1.734692706791974 -0.441272264923911 0.9147967050133085
Ni 8.167025152731295 7.574365015610608 1.1302749665856688 0.9681509522647326 -0.22684611792740933 -0.4862568000544013
Ni 0.7515521528796723 7.521234311480576 10.404261274524929 -1.2351211919065375 0.894657511061272 0.4109895547799697
Ni -0.268164042241737 4.467450813879668 7.881866038297639 0.5534489816301824 0.18757534535224468 0.6875317543809256
Ni 8.86404852111805 2.179061559853113 8.69692681298798 1.0096441864125127 -0.3080708663368565 0.8843314465449157
Ni 9.000005448313038 3.330753073407583 3.910693599498309 0.3355132788185254 -0.12916605217541627 0.40798419229474253
Ni 0.21391177103207965 6.285749234662288 3.026406857387977 -0.46867739640974115 -1.6098137120276856 -0.5699621487938571
Ni 1.2438808596763489 0.05058641689000195 8.130152152037823 -0.8359859653619924 1.0203618299403332 -0.21548569860926756
Ni 1.853834484314455 4.6691686228955085 3.668378530023373 1.1340159025230792 1.7600792651858785 1.3372245835372067
Ni 1.226715134071988 5.141340150152093 9.919763460413582 -0.4651328735915925 0.20097902035266033 -0.9849554254165811
Ni 0.3505394482706177 5.227469931254676 12.094619828156917 -0.6830585491009205 -0.31389158678369167 -0.26108704138815036
Ni 4.699493825544786 6.06083351257559 3.2867400069443864 -1.1056368371597538 -0.24888227179184233 -0.2973100282759267
Ni 6.605309156771755 2.460913465908769 3.712721952290332 0.1922508964510431 -2.2275497857717124 0.31809611178334246
P 9.362027954812238 2.6782912351250783 0.14726476908566363 -1.0716833630324445 0.7823064735606656 -1.3196978875073528
Ni 6.578241882905442 2.088250217222068 13.10845258718203 -1.7436622572804357 0.7046506734493992 0.8286320961000826
P 0.19872544249501578 7.533636342898081 12.635321932992422 0.364664703571501 0.3801735978403775 -0.6357119414961567
Ni 2.0883962308369908 1.8684814750613978 0.3298547945466174 1.1474452885551076 0.9896412609280246 -0.20104972568959567
P 1.8705712949249802 1.558275550157922 9.830247988614975 -0.669493408821976 -0.15901630276762937 -1.055626309569582
P 5.327261111203473 7.811555007201754 11.87844302092335 0.20651100591448304 -0.7713353192611425 -0.1314921292054316
P 7.520933158399798 0.19617750491461303 2.562277942558359 0.051357528536369615 0.3202607235348291 0.590334541802622
Ni 2.0216588829663413 3.5792317426024476 8.174603259345789 0.9368503423792381 -1.7939918587729233 1.9159115137985714
