# total energy = -340893.45443920745 ev
CRYSTAL
PRIMVEC
9.05618688391827 0.00000000000000 0.00000000000000

0.00000000000000 9.05618688391827 0.00000000000000

0.00000000000000 0.00000000000000 13.25464491801596

PRIMCOORD
 96 1
Ni 6.536601727519708 2.0342550318389905 11.544000191892025 -0.018551023529309988 0.7500411857690567 -0.5560131428129328
Ni 4.541161512605125 0.3242042449930569 6.0672204676712855 0.8064810139243401 -0.12856055738093342 0.19317803625100277
Ni 2.803261139896864 1.448002774815774 4.781984539468292 -1.4435746662593718 0.8104135162095268 0.3190013972064313
Ni 3.624666345184 4.581606443166116 4.73121917835036 0.10607317491169474 -1.4268146731922136 0.46300965660100263
Ni 5.22449609287371 4.341635603487407 2.640709830531588 -1.297536006698333 1.2486045711049527 0.9373329384426116
Ni 7.440146547716871 6.349247333555141 2.561062478248159 -0.9625901703475035 -1.9900531301089923 -0.4903597664791813
Ni 4.787679975390774 4.393092857282199 11.47196184781669 1.3448119089661614 1.7324198515973972 0.012281645580830461
Ni 5.224523261434319 7.965939701196611 12.800594117881577 0.9785536356552953 0.38697905079798517 -1.5354098431948136
Ni 2.0420614649208475 6.308096020418298 0.41012481792126826 -1.4597191372297182 0.03018500822381253 -0.5574781573942333
Ni 3.022212569850526 1.3384410260636788 0.4223868949431179 -1.0300446044457356 1.2277002168521178 0.07983763825393347
Ni 0.6489953308952834 8.9383839911 4.605803668863811 0.06715155814583275 -0.09522106268853923 0.41424919936784793
Ni 8.712984556094968 2.4086196846670695 1.5652016059552587 0.30631994508402083 0.8323074880691409 -0.29490758948202117
Ni 6.753334391690244 0.5951010572137995 4.733340137315291 0.43042298091423287 0.24012560864513485 0.2027073158976767
Ni 0.7573363056573155 6.965910266087493 2.3869228721641544 0.9396680143336913 2.0877743335115655 0.055328083148343414
Ni 7.614423807841298 4.052417219610162 3.873112870154251 1.5596792572651397 -0.26723017817141076 -0.8244016029585028
Ni 7.513963526893456 3.942737740428758 12.785112566427475 0.2970758007779335 0.02216650879471021 -0.4244623924554238
Ni 7.810934006731339 8.872319107884055 6.9844029996758366 0.5987387067059171 0.51728615855638 0.8386108045793493
Ni 6.940788403710381 0.8957900073804643 0.4536823599094441 -0.579779134884279 -1.0073523050545428 0.36827504663057864
Ni 1.9265588575820956 6.641010505942828 9.091533167256943 -0.16389779922964676 -0.36191568007145414 -0.34999553159510044
Ni 0.12729919635548848 4.908734025280777 1.4295933581466336 -0.3129685607487901 -0.8528809413451183 0.13426557818551071
Ni 6.46498540175251 2.055165767321598 6.8099183528720895 -0.5386365992076982 -0.7245978059952877 0.9158927662909645
Ni 3.4798760295079796 4.13255541722194 0.31830866734074953 -0.7690794333474302 0.7559266980155562 -0.0608523554006823
Ni 6.0635427501834185 5.697835812002967 4.746673561243851 -0.42894356815522905 0.4620352085028752 0.19770394914581435
Ni 5.276016739976591 2.9608297352463184 9.291360647397429 0.24501970351264252 -0.7463182283915146 0.5127777291630653
P 0.029539470332251915 5.554983520317106 12.356708740927994 0.4054984497584114 0.4437670063213067 0.27213224345871845
P 3.8994219986300087 6.176373782395548 12.456649196749503 0.20051236512888693 -0.7453162694895616 1.188654415803566
P 2.3257827433680607 8.44856201186752 1.4491565330229996 1.4686174681606126 -1.2795459978788157 -0.06139974326372006
P 6.537362447216781 7.742958268085841 5.789721695222384 -2.5174110710790774 -0.5248169197157865 -0.04751810018562139
P 4.854768207723021 1.138860779824741 12.57657665699289 0.1975820788559694 -0.5174666499983024 0.7174560527441838
P 4.032357765693325 6.171610228101979 8.248710080022484 -0.6095823342886405 -0.6145363358598063 -0.5391245945877102
P 4.719613674876578 1.2872916826224625 3.9551066804556725 0.9007255716322229 -1.95536200648471 -1.1806819391210506
P 0.3907201263151256 5.469420666770255 3.785341212629832 0.2874578180721953 -0.968095673546765 -0.29259822462255414
Ni 1.474890593632518 0.9760124275301323 2.472468518955952 -0.5027645679014373 1.470497715902461 0.7218135583819311
Ni 2.093808516695477 6.52050888345189 4.730913984852843 -0.3367723480366071 0.26360955069968794 0.30974979670117625
Ni 5.867077832227728 5.70971752917628 9.415914007893964 -0.06416239361052176 -0.17765731490758435 -1.2101627221889868
Ni 8.647626055454873 2.6476215123506983 10.112485110891598 -0.5960485614682638 -1.1168926125792311 0.779570048466109
Ni 2.742874485848346 4.970931916703276 6.897995203894025 -1.481648333202642 0.6737784093505751 0.6078488965373015
Ni 0.4209225095262545 0.1078184327796386 9.20942026859854 0.057161022592024144 0.2565079066579002 -0.31237052215347494
Ni 1.3224478000514288 1.1130053663111656 11.40082368871622 -0.19731545545814405 0.8724503788366136 0.6816953502048066
Ni 4.006592914048449 6.883471797010761 1.5065365330307097 0.46859743510142515 0.7592886725092536 0.6543830355430988
Ni 5.51600569202904 7.812192816706255 8.19150305318399 0.7375559088178524 0.8243818054641608 -0.6883838179685758
Ni 5.551786686352029 3.040931708110617 4.757595322608954 -0.9918364688071306 0.5085176683351307 0.3759672730685138
Ni 0.7203553665740637 7.547100114650434 6.955083594684523 0.5033230115080687 -0.1231113613409041 -0.37080655480318075
Ni 5.1710645903412775 4.363234609172127 6.923299095627223 -0.2545705804258713 1.711689303918265 0.9224711908394307
Ni 8.216307043401969 7.204586071043806 9.30412443717187 -0.8661876857563534 -0.01854073911666484 -0.29269952608710886
Ni 4.526490489875881 0.3484820707538947 10.442433695216234 0.09091292223148859 0.10421760976019472 -0.2059132244294841
Ni 8.186331064862587 7.0101044580126235 4.644347705800808 0.8733520647152766 0.6866542368719788 0.9444525802065283
Ni 7.2067233311451036 6.114402295644797 7.165620015798671 0.3547983523003825 -0.031053012651062646 -0.48636812882128494
Ni 2.502749690992849 5.132657301826016 2.619767398394936 -0.48826560295431387 -0.2279540062796074 -0.17250585261363194
Ni 2.0419709030521487 5.305884044273534 11.419499357279337 1.2906331089309129 -0.6241391490568928 -0.5699531499327926
Ni 1.1324761680814588 3.271221484025398 3.934389747372081 -0.46155106977760507 0.024409796302932156 -1.6392086202500349
Ni 3.7062807012555723 2.6260858999740675 2.533400355454038 -0.4185889643937823 -0.3312946127514875 0.03376064139021283
Ni 1.0930093057024184 3.146816644993531 8.257564313925188 -1.0650110932185917 1.7503453257275663 -1.55066239847851
Ni 3.669041660846528 2.692712266775949 6.895835303325552 -0.4008138997985484 -1.3822906226379097 0.4377423973937816
Ni 4.180824893238527 6.881850739561047 6.060566887177968 0.7038438612773878 0.07191195564895357 -0.019847373743230336
Ni 0.792839275043399 7.311630199846069 11.17092151759947 -0.654617263041092 0.9611997177578802 0.6633849819313931
P 9.29418346084478 5.70689199887287 7.985127949936563 -0.10080421320327157 -0.3653781846987578 0.5099495156856508
P 8.365580171578591 1.7115468689168416 8.027795268755426 0.460901094898432 0.29399587630102914 -0.1411792745862085
P 1.7075349781334743 3.366637468886704 10.4632430014059 -0.16445521439501354 -0.629185967452181 -0.13371999009468583
P 4.20875417354531 6.219589906138729 3.5693167422725223 -0.5568006717112347 0.2270664614683315 0.3781316277096842
P 6.799194921999436 4.133714609141288 10.553878225218584 0.5643689709767958 -1.2743834798412697 -0.1983680650923745
P 6.297038416250146 8.00005435713554 10.257862267476789 -0.2991967037756783 -1.8890383435568112 0.7966758549084603
P 2.4985929012195633 8.413197602140546 5.817171903243749 -0.3923698827962533 0.5576630197115299 0.34094884801179987
P 6.9669155028300525 4.175219113566056 1.6552001798309877 1.94927132020594 -0.4694677535215205 -0.5165526228244652
Ni 5.45868908532942 3.0050058147977086 0.4733469640787531 -0.03707813579922001 -0.8814392125987851 0.0745607061257103
Ni 1.3958300822582586 1.0442055146605074 6.966946293865411 0.10800972981277529 -0.0822408483787874 -0.3110093801398902
Ni 6.881923189056007 0.8259948807928035 9.458461785046145 -0.5348419080519563 0.6838283373874094 -1.806400516849921
Ni 2.433216288205728 1.6189292457983364 9.220434403069717 1.8110693830805005 -0.38128431440605304 0.35648551019481833
Ni 6.523895897341234 2.0679983841162515 2.777776124426268 -0.21809613964892116 -0.16521189005538 -1.1828241822750338
Ni 3.9737280118975686 6.836741872762056 10.40703034388572 0.07764731547083402 1.2145870765089275 0.2342508950319127
Ni 8.296572027629924 7.107648646788356 0.33004457990545777 -0.292034124588968 -0.033255933839652405 -0.1587846463727975
Ni 7.199224808416822 3.8763106097380144 8.258133948079305 1.8195149427446922 0.010122690256298696 0.3810215476629696
Ni 2.896829662636709 8.290821348967537 12.447317701798754 -0.15140866562370053 0.03172407057615827 -1.0260298268593877
Ni -0.11174428978774185 4.9866715694831685 10.114288197697396 0.2618185202375362 0.27531886871681616 -0.22848545330304518
Ni 8.650179900152185 2.1574282294565506 5.740480490354656 0.3535793922916169 0.7698443365379128 -0.40537272281382447
Ni 3.6039639019994 2.551761774332768 11.462974487966997 -1.25154617023178 -0.9568668947104811 -0.43176175433031444
Ni 0.8634739101539 3.5412498079253174 12.72463172803551 0.9660269639431942 -1.2471999774479425 -0.32180929896887156
Ni 3.1956747731566617 8.56689920569655 8.05443675928931 -0.285085975405909 -0.13531381694436698 -0.009657577694422078
Ni 5.648769391541829 7.798418356477131 3.5019033928316463 0.31934155415466936 0.5492511414987509 0.05232606309722601
Ni 3.220995871644912 8.479443609093892 3.4993721886015083 -0.054233821642900144 -0.5403900915636952 0.28001138909647905
Ni 3.3376848394636216 4.11188014259795 9.17890816379646 -0.5297740066107457 1.275511679908442 0.3133434275897055
Ni 7.077056847541821 6.112183529861671 11.431972443455255 0.180139972120122 1.02814558765081 0.9469414080666531
Ni 0.715049346686987 -0.2173955770494125 0.18832974529045654 -0.7702222887026219 0.6913868664609576 -0.2967284447408438
Ni 4.765836452660567 0.28252767301776 1.7315202890584143 0.4661268620737456 0.5540763308015361 0.003664593335780786
Ni 5.866570685763012 5.744647241933499 0.558374596981592 0.0562217986072064 -0.14919983089783984 -1.032770745127647
Ni 7.880965499796304 8.92535213819421 11.397987290988569 1.1120208863092267 -0.3302314615942958 1.0341349724650255
Ni 0.21762107610247308 4.848999416686892 5.946815746379855 -0.42840157960882996 -0.20951096908307146 0.11390706913381672
Ni 8.069207400074124 8.60831314825262 2.5829195852586713 0.2028350997247926 1.3838199147982426 -0.25413400710908496
P 8.517914290917242 1.5026840311362524 3.552218661462144 0.2634213459482818 0.046565249354048835 0.8627663187796302
P 1.8794485734848563 3.328646764967458 1.5620600147300892 -0.8638238135098671 -1.3026710139320532 -0.25177373440702444
P 4.77959280051595 1.1761994382893537 8.218052170611799 -0.10310972140799662 -0.5713222623661773 -0.4461056817568124
P 8.676297943084988 1.6183858745861421 12.712066268753519 -0.17613830715989665 0.36483182527698454 -0.9566696910980104
P 6.483342292537805 7.869183400678559 1.250008266897756 -0.6523045557475152 -0.20774487832158417 1.218746864313572
P 1.7725221751119034 3.2113419764415947 5.928961473965841 0.6103279542054134 -0.9965647275207354 1.119275253878795
P 7.0229370748072775 4.109742882496652 5.954331475863189 1.0035293317640266 -0.21435081367387598 0.9298525709051663
P 2.380300988324881 8.694754451925851 10.20160976273438 -0.03254476670524072 -1.1736615419391594 -0.05830490638848024
