# total energy = -381165.8907042475 ev
CRYSTAL
PRIMVEC
9.21379698642654 0.00000000000000 0.00000000000000

0.00000000000000 9.21379698642654 0.00000000000000

0.00000000000000 0.00000000000000 13.48532323450483

PRIMCOORD
 96 1
Ni 4.003459297267529 2.460498422439241 2.4027067234556783 -2.172951638810858 0.7809108787647195 -1.052816865145245
Ni 3.679723325536828 5.5759043225266645 7.963056313870669 -1.303616151454142 0.11890400812777588 3.22618373711665
Ni 8.88465253906437 4.885634291955485 6.211852570068111 -0.038259557701830885 -1.4924140563595782 -0.44502376154654333
Ni 5.3636921498006425 2.912582586514224 12.15502344829752 1.8860895453411324 2.246988097001982 0.7259473780446466
Ni 3.237461069074121 0.25367149513029813 3.9534385146818964 0.21846252184940443 -0.04556097645925056 0.4132901778886882
Ni 8.094477307517666 2.2677457889975785 12.558503911766953 0.2755692941647254 0.38300695352411457 0.9305413694420748
Ni 6.367102285541438 3.8611337748596246 6.4884498349177955 -0.3522892127252836 -0.01063408267507846 -0.020711521515738525
Ni 3.157743297346718 8.219268974216225 13.582821995682023 -0.7687138224778955 1.2591769473041605 1.5974130243704876
Ni 4.845812261279822 7.598166917796412 7.5614766567243255 1.9406172440753675 -0.3727611074263903 0.8478120114626431
Ni 0.39571691810910997 8.80791082377108 12.997100919779227 -0.2937328524476296 -0.17860682330504724 -1.0131372871674358
Ni 8.210755425779318 8.737526628414441 10.686349733239155 1.2648153765368604 -0.8217597944602816 -1.3989832528022423
Ni 8.629817341371753 7.601142974230525 6.1607703580669675 0.8866222994616214 0.521744965658682 -1.348068725340562
Ni 7.520024705357657 6.35529941157209 4.372629423432466 0.00360365819085831 -0.48917808746625435 0.2064953221851992
Ni 8.33300408450322 1.6465792359986966 3.2869124390045585 0.3817270583704265 0.46989172843281657 0.4681544340267356
Ni 6.691400298889728 3.30527461506507 3.583387549522839 -1.3700935663510856 0.3895023314404711 0.711254294808846
Ni 1.0593378835893086 8.515243775556883 7.442954057511123 1.5952769518640915 1.335497830654087 -0.011415698036109373
Ni 7.132980734373722 6.097801426543688 6.745790264017331 -3.660679859658992 1.0375648240821806 0.13086555136502623
Ni 1.2726557119564874 8.550569473291842 1.7310163145544368 0.8912999074429487 -0.8324530125080695 0.0974545800047483
Ni 1.2145442942166897 0.1346034391341258 9.722028209932054 -1.5826543780040743 -0.35103400016194386 -0.6013180373973193
Ni 1.6110139795414873 5.380470474155197 1.549463972757692 -2.0581876209933845 -0.9287667940401554 -1.1130336438444572
Ni 5.027655759062072 6.8668217801562585 9.815400828827745 0.6297377261905929 -0.7835030649719281 0.15087567593836598
Ni 5.686654162582534 4.467963659711507 8.782114956283191 -0.8448002212195128 -0.9041708498683461 -0.4474387987459391
Ni 1.5700586518336386 1.8926613265321544 4.1762428684502 -0.22571097588170158 0.1472599335626496 -0.7256090208686213
Ni 4.15356126435157 0.4174983342398983 8.33941872998133 -0.8585006015247408 0.4550202106376228 1.2495412239866093
P 7.276153926106513 7.275619525879954 8.5985116232721 -0.9012871005626477 2.9573545898892357 0.2315386383070722
Ni 6.42741580076654 1.7656122795662321 5.393697801142235 -0.11482083919733774 -1.283783432998931 -0.09191616668502235
P 4.517616811796455 6.721400421953114 12.222031708429826 -1.5579545612645491 0.1448297268546022 -0.37188693235155307
Ni 5.630643490560935 1.046945326611343 2.696606577709764 2.226732432076739 -1.320437850997171 0.313960235238098
P 1.2893787535289838 7.078812821754049 4.8528691084095055 -0.7039114812905296 -0.38221685352265145 1.6758170155016883
P 7.112627456779427 8.880091709544597 4.129475477588671 0.5987399922574979 0.2770474213721487 -0.18798749318899882
P 8.160549445873793 3.015159788622543 5.283819586283478 1.0376938934608773 0.4552706360855321 0.20318631241662427
Ni 1.2433005546837754 2.9507645613221714 6.128472314029376 -0.7210203730566743 -0.12919819096493232 1.2308819570142093
Ni 4.087396988025347 2.50759013895551 7.101020836686384 0.2553583664344893 0.6569693082130363 0.1349402356550321
Ni 6.758928217173378 5.033672368509367 10.841903504013798 -0.9856259691210445 1.6919979961369245 1.0008574413588183
Ni 2.421818902592774 6.586796061439287 3.2102757609971793 1.5759718237775762 1.2623946829105097 0.5248128059507284
Ni 2.8799104623180414 7.821057881256606 9.311278982001717 -0.021526561217866152 -0.7705760724976148 -0.3592990683842135
Ni 0.2922837542585953 6.944438806165464 9.295500354622709 0.8223449775397902 1.0587373443947379 -0.4903993614678651
Ni 9.450038764966893 1.3594312521932745 1.0701889723275613 0.01732023644600243 1.0360429881210156 0.20554427112583956
Ni 3.104109784953605 2.8890781903426332 11.380777029021084 -0.7148265855411366 1.0180090134374402 -0.36884377464985507
Ni 6.155516651012071 1.73140145126944 8.331340994142979 0.3367556358660587 2.1401785581448944 -1.269409423665446
Ni 2.4205842537934816 0.7253755185576078 11.403027427419662 0.36886511480609374 -0.3865859291246245 1.249042944193952
Ni 2.6595440792384886 4.235002016119776 3.372221142757411 -0.5158519972130149 -0.3915291320625128 0.5961022975243346
Ni 5.529411502816022 7.609509101915278 4.973090731791285 2.989932266714941 -0.15143951886163595 -1.221992110723747
Ni 5.378618500956259 8.280107675870877 0.16759436070684186 1.4832799552687936 -0.553872442320846 1.115126264707428
Ni 4.3846709347443635 2.862008054728312 4.538121195661708 -0.13077967651943928 -0.8394618397257348 1.7489702997569103
Ni 8.874010603518235 0.9402034882546668 5.604931468625834 -0.4478782002762029 0.38248553380300576 1.8236449057526658
Ni 1.8567643733825983 5.193771305348866 12.523847135694895 -0.7867812215025676 0.6017996050194282 0.6185526561080509
Ni 0.5380792957050534 3.548776842435828 0.4314047180665475 0.739224554769527 0.5537785970554593 -0.6415781704689467
Ni 4.511977968026556 8.021246048885049 2.7435757507258045 -0.30943226546075747 -0.7383442090471025 -1.2030960451501924
Ni 4.6833638062028635 0.29795300355862664 6.0874101062762165 -0.05318635421499228 1.8792977192302798 -0.6980871612992687
Ni 1.315149743764946 2.8006625942381307 9.917996458530082 1.9145380304898125 1.0390061845143979 -1.2203635739813885
Ni 6.87292131377664 0.2503130661202844 12.258765274347859 -0.8831999040436338 1.224443657588033 -0.04374294941390531
Ni 6.551359798140213 7.256749669604211 11.731139031350242 0.13068094615804593 -0.3371495288703677 -0.2618012938463556
Ni 3.60499021799164 7.560639122576149 5.75803068387711 -5.726888294074324 -1.5442035302270438 -0.7274851548454117
Ni 4.591935298476209 8.88438533895109 11.121035484420835 -0.8767384646890061 -2.4551160696945975 0.8661696880342243
Ni 5.780782312833014 5.252011716246799 13.192138574879278 -1.2349975218444795 -0.727741750940908 0.06314243698643965
P 3.5120137923673656 3.306850174353718 9.257701673770363 0.25378947928547263 -0.018044516206536666 -1.2274454205288345
Ni 6.771947312347999 2.8533194441482213 10.493752812966953 -0.042347354617959326 -0.27078627095378527 -1.6134083713574794
P 1.2475941840902673 2.9868181490208916 2.3451785390665907 -0.45532025837654494 0.21539468155735805 0.00843938901660482
Ni 8.826624045497658 4.221835500193 10.528545031855053 0.829828430401029 0.12975946278504105 1.4438762566601908
P 5.570707741013227 4.655418359872627 2.289107055984727 0.4072303448478535 1.2637838499485525 -1.170755681146274
P 3.200541384456495 0.4797191054459954 1.8150977405456052 1.249470518649674 -2.1853595255569074 0.908637627390448
P 0.3851311867247349 6.75192573144605 0.10899461172553317 0.19551645457619232 -0.716772653523914 0.11884255876222112
Ni 6.474747076005059 6.878689150704674 2.291277826560198 -1.9867322932658753 -0.28695259630100256 4.227674184073777
Ni 2.988108080602241 4.438599288641785 6.128850079706773 -0.5991097168920908 -0.19751163062935018 -1.8197939074376919
Ni 3.6050362869766883 5.997546101281799 0.8213141799204815 1.7442888351208414 0.22050886285547183 -0.08561542127797513
Ni 8.800364724020184 6.504608992113302 11.443348845893246 0.7588510707512027 -0.12330882206369087 1.2665511282810444
Ni 2.0536079326965413 1.6017725411408186 8.088065426178657 -0.16521548959980578 -0.724594720671494 -1.2882759215526458
Ni 4.397828236874129 4.708093637376737 10.846393387296596 0.453764998074283 1.1043546280132208 0.47533423960462656
Ni 7.86087991193227 4.382395126882983 1.95361888616823 -0.4572966653766254 1.0481515984590917 -2.3068917153361497
Ni 8.040475243244167 4.6117910310319825 12.885644381492716 -0.17796147641156446 0.7640426422544713 -0.3951122214280808
Ni 7.8418626349043725 5.352939648690393 8.790300493546555 0.1943471168584395 -1.8299083701638743 -0.2984500554176408
Ni 6.857423707206426 9.10224556924402 6.84900690363812 -1.189033139299223 -1.6216302450466393 -0.8061506271681147
Ni 4.758557603598534 1.758895421546205 10.463370317327666 -0.022641391548599715 -0.7624506151770031 -3.2274410065625188
Ni 2.5572709324314875 1.7879925925026472 0.42595383575564466 -2.2897740818192567 0.57965752170475 -0.25713062784356366
Ni 4.396197394803423 1.1353424951218267 12.900019747587157 0.5984597420129176 -0.9469372943015949 0.9429266304803051
Ni -0.1063880285515061 4.405291412451938 3.7686889853228065 1.3741607944419236 -0.9104178592193224 1.0582285230791195
Ni 7.332846419106826 6.670678469415048 0.5477454901478664 3.793872516495298 0.3358434084644345 -3.8180676256842627
Ni 8.445670394337094 2.8624963859698225 8.313202713349803 0.2283838947281744 1.4500952409867092 -0.7598856826633043
Ni 2.2145729664549476 5.473511396358539 10.283934384704036 -0.7869758540118769 -0.08903858802691117 -1.5491498184887256
Ni 4.709623127680337 5.14101310367167 4.163971012213061 0.20871238444117607 1.2516587845502445 -0.06986895707699581
Ni 8.669031261444779 1.8614541960605047 10.421579298231045 0.03485875955039803 -3.1058458247558254 0.14892600841116288
Ni 1.2713565665781283 6.202912422829659 7.044112740836045 1.5116129978855322 0.1440072309533068 0.13374287291282125
Ni 3.504163637315153 3.709723448600215 -0.15016277814430443 0.937953859856062 1.9531503435453716 2.2843953340058465
Ni 9.693283006021382 8.848147475312176 3.97425985316428 -0.09162871735159059 -0.7696360771818487 -0.7940073069373615
Ni 8.118986007563308 8.98411547778343 1.8744327505282832 -2.053378115419883 -2.2448875057192113 0.6585217403018208
Ni 2.226209992078122 7.65806581215608 11.732675892691448 -0.8782230196543326 -1.9203847190785768 -2.13790493161937
Ni 5.678628945387138 3.0841619144277352 0.8574184435027549 1.3655280584675902 -0.6686696273691001 0.9097120914015493
P 2.571423324638294 0.8154007649996948 5.9293888806623904 -0.938943220352525 0.7450131364268459 1.6614612610006483
Ni 6.144828646480889 9.0938149449802 9.49151006530728 1.3273893426143397 -1.745420377622123 0.005208540784132965
P 4.752964828813683 5.629887959206144 6.266413911820096 2.537474417487856 0.4806188850423336 -0.6540109969156608
Ni 8.382795443543312 0.5999398074480735 8.137596956143078 1.6848423589287498 -0.31458604174755495 1.6972615585287092
P 1.2364915586936518 2.3579396479249413 12.194993821105038 -2.2236293676713834 -0.0392957122758291 -0.07598509727706268
P 0.7155259695543029 4.649641309147582 8.67931570166694 0.543291067260574 0.4166277269023535 -0.6789537829039275
P 6.98593774789688 1.1854010542751992 0.6682048294924943 -0.22559964711481792 0.34759797789720137 0.812139240651382
Ni 9.147430029779294 6.620214503193251 2.7730405521829318 0.09581987261480272 0.7395600837320747 -0.7502484166838563
