# total energy = -340860.1779698571 ev
CRYSTAL
PRIMVEC
9.35030832418786 0.00000000000000 0.00000000000000
0.00000000000000 9.35030832418786 0.00000000000000
0.00000000000000 0.00000000000000 13.68512137609794
PRIMCOORD
 96 1
Ni 5.112982349764253 1.8919413864605656 13.251562713132605 0.08836753010181554 -0.872961257034761 0.49954194719908157
Ni 5.501104298022589 2.500122841145458 10.953078335982815 -0.9917372242251049 1.4530556091666136 0.8024420679682761
Ni 3.817618685357376 3.9805197569938096 7.502156302388095 0.6229978363635981 0.045850739785527485 0.04879053914014178
Ni 5.700284565959639 4.935485446832648 12.544302586344557 -0.15469299280192714 0.06824710520285666 0.4917828720789531
Ni 7.514104126365654 6.595211926044285 2.315741306194228 0.49881535344570227 -0.02014150794488144 0.47892195695588485
Ni 2.7729087362161335 8.192525097187206 11.475452946200917 -1.047470256121351 0.8019646141112253 0.7096165020951068
Ni 3.771820875182009 3.8504569681944303 13.598631197659628 -0.5136164230142768 -0.5394536957923548 -0.8310646168009752
Ni 3.248156857445901 2.93409870142911 9.54156794665651 1.0065272380500858 0.6553855086656841 1.7616908326473721
Ni 7.987772045488513 0.17747446219162508 13.445892041110696 -0.6254822933483486 -1.3659805726239764 0.2614197421372208
Ni 5.27074075182199 2.1270642395985386 3.8400173489496776 -1.6447766012561158 -0.9375733365881918 -1.3522735074505292
Ni 1.9266777818875747 3.7748316744626274 2.077483294674916 -1.7570026831430838 2.9620131717071696 -0.4203072326364697
Ni 1.2759711249410308 2.8042416194128785 5.33703350281471 0.7749585178360267 0.1793915239898717 -1.528234408492297
Ni 2.928208007184422 7.640604447693247 5.094970850837995 0.7952815456640948 1.9776573275478007 0.3877033305585194
Ni 3.462278918086145 7.428904116909152 1.9765008997968123 -0.4716907293147683 0.7817940527006213 0.9930520863817864
Ni 3.29763868910128 6.264491520592521 12.5562354498288 -0.5333768934706555 -1.8652024174794781 0.20125001462585987
Ni 7.9599548782219305 0.6949719515874601 6.216862920047137 0.606220359794943 -2.567322354087224 -0.82955872167941
Ni 0.20347673461234358 7.742448005968073 12.179511527418516 -0.2964682491009217 -1.6585600281934534 0.0435485740149121
Ni 4.439984557771144 7.57279601172106 9.978602292793235 1.107128591213932 0.7294636187280211 -0.41789913741560936
Ni 5.248645973250248 3.8652772068893992 5.466357617256422 0.31651025535346133 1.5587508319135994 -0.7996454790597454
Ni 2.9653941833925552 2.101014280605363 11.704268081342912 1.5803858936848716 -0.6522333361899476 -1.251820506939089
Ni 0.19585436326588393 2.1302900959706297 2.19929443637757 2.2636809842766303 -1.9821896682005153 -0.5087884054980141
Ni 8.467648569339106 9.272728816729774 2.0447076589036386 -1.0380317364162703 -0.8602047287000412 0.4303905850144007
Ni 7.75318215992506 8.395464189070868 4.197199126960914 0.11012189105977163 0.288093137663349 0.7961667764825257
Ni 7.754220044149124 6.190035015401329 5.263913156683148 -3.242858112448537 0.43906420152899867 -0.8749690314934093
P 6.501278728612324 7.437656005501259 9.017729078154726 -1.4292001427052545 -2.3128157941300684 -1.3693782854516159
P 0.94577433675546 1.9823121164207387 10.177830247302744 -0.04575123809318572 -0.8315179022883099 -0.5872715866065822
P 6.3878127370896465 0.8209561358955176 1.24616047193958 1.131955934670257 0.7321468219871391 0.1990157259787024
P 3.7003938698880865 6.7166630808764305 8.072715856496913 -0.5603865892902801 0.4982558813978064 1.1130662968546055
P 3.933412903652956 4.330922561469493 11.452243610876847 -1.7907769513800513 -1.702384224467255 0.4741422761790544
P 1.1807195340352594 6.573238701480767 4.219752070640577 -0.41161227596563305 -2.870283152891025 0.9824550275922306
P 7.388435982478978 4.184627637418084 6.0574728891867045 -0.4365578901673771 0.38726958545521045 1.2354400086985369
P 4.775090257827288 6.600803410422577 4.439028956260339 2.885029972182896 2.0204075740311334 -1.0287418264739123
Ni 2.3513220344629757 5.2657757381014685 9.086495920730213 -0.5427984438948716 -0.6970962581409091 -0.3760858009242491
Ni 7.830135197439 2.0456043534719965 9.300299135856578 -1.0060225304995254 -0.8392936895789868 0.3731436875767896
Ni 2.499533771720989 0.3736317754472358 9.692939153097507 0.8621613382057797 2.4228250708713754 0.02091669554800914
Ni 0.7660212044250565 6.908260248761987 2.143705918355198 0.7330068559945891 -0.13840402583391648 0.5492184884886024
Ni 2.1163300856415517 1.9123718101504756 0.02063706550389006 -1.7133150124471461 4.228240855210524 2.916119751609165
Ni 7.844796480892444 5.509510225206675 13.627302048076272 -0.4431072612501208 0.014058020754962887 1.2038768891802751
Ni 8.838977363845919 5.175171250433173 11.58808208512852 2.46915814960996 1.0812992888556539 0.1021931231309982
Ni 5.555205181990468 8.604808242157088 3.195051781314623 -0.15232423545943444 -1.2009023799329834 0.09021615327478011
Ni 1.0160793050503942 5.467461888669593 0.2246411575057581 0.19389717380521446 -0.45528786247671266 -0.5360834937685413
Ni 4.780971601763651 5.203381130649401 9.797534507112353 0.7289486267648155 -0.44824201137352476 -1.1000822258901117
Ni 6.059065246694434 7.996084469589351 0.6397106943564598 0.7598705131546526 0.983813598502654 -0.37627760522008097
Ni 2.103866124644458 5.739939223565547 6.084952510322757 -1.853057811697144 -1.201341781463247 1.936185176445943
Ni 9.096849517138377 1.6503294193451115 12.221319561031649 2.296100024037284 0.15815832564270826 -1.542508659023124
Ni 9.310438610204102 6.3680648859074545 9.1379665629663 -1.2797519432420348 0.18243288191935678 0.6073436747661088
Ni 9.17157718127099 3.872598498307797 9.284451298276704 1.2544258057724202 0.12111155730205594 -0.4157304118990647
Ni 1.3057051054142175 0.020492135724854088 13.368939938627591 -1.8407671672552492 -2.821609341834405 -0.861608036805471
Ni 7.125935426565693 9.031172951464269 10.171315887492785 0.7571191756617606 0.9041523379255847 0.7435198397107711
Ni 8.765222131779096 4.110619947026489 2.26383400455937 -0.6634590297024381 2.4766701417162897 -1.2515245729652251
Ni 7.174500928005232 2.3492369157065225 4.997026371134652 0.8634348056015645 1.040418234370576 1.4888764755199648
Ni 6.421511248292591 0.32528694128416513 7.8356621646898486 1.6108030725241482 -0.5445444800517009 0.31039180116054926
Ni 6.251943406820502 7.777277904478331 6.425492609577334 -0.1827406429677627 -0.14593247300047774 -0.7142876823185311
Ni 5.338025570527981 6.065040093714046 1.4545919349332888 0.4972045573151566 -1.6830760110569467 0.08513976719313725
Ni 0.40256349946614595 8.954042258092157 10.231762825720777 -1.5902334759029129 1.3832398739250564 0.13294223138839684
Ni 7.5049501745155744 3.222705318185519 12.4398708627254 -0.22325454392140906 0.08739899554095916 1.7111961663319306
P 1.6939205567558022 8.812562742828073 6.905074598715694 0.9307020633896552 0.3863992670351152 -0.06273080337031778
P 1.4682602156426299 6.331084416482469 10.806264469819373 -0.704682040907967 0.057161279702340265 1.237671212021901
P 6.8653236329340395 1.1472267296154623 11.816390433559304 1.6908679962975395 -0.15522623959757784 0.3763989612892936
P 8.519935493491957 8.381055363942194 8.43624742889159 0.27806892065812755 0.9844736006841561 0.34975359078762347
P 5.138985557215804 7.298831977801447 12.391576520227282 0.9739559889822841 0.39702615062134206 -0.46050951588696815
P 1.344303178179411 3.8328409873103158 7.221296416078866 2.0825097426785164 0.04073861536994275 0.9567360255595715
P 6.672828835449292 4.389464841891701 2.844192681792685 -0.6545748398389307 0.7096542973115778 -0.19603478897350754
P 5.679844791961406 3.0285181148939655 9.01739994730169 0.18159341673719692 0.595519428437671 -3.1286332549639857
Ni 1.0095808407645877 8.568744102947942 4.02409593391118 -1.253315346317061 2.29004816141625 0.9160568026726545
Ni 4.997982907676289 0.26775916931520877 11.338314779092086 -1.843408718643154 -1.7611177337527217 0.45116664121948746
Ni 1.5067647853245743 3.8002271118730597 11.162392468082395 -0.09008502701355453 1.5698004048595415 0.840905514150797
Ni 2.903392288890134 1.894858682657935 2.168434678782065 -0.24660376017031077 0.6281516126503957 2.1891130790620688
Ni 4.6699273400971215 0.8201884755820432 8.95082201190506 -0.8667556424446814 1.7287537155997197 1.4400275723380618
Ni 4.289220186340432 0.43295948176873567 1.5274233565376116 2.122326874675455 -1.495342542860283 -3.4384367877212334
Ni 5.043631112918458 1.8258534072201622 6.430569826997755 0.48164012721799626 0.19463456619187125 1.4801226405867347
Ni 4.518312090608843 5.884878352909845 6.380742968965188 0.8655122569558837 0.8753312999288344 -0.0922817775545572
Ni 6.427308439454029 3.3395093697801888 0.9309410076288362 -0.2222577272257785 0.8649903230141427 -0.41634104889987006
Ni 2.5064436495730913 2.0462214738214404 7.686234887349597 -0.6988734046459899 -2.318727788739129 -1.8589325253103663
Ni 6.536800549938627 5.239688377874993 8.0124063678013 0.3679433743227728 -0.0758665694213274 -0.2971256801792625
Ni 4.2370454658874825 3.987794296870583 2.216524249527866 1.6660447666062728 -0.3443632730099876 1.000407241195277
Ni 7.19983091325739 4.268780412342197 10.548245516686215 -1.8290552781349596 -1.0205122394752681 -3.2545304065801437
Ni 7.3581222828896475 2.1919647296816795 2.7952952444076127 -0.0758269744326436 -0.8955293721432642 -1.2190957630125585
Ni 1.394196423401085 0.05119200304800313 1.9691655829159271 1.4338160442107113 -0.13264475475263607 -0.635100533164403
Ni 8.958315348996637 4.605615919438448 4.600404057578149 2.3857739316553492 -1.5625534934891412 -1.2876567999114081
Ni 1.882815485535462 7.701727413213126 9.03037350010249 1.1731655761393474 -0.8877528135216387 -1.7834135690364445
Ni 4.14227074070628 9.077139067189485 6.989922101548347 -1.222723589573133 -1.2644482230054288 -0.3958136183704796
Ni 3.2203022889460198 5.3921358048041865 4.118496646759386 -1.5154665673036674 -0.8761054590906977 -1.5524909670468166
Ni 9.319321403112758 2.103744570636234 7.203012823180354 0.13830838079631663 0.6772468275151498 1.2983513035107768
Ni 8.787214056959264 7.555105228370347 6.45854220938253 2.227904855118286 2.060440164472987 1.2498142751423378
Ni 6.776682710013974 6.400921869361158 11.047848386009854 -0.17006047639693292 2.3382373195269666 -0.3430733505539704
Ni 3.2598447428520276 1.2851437774077594 5.068708639845844 -1.1913638443149288 -0.80619279325996 0.042653573004468474
Ni 9.104058604856876 5.10803603666038 7.1401983868844985 -1.3129474561573968 0.5975112620567194 -0.6141249593540004
P 3.2422661632012133 5.570118923768686 1.0070179212527322 -1.550640286991323 0.03766126199619966 0.682713764166992
P 0.2354454387751818 3.3293736355559957 13.617489834520121 -0.4163276791634314 0.7758288362561219 0.511595535929506
P 9.197664541497465 1.3909518664123444 4.327960383792164 -0.3339618751710055 -0.45625845392009806 -0.2193328402694997
P 3.432479485454684 3.3026130531301274 4.230590948050803 -0.9810954282405426 -1.070562362054124 -0.4642353014779876
P 5.8364250551702055 0.328298675595616 5.070050409090468 0.9206824743701241 -0.4358343817377913 1.2389801606413113
P 8.847822755521277 7.397281374154335 0.5564667694015268 -1.0557067850985302 0.6372137228526639 -0.5908312789333824
P 3.324586277693646 9.377517722126944 3.275958129188331 -1.654164470228919 -1.1997271286779596 1.8677724921994994
P 3.366550461455804 0.39463817812995944 13.133733867745526 1.6372900630710834 -1.136132948866082 -1.027089892692786
