# total energy = -381160.2312536919 ev
CRYSTAL
PRIMVEC
9.32693122686078 0.00000000000000 0.00000000000000

0.00000000000000 9.32693122686078 0.00000000000000

0.00000000000000 0.00000000000000 13.65090663117546

PRIMCOORD
 96 1
Ni 7.052857634277657 8.316498280133867 5.584736142650704 0.6662610179276075 -0.29966850120577426 -1.639690187872144
Ni 3.4523450010878416 2.5850709586206286 3.754040452763085 1.052413201948923 -0.20419701306932572 -0.19105070549535486
Ni 1.4503937931291428 1.6263556807809014 2.7056784411507704 -1.828584509146128 2.1484428550362162 -1.1395226912739214
Ni 6.4502539239367005 0.4281770355964106 12.725553268812037 0.8157277293335887 -0.5381051521842604 0.5476948527552244
Ni 2.006586692860794 4.989171467431701 0.7061065333903097 -0.8531411369850403 1.1716941338001432 1.276069866404757
Ni 8.460767254913756 7.051244075146747 8.909537222331767 0.9336691164377791 0.26679180508241146 0.43716389918249227
Ni 8.343462438789714 5.882523610072472 6.693135611636833 0.7537186346206438 0.3307207425258885 1.1657862529561407
Ni 5.036123240061774 5.405917415913408 11.545309380002273 -0.354875228284905 -0.6485312047480122 1.9694105141579756
Ni 8.755862037242496 1.395728648237435 0.7161758885217016 0.15871368392554602 -1.1487953748250987 1.2491478452029325
Ni 2.27773924230487 5.552546104335613 9.46735394081886 -3.1591057125212303 -3.2218591415993676 1.545293677967429
Ni 6.7988852924586505 1.3581131339313 6.52021896708474 -0.6399624892423946 0.27939355300682206 -0.4088758508710764
Ni 8.720018639900944 5.41204520983831 0.6768460842256167 -0.6115685114807339 0.9888971836731486 0.09503722881250729
Ni 6.986002190055893 8.843656442440524 1.506882353108093 2.2632318125543534 1.161044367395781 -0.6910094285168809
Ni 4.303987106541149 4.765325114010615 6.725788265748994 -1.4768254578927016 0.5710242715097843 0.7050916176415598
Ni 1.1269078316414955 2.259225283490667 7.397985807368567 -1.5657054088545614 -1.653690615916294 0.5764462138563039
Ni 0.7174713992921261 5.949705496892975 2.757756295274186 -0.4558239374858408 1.0567151717583865 -0.9022461220418073
Ni 7.673452995274833 6.490975306396553 12.213807860631562 0.3108512572954711 -0.4152298181135623 -0.6706681458563676
Ni 7.08679833761513 1.5782193878639754 10.569979106579867 0.1953303067073152 1.2720792571881254 0.376413616577313
Ni 2.74502783200278 0.11431087114703466 1.7871771607031417 -0.43504248196411527 -0.373216449796254 -0.0871269728264951
Ni 8.414626925314835 3.336858936585346 6.476318033713169 0.2943496600960221 0.5348390798384789 1.093334365643317
Ni 5.833482604810468 4.769317040646625 2.3857413770579865 1.0701769536902475 0.7948485718917343 1.4120565410464325
Ni 3.143595591200416 9.149393253488158 9.127610205220869 -0.8920712383913345 0.5857746903460815 -0.5680577326822926
Ni 0.3699984356491311 7.498255915997263 11.343685373317065 -0.15646782531416278 -0.15496013042038473 -1.2404117508815153
Ni 1.865927240529819 3.204118049006642 5.494886081773759 1.4240705347881732 0.12427812795549564 0.14203982281429084
P 3.3319343168100826 4.182615748329957 10.669589801159109 -0.632257150178337 -0.6426037835199836 0.04526555670601882
Ni 2.002977170411879 7.384010333369977 13.034090957356854 -4.26369816757687 1.498318080548839 0.5870252749237309
P 4.9318108393675475 3.1694125372949813 5.195617497646855 1.4245132787525467 -0.6955808499376472 1.2629556976203022
Ni 1.6429109840026694 1.383342483348135 13.38141095932501 0.76330422142655 0.18679038755710412 0.18522612839377778
P 6.054773379029998 0.9962748305575067 8.663739003185187 -0.4986893693907992 0.6981624946218943 0.20012284299995212
P 0.08716670271531021 3.635096894793373 2.60976680756181 0.05906621003453698 0.025375759760627267 -0.9509317601729689
P 6.620395806399511 4.610376802786261 13.082196471400183 1.232066978461246 0.588746885600528 -0.22012731114633705
Ni 2.2793434745043872 6.463414224131583 4.478480002498582 -0.6596244864476962 0.17509212528356943 0.9401274704686132
Ni 4.663456369341236 8.865472134967687 7.297952602797241 0.9760259841374352 -0.17453111057377685 -1.2392704381882205
Ni 3.1460485741566555 6.796301732462915 10.880400835265975 0.9590435906468256 2.6237740093170494 2.3163662304854884
Ni 4.623994122619377 8.41236980791784 1.087909133409846 -0.1396749221265401 -2.097282273002001 -2.3957259006617386
Ni 2.3038359963412116 8.980016179399536 6.846639181188482 -1.4344721897374715 -1.3571143804825982 -0.389887996914664
Ni 2.108091687205864 0.9784790454605303 4.737437589146905 0.07805920619727201 -1.6226453165747152 1.3690478986953907
Ni 6.402052342500028 6.605444735377261 10.13736804779944 1.9748545679916825 -0.6596468550451995 0.09713293499927142
Ni 7.076995732721564 5.008692734836298 8.603634391905347 0.7701011897437254 -0.3551958448491173 -1.3959120700760863
Ni 0.4996651666408523 4.870309053765105 5.160069764030448 -0.5291692831472113 1.3650146091662814 -0.510861743087275
Ni 7.353408671471036 3.376684933631515 1.4909790023906642 0.820089348736394 -0.3334463689871677 -0.16556335985752776
Ni 0.43126704796676085 0.13668524686461148 9.297891991654566 -0.6902753785643337 0.5774923957326312 -0.04006884299642777
Ni 4.822881607634012 2.9570196556239408 11.552517232582431 1.915626635568301 -0.30849792657194613 -0.591456314111891
Ni 8.851239237662664 4.955902303154493 10.234999567537184 1.0200921212187142 0.8166854652611677 0.84157940028937
Ni 8.844346635363573 0.41919893143794656 7.034503165990268 1.6397189842275504 0.9774169509476909 -0.5567394794559961
Ni 2.5654657488334984 3.685201170234127 8.258075314584103 0.8693030914568836 0.835029257875678 -0.993824702881753
Ni 1.8105625757836703 2.124852182918268 9.824913048069755 -0.14508760850167915 1.9134995619229693 -1.1879417060072575
Ni 3.386235711377481 1.4417663815910382 6.958345040397579 0.8691349413101356 3.4652639352164067 0.844612530688739
Ni 4.982801173290593 0.7466852137998564 2.4929283380073954 0.43260918993227426 1.4284041291665206 1.444875901569299
Ni 2.124068720681294 0.4739097782934778 11.082734621430156 1.005895518003358 -2.042869245468759 2.290035048790127
Ni 4.558257910164718 0.9488380574950216 5.0277112806388375 1.1762807247295612 0.021728392816027096 0.25241676730766205
Ni 4.315515193742335 5.100320508836663 4.485578729981448 -0.474519457012815 -0.04776055521373065 -1.5404497196115665
Ni 9.217144083123607 1.83778788851851 5.096429313059693 0.40207913966421716 0.12865620241853326 0.2505293204769621
Ni 5.885349670284412 6.5343828450974595 7.221698409811208 0.6719418703624686 0.5493740402298602 0.47213758704419984
Ni 2.0758205045876577 4.338683291321417 3.3324734134445717 0.3880956809009316 -1.45197600294919 -0.1076690586439049
Ni 7.636891424216056 2.5649900753324784 12.803376251658296 -1.5805918390480906 1.2208376854043297 -0.9294962160070122
P 4.30886509165945 6.942585324423595 5.916958640773749 -1.3377781420478316 -0.06305347681705915 -0.44553746795816823
Ni 4.834251137001524 3.948976116946699 0.44903018880386336 0.3623964763626146 0.19684057270425454 0.36862831620493935
P 1.4248286741821763 7.622192180341404 9.369272862987994 -0.26126239062375006 0.21082505990880465 0.28413209613307194
Ni 3.687150498895168 6.365332213607576 13.433556900047591 3.956835719725818 -1.9586900424166782 0.6101844866490137
P 9.350528528968395 7.525844979056412 4.521166569402844 -0.05811773007833862 -0.20294360027819885 -0.13116791309679346
P 3.2305132648475454 2.6760924820804775 1.6457398422940284 -0.05230755115446476 -0.21636424455947895 -1.4755576469238718
P 0.20299506559991198 4.21043798467392 8.421653835425978 0.5729978502963874 -0.6172177393467112 -1.494073189229556
Ni 4.4544864714912595 1.7067724832474267 13.318902797825311 -1.2053827843018403 -2.1537208156057037 1.7476119859568031
Ni 7.83903400828669 4.127111179612921 4.023550529588934 1.254687544074239 -0.012997440700932453 -2.7491613111763233
Ni 7.099725464525197 8.623951246557729 7.766847290080946 -0.7760293823027021 -0.6556536747254063 2.480658436940076
Ni 5.712017977285352 3.2716730130828475 7.555503688191568 0.755600167914073 -1.054972735145983 0.12475815291570772
Ni 6.82002944592555 4.071504014650566 10.691717945887923 -0.15797397754604403 -0.8141860958780817 1.1565449368635308
Ni 9.026007278096177 8.32131097673242 13.640791988658554 -1.0045189493708053 -0.5849002581609282 -0.4980568780131229
Ni 7.910776764558147 2.6955950956222896 8.702439239612275 0.4305389376668069 -0.4964846484299965 0.13607897724516566
Ni 8.00081896022178 6.876196226771458 2.814612336350003 -0.5765593423954006 0.9371005107168312 -0.5024835463259089
Ni 2.4316802449388293 6.692894044113766 7.796401537584504 1.6895315368743031 1.7143853626931893 -4.47596535924884
Ni 6.40173522683268 6.729054557122664 0.41082521243371944 -0.5495550458924149 -0.7498370401780505 1.1181719935122874
Ni 6.7616801631337875 2.1159542903697797 4.050824342367014 -0.8029483181807332 -0.15742710390363857 0.4541781743523016
Ni 3.009157202108269 3.7470667061608793 12.773685830956406 -0.8395644267418703 -1.4850792132610617 -0.03690432922551709
Ni 3.7750661542013004 5.502162020953082 2.097297629505271 -0.44622832337760565 1.550926450773174 0.3836309602613587
Ni 0.44240340404945994 3.577577708895547 0.001732011159595654 -0.2118226479353836 -1.185003706424856 1.3003639630654316
Ni 0.40664115101102366 8.683083991586466 2.1219925457533133 1.0894273172794269 -1.3573534930765978 0.09038738874532175
Ni 7.298836795893253 8.673076194202263 10.69369712072942 1.647814102530859 -0.9758411218201387 -0.11443620216440936
Ni 0.3903274153123227 7.621156890956832 6.762795664128336 -0.014324387042472103 0.23531327485815606 -0.713143798522075
Ni 5.294759047577054 7.726346023201958 11.976678091521213 0.6494976824263395 -1.2359933100988456 1.1062305048796948
Ni 0.2672753440641946 2.9443909905184347 11.584992674998135 0.09307624843139455 -0.9983621857407904 -1.8961435871430246
Ni 4.755028181753245 7.565848187799039 9.201721069372894 -0.623889494939932 -0.007950108085012115 -0.015455672433437897
Ni 3.753063923046286 8.192487400338583 4.22506447848371 1.1960939028007465 0.5859888632394167 -1.1201833675153612
Ni 5.170347109731893 0.23026421491229657 10.77373245170199 -2.139745327262218 1.7544971431124106 -1.5288429886105734
Ni 6.361256344589035 6.25391269119223 4.213488823932422 -0.8629054154606559 1.3685868998985722 0.034191815390360474
Ni 4.759318570193816 5.076760680139094 9.231657721063547 -0.4981067574144519 -0.5272247578263307 -1.2056195829029948
Ni 4.3112994207529045 2.5008301142831595 9.330544645766729 0.018211637912020247 -1.4454538855599557 -0.4240152776156762
P 0.2071110404234422 0.3113646814498953 12.032168669841159 -1.0206371950889066 0.5945141271016084 -0.007525361842767684
Ni 1.4091780833054852 5.120214853496962 11.956583217835973 -0.6827243056899532 0.8852917535756559 -0.5971770186457521
P 2.3576896982017677 7.295740254670928 1.9111274154443718 0.10217769651203047 -0.3200038703290166 -0.11213275084221334
Ni 6.8220906977633025 4.736141145683341 5.748492807882178 -3.9762418921665708 -1.2208963065564071 1.7395965718514945
P 3.5377983465063414 8.714385173339847 12.62165591656478 0.5713384603160935 1.6864680674576311 -0.23063540976651248
P 5.817048551696804 7.8964692518019834 2.8532304957808363 -1.0333271318517494 -1.0967179374035692 1.6678419677160115
P 6.346398542880709 1.5363881005684101 0.9268880571558055 0.22399296474933034 0.45427510494148216 0.1950793670387737
Ni 8.594636701190959 0.7549535384793478 3.3422331144537307 -1.3914494063190421 -0.5154869005641123 -0.459907363526595
