# total energy = -340896.5452785302 ev
CRYSTAL
PRIMVEC
8.98767697273946 0.00000000000000 0.00000000000000

0.00000000000000 8.98767697273946 0.00000000000000

0.00000000000000 0.00000000000000 13.15437373792163

PRIMCOORD
 96 1
Ni 6.363140460223806 2.137575157972088 11.474468288201969 -0.3738895646038787 -0.6348984444559259 0.6708355246721672
Ni 4.606606853911215 0.16577859997439795 5.999748908544235 0.0916189471595777 0.242651203280466 -0.4284280619713912
Ni 2.5957938915378986 1.4512761466333028 4.657292858029144 1.0915402498573716 0.8035466138863646 0.07138410816994158
Ni 3.3425530056697172 4.363921601106476 4.895255086600534 0.6092488622086217 -0.5563011063669967 -0.5440585415542178
Ni 5.043569731507719 4.484104817183247 2.7573536759554287 0.2660574980195482 0.6805352684584345 0.25676167453991905
Ni 7.164769342090346 6.15868878513299 2.5285202308546624 1.246135797849486 -1.9353146009155315 0.477232485068604
Ni 4.905177481945191 4.500552265988249 11.570034257132894 0.5282863663216256 0.13655925931569382 -0.2582416015195553
Ni 5.576071615004318 7.922996732000953 12.39097316291066 -0.4302363188247236 -0.062102425757699496 0.11889115261196943
Ni 1.797139930739368 6.546614897330538 0.31949843379487697 0.4575362921912572 0.564541234888602 -0.29318777857743705
Ni 2.713235866147169 1.5234202294517476 0.3043658821265806 -0.14277438698747028 -0.323165812996766 0.9650915966131186
Ni 0.6036447391036359 9.0026863631184 4.485154577850145 -0.29827264929951214 -0.8518769255606361 1.1155852066217173
Ni 8.493579402703451 2.2665842728065164 1.3719751766654467 0.5376582944548288 0.4470932424810623 0.8103641510288302
Ni 6.8671873585200585 0.660762324841707 4.891164794823945 -1.002986571886679 0.49964299155332015 -1.2071095371849598
Ni 0.7093452125550622 7.239699604761004 2.396714150955689 0.47266723429542473 -0.24603451793040207 0.12369397331725147
Ni 7.582022244151674 3.6574991810931543 3.9199905775763546 0.10961872617110799 0.5470932146154835 -0.7965329015726927
Ni 7.640253403062937 3.8123838178453977 12.733262547896643 -0.04555557714261187 0.7338794884075296 -0.4213752688896678
Ni 7.895386588433211 8.873290778175438 6.873791503537498 1.10025834645666 -0.40672615151792535 1.0467637169726294
Ni 6.831146773980135 0.6722422846005209 0.5748302468255827 -0.6188318779113665 0.3514674881549366 -1.2037575899935913
Ni 1.8873941825972003 6.444496911908441 9.016178663744666 0.41715300327820415 0.443393682142288 0.673184227410002
Ni 9.336848191845169 4.797514099849496 1.2996576316820094 -1.0533735089796632 0.31172954613536635 0.23862074196483418
Ni 6.420239171840298 2.012250990684136 6.998955690175872 -0.4704627704449381 0.11504298251047285 -0.11823526419552541
Ni 3.252667248566532 4.501163428020347 0.40451556629824226 0.29051177440717063 -0.500724397542957 0.039444064928235295
Ni 6.147723819262989 5.570705971869573 4.7635406810063765 -0.41562525377976806 -0.10020823149048548 -0.03667550104416264
Ni 5.486239783962789 2.7179903472498173 9.3434064997102 -0.7755526997765998 1.1008471290805946 -0.5039133367938998
P 0.02305878396399669 5.7318100810661115 12.390591186640599 0.6836285626717775 -0.7025241140246997 -0.35699047485569485
P 3.8967241782749835 6.320215315145833 12.498325571384141 -0.15668765463445275 -0.8050638218618393 0.7111121128040269
P 2.465265859300167 8.413966560345685 1.4492170698457476 -0.697657787071334 0.43297120125738336 -0.5415046647841125
P 6.431464780341636 7.731406422615032 5.815680385991597 -0.9613249304818348 -0.30366630951125767 -0.8966220909868107
P 4.719986398542419 1.0347242833734982 12.592063446824934 0.4732866130469785 0.9005715625528619 -0.0013611420135847525
P 3.985684204653078 6.148011424925153 8.339438945602057 -0.6436314534535497 -0.7254951209985763 -1.7154045479863234
P 4.750751216717021 1.1695394375128614 3.9081385279921164 -0.5851303718938633 -0.8486692172566158 -0.36639711288157545
P 9.199965872009 5.35948657604096 3.5061934372994643 0.47125518443924647 0.31361725007638247 0.003812688877870853
Ni 1.3989768545041725 1.0345445298346458 2.4997255114658823 0.2781352551196887 0.44716960424495245 -0.669561285945434
Ni 1.763319302404273 6.567834802592073 4.695085140805184 0.7502250196450886 -0.42125879791646165 -0.38642266407388287
Ni 5.9967937603655015 5.480649448904478 8.972874238699715 0.11651699595283804 -0.271773574567719 1.5600806064686163
Ni 8.418909782664128 2.3624378473996033 10.065503428311459 1.1468891589413217 0.29651684295067 1.248028901107141
Ni 2.136092191276555 5.101468346372104 6.80717753834185 1.420449135985502 0.8417151545362858 1.1720615444418911
Ni 0.37170335531610976 9.08833892438161 9.272544059623774 -0.45981686069531774 0.129371483318003 -1.3199830228479397
Ni 1.3180428236358415 0.9738597351180471 11.382598052029852 0.24073418876341118 0.8646622502507625 -0.5940145617573706
Ni 4.001286811825474 6.822383788961076 1.7509127131526747 0.8003214220808476 0.35748926886898436 -0.7944767903746124
Ni 5.68848049052572 7.626996579572566 7.989427348586971 -0.4323456518582425 1.1764427042287222 -0.005649484976293496
Ni 5.380023417854857 2.983764942120158 4.896439662421572 -0.4488441637338979 0.15347608967569049 0.005441996951177724
Ni 0.842586624461772 7.328111382845599 6.750285543295039 -0.49936788351506256 0.4556141354678799 0.6346012249304812
Ni 4.90781087128938 4.416616351021082 7.087826738552234 0.6270421816363008 0.2792539421051642 -0.32882429683412406
Ni 8.055555979227718 6.934900516605788 9.061259053753481 -0.08937180299661382 1.1629999484602551 0.44844255742010514
Ni 4.682912231154094 0.4428435146200632 10.38273427121371 -1.1686126666613423 -0.22261408212393274 0.32738267929159104
Ni 8.194118994652154 7.037297120013106 4.545125751017499 -0.10356634932944098 0.3795701599284237 0.6382894724153458
Ni 7.295549029282471 6.118415004753092 6.8375118467909015 0.8007433401096145 -1.373561213184712 0.700171040411491
Ni 2.4616618008461746 5.223152504498294 2.5939505189969663 -0.8786745053694544 -0.5849547655479475 0.7750677897203813
Ni 2.223578238636059 5.2482820492298705 11.329191478101391 0.043966892499253306 0.08603399687263248 0.0007988417522115274
Ni 1.0451679639808276 3.197491899815762 3.6678475923248923 0.36698281018171636 0.6534749219065326 -0.3632765649747227
Ni 3.666450907328009 2.6912250453146824 2.535031802799593 -1.2549263995579225 -0.6352568562366091 0.13556912748828265
Ni 1.0607346204454529 3.247894792109999 8.006698967367612 -0.4152989807886009 0.3616737392639771 0.05097391994470576
Ni 3.7433225082182733 2.435291956696515 6.8640964964194895 -0.05014551050613944 -0.15634158414894364 -0.881364907717424
Ni 4.337228200586882 6.633220152349664 6.0758475692174345 -0.5099847397989604 0.4198634602308317 0.28240122948489427
Ni 0.7008599467535307 7.458711316498871 11.099028755580811 0.07834794108228442 -0.8398004540120763 0.6557426348947868
P 0.21247677183288485 5.517831468416113 7.889664134523842 0.3765007769744806 -0.6237275154407709 -0.1995821400051337
P 8.411351146355383 1.7137432763887581 7.964631246669965 0.3660122187383309 -1.029281501027466 0.09226506538400883
P 1.784772887266317 3.3757534842957706 10.076973501625636 0.009604098748667331 -0.13234779233750754 1.4567358862316784
P 4.093212771594635 6.147894585124899 3.940602915876569 -0.803327555897023 -0.177972532155158 -0.9175544702641036
P 6.914426588530491 4.091037753774519 10.53927084298801 -0.5957449141849159 -0.273787005453322 -0.7740766294517056
P 6.28218845400159 7.793960654135697 10.164502689834464 0.7620238120522295 -0.5126856836698912 0.3402826751827107
P 2.4403610064921555 8.513280390561683 5.692621113293187 -0.2384572198037764 -0.823458522318943 0.7248736853644935
P 6.939088774061051 3.9068622778662636 1.7216578247044327 -0.09866351271118491 1.3118827623383083 -0.661099528331326
Ni 5.214641174433629 3.060888197964817 0.5147844759396045 -0.18079611764688217 -0.9933642183055665 -0.5765269464955685
Ni 1.4243131158054303 1.0450960625652865 6.950047448557193 -0.006631646383904709 -0.32523349415907216 0.20711521515738526
Ni 6.741278992230836 0.7334393769028492 9.191302650204006 1.2315013357657631 -0.9397081235430074 -0.4843557263769465
Ni 2.8933489120773586 1.8577348486865404 8.941764293730516 -0.1937367369679502 -1.2932435499705661 1.3739365942462596
Ni 6.180223259087519 2.099862865520837 2.5705358230260416 1.005226002740159 -1.0447649413750457 0.6870411878977523
Ni 4.291894358088285 6.85168361579403 10.438640318099917 -0.39131830160328734 0.11531809054873043 -0.6861572426309022
Ni 7.846089180402917 7.352710654637561 0.13412849562094678 0.9436609375431684 -0.12173659248056454 0.2628479899433151
Ni 7.633800251018133 3.767706075763613 8.317917953162944 -0.34989628701307485 1.2184095355788112 -0.845724532805995
Ni 3.0877343889924354 8.423763128213146 12.254680434681928 -0.08459237933009948 -0.5620174400254837 -0.2872783550715375
Ni 0.12934345641669365 4.933317898452548 10.142166515096655 -0.5606195312366926 -0.5296701340430297 0.28153913859491514
Ni 8.664138548043631 2.253713919424678 5.727796184543536 0.01480621177489708 0.0017632625480098665 0.561524302439149
Ni 3.4216984888264657 2.5632225502978283 11.465141775838608 0.14687426808845672 0.45655181679080087 -0.7270809774284576
Ni 1.0710704489294707 3.1833902346927845 12.548181114152571 0.06792725996959269 0.645037589772457 -1.355816230496465
Ni 3.1644711747285608 8.346505057214348 7.908699135520626 -0.004468834404631013 -0.058744050808427865 0.3243228094193446
Ni 5.559965697923135 7.799838594856173 3.640525953187009 0.538512157814692 0.5726872610345041 0.28910640941921173
Ni 3.1860236240369737 8.333508876355314 3.570031109087536 -0.15865249167030743 -0.13506262016550935 0.1132601795784372
Ni 3.6885785679607492 4.259332004525158 9.436408284409394 -0.4060031573089718 0.41235789588240596 -0.5188126225032356
Ni 6.952084954920086 6.050135623019975 11.467627767280938 0.3240757264055451 -0.20340305641312068 -0.697163878154051
Ni 0.5514344249762375 8.990642876015283 0.3433184739959139 0.11264851413636728 -0.1102843847795649 0.14645980625885746
Ni 4.5838410682155475 0.4157474661734397 1.5925345663728336 -0.1912417384602384 -0.6215893860518457 0.4891698599361382
Ni 5.816662739081426 5.476838673880804 0.6002680688762919 -0.28251847178904893 0.8546776282342248 -0.9847515369358911
Ni 7.830891018692939 8.940554552414039 11.315103294493827 -0.28860684407497394 -0.429589429269344 -0.06440664841084393
Ni 0.1603841962734349 4.647500784000155 5.6386087699387915 -0.5728096455449811 0.7052430556177597 0.10973931090937229
Ni 7.906962716335311 -0.2961673232195188 2.502659089219955 -0.28424856710627816 0.7588762675621834 0.5572053633488211
P 8.377602419435828 1.6008041279277418 3.6412099154023423 0.18654767541867875 -0.24793636293880525 -1.3563769880959413
P 1.760182603151297 3.1645071254363315 1.3982704230964824 0.8889643173312367 -0.6228152880391468 1.8389280571639814
P 4.84140092636033 0.8957972670328844 8.176718852091234 -0.6297284702192122 0.532522001669528 -0.8313993744325745
P 8.409167140858324 1.7019334688861496 12.35617916916268 -0.11962931632957463 -0.15365992355172245 0.5124694538940271
P 6.1990973806670295 7.621550047345336 1.4358002657057982 -1.0793200536420962 1.1877013078616772 0.05825914075220934
P 1.852126538274343 3.0986274534468956 5.887147696736262 -0.33682068477603927 -0.10147861356247684 0.08013177245558457
P 7.003566368447437 3.9785210261298065 6.075965307785384 -0.7825335019698072 0.16830621270998758 0.2512471724795931
P 2.289421959917724 8.535408051194425 9.993759297116961 1.1316132066188576 -0.05595183277527138 0.28524152714716683
