# total energy = -340871.52288260235 ev
CRYSTAL
PRIMVEC
9.23006738985260 0.00000000000000 0.00000000000000

0.00000000000000 9.23006738985260 0.00000000000000

0.00000000000000 0.00000000000000 13.50913661455931

PRIMCOORD
 96 1
Ni 2.4925519280170243 7.104290340109031 8.524656445554829 -0.6095697358831502 1.1362980136890364 -1.0058646647654226
Ni 4.325717093042392 3.7141789978561164 5.372502693982901 0.01375643035414405 -0.5887363440775668 0.6479462787788196
Ni 7.290645394698284 7.192502091308115 12.793448945820188 1.343731788528105 -0.9904398455699199 -1.1679760615186079
Ni 1.018657894484082 6.944499418610809 10.632271194516463 0.11963882941127137 -1.305710057868693 -0.7872100815098699
Ni 6.376333408690255 8.14508193547994 8.526061261766246 -0.9950428915595702 -0.5455693217717894 -0.00520596968097168
Ni 6.202872757828649 3.778198743206837 2.3363515026176236 -0.048015351537014084 -1.2459118547641383 0.30366065308430285
Ni 6.166977026907519 2.016566598145151 13.33700298183969 -1.3905415497927922 1.4908253717162196 0.8600247514787512
Ni 4.316154743534988 5.363204324394332 3.368421607593218 1.8726174789966266 -0.21192317806898986 -0.4265866378872783
Ni 3.1062129386344797 9.15590350300284 6.4817647730563355 -1.2615685874647886 -1.1271348591325299 1.8317917032295161
Ni 6.8820118643973744 4.540473064073998 0.008187992517391057 0.46698021121297645 1.1502745304737867 0.7980881618749545
Ni 1.2459944469622037 9.161460003392277 9.7407085548703 0.7430025337547204 -0.034762343181849814 -1.253411505575293
Ni 3.5645319200920977 0.9968103256771103 1.0812875917307343 -0.13271083210388113 0.36453203464837863 0.712004028490677
Ni 0.1621159753987203 6.07325492565446 4.528411212398057 -0.028924396343834056 0.4636812287467305 -0.8071037351100034
Ni 2.5398467917968826 1.4354323439602128 4.938088663287082 -0.5259268649505136 2.323026930335115 -0.4597469266893308
Ni 4.014230018885706 2.623443509449921 3.2611460758221376 0.6249523889868075 -0.19802328015844606 -0.7718230575308385
Ni 6.171601290520655 5.754069975542973 5.614761495928802 -0.9796209005775451 -0.3724080949623457 1.5706136447894563
Ni 2.7640728116649704 7.162975106680525 4.020926432561016 0.6413015197687922 -0.47708464663683 -1.0080143641185737
Ni 9.212225372398759 8.252344545157092 0.5653988358063465 -1.2002385210967392 -0.5297619224258876 1.1472267447863984
Ni 7.516117473623804 3.0265943798981305 8.975794434814803 0.3045381705932497 -0.610397116880452 0.40718200810842137
Ni 7.372894522555878 8.768157614531326 3.850671384000492 1.2716933346036163 -0.5849987314120054 0.5535968200619562
Ni 8.736212352325609 4.983322453085276 9.951897104970815 -0.15070264069561143 0.5126106074575817 -1.1106006089229326
Ni 3.387056190045434 1.0370164979302445 10.156425238657679 -1.6309952312013072 -0.5257471448395398 -0.8390602334119419
Ni 1.3877867376308557 6.24833083825718 12.72711891467632 1.8086620591905882 -0.08171582911325281 1.5008228492485638
Ni 1.8285870517476914 3.5640981069387694 6.616153626910424 -0.7687032809549341 -1.9823045965118247 -0.8337547620386286
P 5.6928561705882474 5.651717761558811 1.4506111892931515 0.29784790305726766 1.2960717634479808 1.1844527190173924
P 3.9440907390529305 5.933400949075146 5.432402137383715 0.20851723771123445 -0.03488807012643669 0.030921629279520937
P 8.78215039624293 5.47504504734916 12.048163486442725 -1.4757527936538133 -0.37616139135719084 0.4655280521474821
P 8.741990374325256 7.269517771124495 2.608924613914067 0.12759973612956088 -0.1837585427093158 0.3205083207692609
P 7.809892049030773 4.5488078146581525 4.931726378040506 1.032107143401719 1.6621644577152601 -1.6494727211802043
P 3.655817283632846 0.07029988300017725 3.7717506183363048 -0.025270601641330673 -0.9030647612883609 -0.7988196407243403
P 1.4992028774994473 4.629487831110091 1.711958692992198 -0.9288783799173551 -2.1064171454237335 1.2522447389607014
P 7.781546512990971 1.0651774326282044 0.6816155335695329 2.0936544464414264 -1.1754834256392466 -0.8450899845457897
Ni 2.0451613459964384 1.5226749381146265 7.973119324507381 -1.1899600219888669 -1.1412674418791702 -0.6894040317029739
Ni 2.2636924144687085 3.569599226925654 0.028790425273640157 0.09198430091879642 -1.3597456474578582 -0.507610326029513
Ni 3.465308698852154 5.326034844214495 1.1067238106231099 0.8332649668864037 0.038668363104475335 -0.7794540917135351
Ni 2.2647169519159305 8.357659610677814 0.1312921663446932 0.8845325068121281 0.3419932301159142 0.4891390066982027
Ni 4.868823470807928 3.796345055109882 12.572696200198852 -1.4532111609078715 1.6809540796179374 0.20674549052279234
Ni 9.216794255609342 4.975153843708779 6.759539027159171 -0.26086592651627977 0.23765375006587458 0.42685763216047784
Ni 8.455055278633523 0.90982063536102 5.566952517411915 -0.21989385497929226 -0.2541633176851235 0.868926424843755
Ni 0.3913963800064356 8.814141808784106 11.852295001701659 -0.5084888719797243 0.4996900427411717 0.42529620121062883
Ni 6.320177680501992 1.2551506735175546 7.721606457294953 -0.4682284817977807 0.962987148675606 -0.3653172495538353
Ni 5.705187540223276 0.8211750710086091 10.09340510957303 0.9011071233413578 0.9418513951382554 -0.43110612302418655
Ni 0.32309849855853223 3.123390093492855 4.726062946101315 0.7121081581687091 -0.25440577271323284 1.0525206740610646
Ni 6.969706731839301 6.0071584152080195 3.502081286147032 0.5769534925100257 0.36041518426652763 -2.219095998577404
Ni 1.5027749134640853 2.596464023339749 2.672553004420083 0.6543282710457635 -0.25468088075149037 -1.0911862089520628
Ni 5.343415060548897 8.176279562251198 11.485926871622127 -0.1983732072986971 -0.8656940339493865 -1.2767645784789368
Ni 2.032497693946094 6.816450697842274 6.080948186575715 -0.15725869664657433 -2.0752648881906457 2.6201410405501515
Ni 5.02126725890085 0.7502706186139 5.4339287904807465 1.8542464326886068 -0.0808758497104607 -1.4730443935837148
Ni 5.026602237680076 6.589566418651666 13.109779036180093 -0.418860215777298 -0.5315372691587555 1.1138975345066493
Ni 8.875937107965633 3.3482806781915735 0.40332070368270384 0.1578762756259152 -1.703207748809815 0.5602675472139126
Ni 5.829673455094264 5.861950999715295 10.914138983374638 0.09173618946373234 0.02532613746961445 -0.3908974120157849
Ni 0.5076989173935783 3.374004875177222 11.693467699207849 -0.4921657093396686 -0.14272425047582515 0.924795210986917
Ni 5.583498335681192 3.871570101910397 7.729090195693218 -1.110393892228765 -1.7137832103328163 -2.1253836592239073
Ni 8.990703762188653 5.621341610758751 0.8130083076455298 -2.0683447640320445 0.886469318823525 0.0996382179196284
Ni 4.910423383191968 7.690750343006104 6.571951758613125 -0.08393443403112641 -0.9181424815570898 0.04041825591604652
Ni 3.8988541802346086 7.666041453400585 1.9448702059939404 0.6379025213895723 -0.09651149936518862 -1.0463227727804691
P 6.365054266703723 2.1608325467944827 3.997745119059237 -0.4673540496126274 -0.14824183785994471 0.05688025812681172
P 6.900333547575168 5.142901083040382 8.470471336690728 2.30276612320355 2.008099188977426 1.319131730591238
P 3.4286376422952896 5.640475539840649 12.061051429123406 -0.8970596927448615 -0.5632680246031331 -1.1331270721602227
P 7.375368180536557 7.822915673697709 10.467892006666762 -0.3663276930962207 -0.3810017501686277 1.6426947790264226
P 4.278745281610757 3.0722462917355964 1.0786302554149223 0.3453927427157665 -0.42139532349432585 0.288037087614433
P 4.006578293266365 8.31635506044072 9.282748623022565 1.8201698027198716 0.36496372286915857 0.733828066344304
P 1.0685648672510006 8.339024105218888 7.509323221237318 -0.5910117703753046 0.8955584256089867 -0.9624310190618199
P 6.7546738587949315 8.83458640739308 6.474456405932821 0.9339506522339399 -0.4907526310422258 -1.2911383307021054
Ni 1.181448587787234 8.52086565700011 5.02939710199556 -1.8786618854184938 1.4310618785043419 0.0036905614777097734
Ni 2.9528369137652573 8.025847928784351 11.523023434271938 0.016087392480165844 -0.4810012080824168 -1.3676222219924576
Ni 3.1791581588632494 5.384008895619899 9.650576026709354 -0.01335173871655765 -1.552024311823043 3.0065369651511573
Ni 5.2811490279456725 7.729968898080386 3.943600622490341 -0.549053423665648 -1.0702227193265181 1.5414002564502938
Ni 8.094510397882392 7.058601508003197 6.579813929762166 -0.16616782621074608 0.8489502388321444 -0.45622297269647233
Ni 3.7183140679133717 2.8541213462153787 8.760444970469177 0.5591501457800176 1.359007226629937 0.9202885813658149
Ni 0.8453264645617659 3.028329632511443 9.481319671408196 0.667907809502411 -0.7276288795121275 -0.8908075411875627
Ni 6.88778988639702 7.939509881204962 1.5675053739808968 -0.712777930542224 -0.3694878359917572 0.003872338471212685
Ni 5.004505457061618 6.116996213603864 8.59945690926911 0.8503923705953096 1.0752998767391093 -0.6880295199529506
Ni 8.061069864807758 1.6160370667510942 2.635065086925569 -0.20314208944225015 0.5239975091382847 1.1004375523470016
Ni 1.8512653265929508 8.81495405468821 2.601346728831463 -0.7993027510083459 1.7017481335451532 -0.03137337210495887
Ni 7.679065078067521 3.0275635369428 6.218917383454825 -1.4774448366442556 -1.0327738304514407 2.019398930260961
Ni 8.15953622054615 0.2833547526667115 9.35245593571543 0.23796279666586112 2.0658780476591065 0.3353099045584677
Ni 7.077587756011622 0.3079971857891674 12.225227555497082 1.7460220157618638 -0.30552804531034483 -1.138357981541859
Ni 8.782741120536825 7.210694553546619 8.907127350683217 -0.15193162800670607 -0.15491873565948805 -1.2164704095745695
Ni 2.8081648421638734 3.516203288797926 11.043826964058727 0.6354558596212927 -0.688698263885201 0.6271311418056813
Ni 7.080735208890024 3.8394217782286555 11.389012090161916 0.38645840240782475 -1.1342624713162466 -1.0057628490802355
Ni 8.713958660566586 3.9950868597367157 2.7755873203623502 -0.47242323660541863 1.3070858551702975 -0.28487540205699974
Ni 2.2501149857762472 4.557114875041032 3.9842221477626194 -0.7789840940556519 0.06646018850576295 0.09314798220959443
Ni 1.586666993264071 6.652561626555165 1.7584570019820083 0.06125061928036548 1.8064835634820309 0.9911967783406027
Ni 1.0330937194161072 1.1133122325134421 0.6035596251918741 -0.3652347171423581 1.2383859787007383 -0.5215493047081082
Ni 3.344256368939423 4.9314033256922825 7.310090377041186 1.6120233180844945 1.2559134460615404 0.035868688872151125
Ni 4.221823457853851 0.8359967127450836 12.192076846529138 0.1191158670282658 0.9948428597336222 1.8263070259658614
Ni 5.468519389915054 0.3944053818784562 2.6638804333803576 0.34909538837833426 1.8436902544393152 -0.7889710300650348
P 0.5958931314651862 1.0744721101899368 3.882728330018022 -0.44459515864955684 -0.6946154007005844 -0.11699804935431463
P 5.0874006896156585 2.889509423446443 10.699073805095448 -0.5205481171371035 -1.1437344153624238 -1.1938213047164858
P 1.8723652599654637 1.2040437920286648 11.986102361328946 0.5924276768862249 0.5926354220216568 0.037392838826161415
P 1.4641378526166058 4.89849813650899 8.448560080420823 -0.8048805022064396 0.1338714280708856 0.447806466498003
P 4.161329598132308 1.9850366889585789 6.8569263880544975 -0.8392723494227481 0.931349467165667 0.8276465922583618
P 9.101104594677114 2.0937299590350045 7.703057714466694 0.026567980296515536 -0.289618830279256 -0.9660997261626588
P 8.269420169277454 1.9404739250379792 10.876691678175328 -0.47259292941406345 -0.33085778232438506 0.2284581996095356
P 5.051071145541201 8.696098480743396 0.31213133283971356 0.1257228308218222 0.7436622788259063 -0.2827323875720679
