# total energy = -381170.26828365313 ev
CRYSTAL
PRIMVEC
9.20567883500463 0.00000000000000 0.00000000000000
0.00000000000000 9.20567883500463 0.00000000000000
0.00000000000000 0.00000000000000 13.47344149930332
PRIMCOORD
 96 1
Ni 7.1130623854219035 1.143704341116309 10.915792095826033 -1.3832740695971018 -0.8723089681627428 -0.9095681096245175
Ni 3.3216298841664136 6.290258805153424 4.339081100844279 0.020687867366654695 -0.08907226947832401 0.027703636562855512
Ni 0.017912410007679666 2.4495575104139675 0.05236098102717709 1.3503796328619257 -0.4845835261170364 0.7167338298661785
Ni 5.3362835062091145 6.987994031858158 9.45888110028826 0.6212823963343881 0.6484288748421929 -0.6225476362000568
Ni 2.27568064731136 7.302395583401114 6.378287189086735 1.7319385410856043 1.5544735446944842 0.531612088260749
Ni 5.130923221261372 7.804464105042003 5.701461741440199 -0.2802337895199303 -0.6872062527207068 -1.2325452036492452
Ni 4.533235312864512 1.8511515590627448 6.59124768253604 0.8910708221512783 1.428068857314289 0.09209640101662848
Ni 6.88418159087933 9.110998494578416 1.7794641757485274 0.3296545060449032 0.39504511563557126 -1.6080563630169469
Ni 7.179306450801317 3.267620166047873 0.8709336312722584 0.01766862092435667 -0.7869450007739415 0.020771685329712616
Ni 4.811007468056066 9.09491617353647 10.522757476237238 0.26692550244679836 0.20897000897793688 0.0962890989417374
Ni 6.597544366905067 0.3719444092241174 6.500100414590702 1.1300995981878086 0.10842650563521973 2.5449100478302946
Ni 4.59137838081009 3.643322333399822 12.99060759119754 -0.7305625082191547 -0.5993179762481549 0.3025800184256144
Ni 8.307121790132626 5.793345463697703 11.280868148021304 -0.002726654902543691 1.14151118245886 0.3782948927604259
Ni 2.2822442963685474 0.3465008333066409 11.224966662888386 -0.48464420415164283 -0.1364384174671134 -1.4722758908488065
Ni 4.53066692845083 4.86172155312766 1.490108514794478 -0.47091734148385345 0.13600287259159155 0.4488876153773237
Ni 3.9223372552431583 4.8515124552252455 10.523094404085052 1.13709274167619 0.3091083064624354 0.019232880087683004
Ni 8.6123360741313 1.8612133661027253 2.4294909715431996 -0.2849563918065802 -0.23763883766753913 -0.529144857667179
Ni 1.771660521743229 5.710199771854059 11.228523737216152 -0.2925421745736381 -2.267605001921385 0.9046269635691583
Ni 3.4163379087110783 1.5778441581387024 3.8549811438523727 0.5441336177665274 0.05459660429895759 1.4632451481051059
Ni 8.724313952296278 0.12168434599933853 9.257574996328994 -0.6706668603047868 1.4943410981789618 -0.8524471962418093
Ni 0.10923918869160797 1.4503731223815124 11.267112102037919 1.5002304670802036 0.6512144080071302 0.046002691982359484
Ni 2.190224330063292 4.520890497456814 0.38035103519750274 1.2642399636493646 -0.23641756366592837 -1.1825179638885248
Ni 7.716798424857435 7.291891903773834 5.393633965201222 -0.4768437342706175 0.8346070827365949 1.7618088462824752
Ni 2.200286137103273 0.25043312998813816 2.2937458715888144 0.6810525744144851 0.2170422444631101 -0.2959817963828064
P 2.384593034401944 8.559974172536231 8.453843741609859 0.1855403172000869 -1.0361759141544542 -0.28503198223952203
Ni 3.819104772035162 0.9275734118531251 12.69811279373788 0.17483681473965373 0.040309498252324126 1.2000544301103913
P 2.5857371184125313 4.859871211668341 2.5101695414410843 -0.03562006319645478 -0.4254306699059641 1.4897802182811568
Ni 4.92380465164333 2.190399237962432 11.118445911176565 0.5861220463831712 0.8054754554779613 0.9527464447842044
P 0.3000508187024935 3.7562852192073244 10.75821941062691 0.7042611513204645 0.11188052562209118 0.26317811958922416
P 3.771097156560781 3.734633462429617 7.75984049713203 -0.7985941549770956 -2.81802342425536 -0.500126616057958
P 5.857785216012307 4.354479439943799 11.419509354558286 -0.8497387961717108 -0.01820006794779446 -1.8854791654506429
Ni 0.6690751865788691 6.021001902946299 5.516134854919176 -1.0268325252663413 0.07277944585557143 -0.8155981457342599
Ni 1.965200714980693 3.6890837632220936 9.051768235954501 0.32483651583096956 -0.27639616094139496 -2.1133709510337475
Ni 0.8624579627071074 6.634790543742909 13.199930920912632 0.5872535888844531 1.4636709227886147 0.9173636944095362
Ni 2.4496587728818904 6.997853313962294 2.1586074258740764 -0.017809260267279005 0.15921119238725484 -0.7540896448068174
Ni 8.2452412165528 2.200424222286804 5.211392822248179 0.5790327436365575 -0.3865378494955085 0.2054185441812527
Ni 0.4010564481840754 7.482826889882007 7.734132718230064 0.33190499264197676 0.4700092278472873 0.41089622373521495
Ni 1.4713528645993672 1.3019223444064676 8.672908520739137 0.9062004787038651 0.08955306576948448 1.1165496274175157
Ni 1.621727629464948 2.5127913187923987 6.150451239099548 -0.5356795734619033 -0.6130980607513828 1.5591470389107536
Ni 7.803387040610459 7.183808027784438 0.15805690390937202 1.0697054133704673 0.4604341825643425 -0.448120398193996
Ni 5.677648491256282 5.69131892442588 3.6250297288534865 0.29460317086772486 -0.7597684403591495 0.3971007126130194
Ni 7.160950327070557 4.805364386889088 9.514701575446841 -1.8401081935150116 0.9170795875102141 1.711021331316963
Ni 1.413246619369398 8.285783026437588 4.209641890937823 0.5767647735379873 -1.6596044102975676 -0.5470945001670642
Ni 4.574835775823041 8.79249121024513 1.2463135998626342 -0.9424234655916416 0.8046115648157692 1.2317661593913753
Ni 5.81556797256734 6.822429896804135 1.3567753027124394 -0.30918723932948683 0.04049538901088509 -0.409360760927295
Ni 6.042487957503769 2.0342156897096344 2.441899306135322 -0.42977223470411147 -0.41639967005194745 -0.0235926997182755
Ni 8.306274867673633 2.9959237589316956 9.04164935370533 1.9925409295278524 -2.066342388890035 0.286983449538938
Ni 5.933023229679059 2.8697507238997 9.186313835947946 -0.5274648988615949 -0.38835279121706023 0.19477391998321292
Ni 0.3828476153157485 4.66215164020933 1.8389365437275664 -1.4173422149254042 0.9859843809017277 0.26874635770562105
Ni 5.08184774703435 5.195031569135502 8.145624724017543 1.5541601272191234 0.15624645333197607 1.8597002567143261
Ni 9.188887743768968 4.586121938156999 12.880569349577232 0.6463125998301386 -0.27249039812908554 0.8970272968450294
Ni 3.276448412114974 7.343655436240265 10.823431519401401 0.6330271955751421 0.5922243026261672 -0.29314869780938546
Ni 2.9302044172497013 0.4210622295740895 6.020809504257246 -0.9197327088623449 -1.3158754284374692 -0.28760874182776275
Ni 4.722835475531883 3.6718231152806817 3.664870066005936 0.5440282025369146 -0.9090106944591506 -1.1865903341856856
Ni 3.7842520717118626 1.864168389030295 9.205796734776321 -0.7353208488397465 -0.33799079382474045 -1.6124460074442102
Ni 6.849476181418464 2.9805226581285056 7.119676665713054 -0.12191939791533198 0.053461976473882115 -1.01722071320819
P 6.4033505704655544 9.29248845413305 9.0463249180197 -0.22149693780035404 -0.41690463471282385 -0.8357939039558444
Ni 0.7820620071515164 3.870840687464887 4.243540882926865 -0.6780230435595419 0.8069134734760683 0.7316912225069592
P 5.664659278325438 1.5213397010376961 0.11970420446749976 1.2726317872574857 0.04071059034548472 1.0249394220086865
Ni 0.838770830324149 7.609938904162016 10.357626928659501 0.8333192171631069 0.9754058340549331 0.1943517448441298
P 8.126662866615026 8.209458742660392 11.415750675862565 0.13204825881921775 0.655392964864852 2.057322959000244
P 3.6267981397705773 6.043141560705817 12.65324615590489 -0.03732521881301959 -1.033044310504008 0.012159518180669382
P 7.395418968706697 5.319170149130136 1.9254892573328726 -0.4981250122468969 1.252651487480817 -0.9230538028157781
Ni 1.078371637948202 1.3940896015741562 4.218224345378238 -0.20486061479525366 -0.48700961906002577 -0.18768384590565096
Ni 7.8985645547791306 7.274465553612184 9.570306637719113 -2.1518379967606944 -0.7275730865735277 -1.4026625014260423
Ni 0.06981494822553286 9.082967202321564 5.859990896677248 -0.16834529347803912 0.23702845777704984 0.7183492539824144
Ni -0.0945570514106704 4.02078278542207 7.079040957903463 3.295047649967899 -2.8903873798400674 -0.40836445845229674
Ni 4.884947480997624 4.717818380530246 5.925350296314171 1.7281685325202107 0.4284445170316234 -0.5637485637839775
Ni 7.565180893340073 3.3155173133754285 11.811573695590804 0.7033280979832338 -1.2802895609130596 -0.22472264382650328
Ni 0.2761114507176179 8.066908804861583 1.89287077527911 -0.6269017994036945 -0.045868994617972614 -0.2687409583889823
Ni 2.293226671298737 5.049342494831082 6.834457116289711 -0.6836265057892484 -1.0317590160336811 0.13682716826509983
Ni 6.000804643435122 0.5733572990586456 4.401706413847283 -1.1798728129561937 0.611533030257108 -1.0766005978284041
Ni 7.68902489160984 4.866434860725529 5.6663770580085675 -1.7517956850208474 0.26425258360032555 -2.2055861370164274
Ni 2.60011638885759 2.9749440167138412 10.984034714095092 -0.9918027873557177 -1.449562765522007 3.0472277580023004
Ni 2.902550557827834 7.975772583730929 13.159052183180027 0.035727535308596535 -0.2471534620261937 0.3504670719148803
Ni 8.487442628466694 6.479067279435215 3.462943499288671 1.3831439717771405 -1.2660610760185034 -0.6565959840340175
Ni 3.0773940172151604 3.815910401456138 5.080551587444935 -1.6065887773324845 -0.47530132948416204 -1.171049815347925
Ni 8.10386960565346 5.67852303075198 7.78164046534006 -1.1380900725924528 2.5505523337177367 -0.8491420431279764
Ni 6.027648403113606 8.49686924366243 12.79148323313807 -1.1294645357069708 0.7359759659252422 -0.2154720717625128
Ni 7.9125848037470075 0.5349438421360196 13.170935794074731 0.48725001720560607 0.34790471050434274 0.01852119873263907
Ni 1.1593355838920516 0.28223598889117596 13.64199406576605 -0.31369309761964037 0.060357418042134764 -0.6804573640326474
Ni 1.5531177046076985 2.7475637478323076 2.407218752007492 0.8641488009494538 -0.16566851797682436 -1.1466734433860897
Ni 6.628457036658273 5.190069708207277 13.253461023160373 0.3601385335663733 -0.3357901866289959 0.7604981194363225
Ni 2.935304363361457 6.133753058139053 8.730278311656939 -0.09845448202417238 1.6625601504917822 0.45991610527734345
Ni 4.5464914904835165 8.534225888647097 7.792970814932748 -0.5562332292435387 0.927442675912093 0.9137250692156844
Ni 0.6449231674113554 5.464914457507968 9.181490060203252 -1.163721400007312 0.32980234447667717 0.27162959279068705
Ni 7.589078835769888 3.805802566021647 3.321176044196541 -0.23434602584888028 -0.3900183518449412 1.2089926131402855
Ni 3.666400970407353 2.2643484565828915 1.7141857860859429 1.726257174430111 0.43299845495089295 -1.6755300803888884
P 6.347232751878436 6.450676965701181 6.953076891782544 -0.7719138174724319 0.29470652921480855 -1.0915518198215974
Ni 5.751054574821518 6.5049076201133715 11.641296252938913 -0.8979634355060535 0.6818174776049677 -0.4943773722790067
P 9.106984818577107 1.4234465115929096 7.3255239310747156 -1.6275466105310745 1.2432823875610912 -0.7144139234837502
Ni 8.16338431975545 9.176533722682368 3.6838273205690024 1.5403041951726375 -0.06956968066902212 1.0818016824133692
P 6.209515795503224 2.7762854660068172 4.962699565572536 -0.7889700016237702 0.3797259687799976 0.26249420614832214
P 2.243810586952337 2.18403811384109 0.05918791250096435 -0.555553686678011 0.5957233169183611 -0.22812164220572326
P 4.053186775157414 8.703094862426969 3.841763630084757 -0.5999134437403087 -0.9804061154830018 -0.24926382350097717
Ni 6.546508083071901 7.617459943825021 3.3991067189421535 -1.2777220572961996 1.4691532860594245 0.5856060259787012
