# total energy = -381171.689537906 ev
CRYSTAL
PRIMVEC
9.15156966572198 0.00000000000000 0.00000000000000
0.00000000000000 9.15156966572198 0.00000000000000
0.00000000000000 0.00000000000000 13.39424726061788
PRIMCOORD
 96 1
Ni 3.334996644640929 2.12924991170958 5.093363645741347 0.5999162719537863 1.2140625714640252 0.5560532520222488
Ni 3.9277621026223737 2.5336486152040227 9.2248991700605 0.11217028894836811 1.7111930810081368 0.3108407157725098
Ni 4.637420557497492 1.4877889525560346 7.243153339978772 0.9589309763283614 -0.872355248019646 -1.61392901974764
Ni 1.265927453793542 6.1675538220105475 8.264745785852082 -0.3621509360107118 -0.8800423322512586 0.13821813507535552
Ni -0.021252689789883122 3.4071842246532436 2.8752629763208692 1.6593367584584775 0.015606853299321505 2.157633263286233
Ni 8.95503951971984 7.591437364928399 10.714687740546642 -1.255844797607134 1.177809759779578 1.119126901226389
Ni 2.782562153332185 4.612464227541409 9.732220084489338 0.17253799140314802 0.23074750986434456 0.4886073025644489
Ni 1.1459869842649677 2.8380115127762284 9.21917943913914 -0.7931881534701759 0.42931226434855735 0.4270764330395032
Ni 4.457711187733062 6.480006706997926 4.34925959852237 0.17100201437459583 0.011340107603167567 0.6463910184765578
Ni 7.456579837156914 5.942434364515247 7.277321639767562 0.37855663106224485 -1.4827855321308787 -0.9144141248629091
Ni 2.2258447275095263 4.817020108428232 1.941724186457255 0.17648540608667027 1.0584663501215383 0.1750975246002081
Ni 8.036029761553431 1.5558400231660208 1.9226239458076984 -0.9686754573096348 -0.8124266899848137 -0.4331280385502218
Ni 4.306023923698565 7.764008510502969 6.949042030531539 -2.3186709673592647 1.8604525614993184 -0.8327913696840947
Ni 2.683624535746849 1.380184798678652 13.067011733974043 -0.8643025529184987 -0.8482298157263521 -0.20623255544211577
Ni 2.2987918877881977 2.4308856415784805 2.8443352472828853 0.2362923509419737 1.0939275191426256 1.2114593295132232
Ni 5.5065085041822615 2.045970629494562 1.7247505409509205 1.8642698783628797 0.8131152314114061 1.4952011321864123
Ni 4.4386027106709784 3.6711429429969535 3.259088036480413 -1.794707396782709 -0.8681247548780662 1.059531043940627
Ni 4.569406093165402 4.815290461797612 13.02248934848217 0.5754535109257316 1.3729768014361516 -0.7511804415798224
Ni 4.115314367426174 8.792553403705814 11.881888978009702 0.026966501286514847 0.37936267190330797 -0.14344261669908845
Ni 7.478525300755993 3.7439711328724607 1.5708769669690423 -1.4104781408157192 1.3797765979668044 -2.384746004611467
Ni 7.3380212546189405 0.2147543899088461 3.5912918387069626 -0.4468402459299917 -0.5162970551702334 0.46199149974913334
Ni 2.7030441661710545 5.887442583544912 6.340286950364812 0.8589963102142367 0.8710856372786031 0.6482134163972771
Ni 6.6593500139833885 4.002420606392716 8.584372586150268 0.7258455623594596 0.0538278444537331 -0.7382369940452771
Ni 2.856955261587777 3.7089206217863597 7.199099514843973 0.6087495539747 -0.493958282463717 0.3034477657425484
P 5.364238205136693 4.434667535797082 1.6001702256989383 1.4668079257556996 -0.1301978358740403 -1.491106393291748
Ni 3.0160461453268836 6.539070936384269 13.529126640671283 -0.4123954339885607 -0.08736325720701729 -0.8950665735742327
P 7.274097541841808 6.576171399032586 11.883255307332197 0.9672862902715922 -1.417769789381126 0.634210931470598
Ni 2.4080524757404067 1.111467264208369 10.622601903026624 0.15034782845935396 0.03444275505890197 -0.2460034075821505
P 6.404167650765414 9.152210084041 7.624313463107434 -1.5938798144062487 -0.3705566435759038 -0.20667555651680533
P 0.24969691247515183 0.7482469627199363 10.737082546206903 0.0725210499878622 0.43067829145814857 0.04888309885394807
P 4.832449654561695 4.822190745181142 8.818303174735307 -2.465774063629076 1.3598724028437095 0.2857205236661144
Ni 5.398922653443828 8.802409644029503 5.289428700470027 0.8597946377458161 -0.1255446533727451 -0.1531935254382652
Ni 0.692620062828094 4.478485250439446 6.303587326459463 0.19462402466890996 0.16398855917124017 1.0303857898352384
Ni 7.316030033172491 1.0920384822146896 11.281264152163834 -0.43273157444275157 0.15162900916462274 -0.676285492043145
Ni 8.018275716773525 0.5033601151604123 8.972364355891406 -0.152767236534124 -0.5470677606941868 1.6743322034260455
Ni 6.562901623295029 4.31387597030741 3.522633103883891 -0.004344393011624776 0.7065242363230284 -0.3249100493813824
Ni 8.65546289298263 7.632866519938001 7.962732096163898 0.041450810945618935 1.2570372752533383 -0.39777871251665037
Ni 3.6431665951143923 3.061511142474599 11.711849156551688 -3.659863277294968 -0.6335756118794444 0.7981938342148834
Ni 7.668136668691482 4.41220958430745 5.367731359204988 1.3178515783272338 2.5386028746653437 1.5202040819886526
Ni 3.45374741013786 6.767091441402884 8.900236261080673 -1.1020336931895278 -0.3926984697802656 -0.1416490151337754
Ni 5.567924686923468 7.276193251251395 13.036955234350001 -0.8887177485380694 -0.7734209981455776 0.7088222883285857
Ni 7.601613910183684 6.16769109555266 9.676861325583088 -0.5200061285907044 -1.4370335227067446 0.13217578553601753
Ni 3.5271338457512917 0.9729765633556362 1.7167410873471203 -0.7790033773293616 -1.1651817866029224 0.9455432421675458
Ni 2.242848343592549 7.659406071413117 2.1556164985216335 -0.19925072480764391 -0.2640749203718807 -0.2834517822365957
Ni 2.514357106752456 1.4574881060270322 8.019162503855574 -0.29791552307040947 -1.9619126631190342 -1.103989788474634
Ni 0.5357566710990017 6.993995454945648 13.185617904673283 -0.9389208517550217 1.1236810962559745 0.5255710242729916
Ni 7.8858891127600685 2.424589361780246 13.098006269469188 0.4778053268529384 0.31916337670559225 -0.10130840653319972
Ni 6.173053915264528 1.8079474590406712 9.140729440135644 0.2224274200344234 -0.2455048706791772 -0.3297745765625353
Ni 7.819604295058599 0.5464447890878941 5.9953185390356785 -0.8004710602848344 -1.0641549158658834 0.8717921764273243
Ni 0.5597905228520875 5.163123314372162 10.566587891746023 0.23547859679142674 -0.37493317537704457 0.7522947576899237
Ni 5.376025426619435 8.79636045660707 1.601563094572908 0.6541567784649056 -1.1654029014747929 1.2874498261069247
Ni 7.209999949244667 6.965872681951501 3.1421428756407375 -1.1210840249527596 -0.7101482062288609 -0.18125788777464913
Ni 7.426242384350014 6.190505958251785 0.789918634320605 -0.99930526638035 0.341378993570683 -0.637113964050006
Ni 1.1150546794422467 2.108613122545309 5.853674207342144 -0.018377731176239316 0.9186219922966695 -0.9991669410302728
Ni 4.194237502571483 6.445377168107638 11.088694996974288 1.0653391659819718 -0.8406147223832556 0.04218511800848219
Ni 7.947927602225521 3.5014545418067486 10.541272820266553 0.10475985541690991 -0.7179085669005701 -0.32515944638802713
P 2.0024274619364237 8.458905483816238 7.2573510848610105 1.1025695110883398 -0.6556711582269031 -0.8990268437735612
Ni 2.8544202768434292 9.07063299374818 4.80668615617799 1.030311227843561 -0.4153745712215427 -0.05714045376673385
P 4.332947841091596 4.1765383672084235 5.525636199540241 -1.011072177108291 -0.6148153005528058 -0.7638264124786072
Ni 0.8248876964383858 2.8160843523160985 11.905088206626742 0.2492172865337579 -0.5911377544302078 -0.7306596959186513
P 2.0979332409689433 4.537558631395264 12.427677599566298 0.14368018663119128 0.9367513549075287 0.10841724966383909
P 2.138657725129035 8.439650581642569 12.776960060745557 -0.1361244857711204 0.4603650198893039 0.7369984936524856
P 0.37659074449020646 5.070280642056628 4.225697852952864 -0.05183241129025911 0.44248608272635415 0.03648035431422105
Ni 0.4292140992806237 0.9560187051199848 7.595141005094598 1.1183897659500481 -2.1372505858648227 -0.48756729133570864
Ni 0.9814783713971473 0.8205635798618367 1.6481088920755238 1.6570780443312882 -2.129208689396952 -0.7889000676177833
Ni 1.1765074684613508 2.9292343572948325 0.9012584588573469 -0.5653084520719296 0.337230004399316 -1.1826092380507505
Ni 7.718872969856324 2.3349405872112 4.737531406289418 0.5239556001567557 -0.6611468366294937 -1.974855082212315
Ni 5.2904491004663985 3.8649823360295135 10.753825342559912 2.662875860414517 1.2824809121374237 -1.8470900241494834
Ni 6.1205422096216955 7.959174881109285 10.83897246010461 0.19887174420167042 1.1294941033933257 -1.0315152754539911
Ni 2.555383592705195 4.571474347866566 4.2657057692231275 -0.8563071934178479 -0.5671691594297521 0.6874577066098806
Ni 6.0378669309919735 3.0579694850880923 6.196700655628856 -0.6708013290001221 -0.24178576995637713 0.18498753002041043
Ni 9.21956563537095 0.42007900263149944 13.035039810859056 -0.08985105662587752 -0.3910143972096234 -1.2209248458014974
Ni 5.691361055991179 6.995240068394137 8.527420538998566 1.6028935878690846 0.6758831143984037 1.377552336621976
Ni 6.626990064322696 9.354002190946622 13.338982651392397 2.103374244832352 -0.3170437592594282 -0.4126247763905475
Ni 1.9808389095468384 7.052062163259306 11.147027100802699 0.9758573197700549 -0.5460004957719371 -0.4044550960955615
Ni 5.21545198862551 5.7458952584878045 6.6241247079203305 0.07666849649733247 -1.539496868779994 -0.07453216688062003
Ni 4.647597102752778 6.379769566547257 2.005534419772907 -0.023862151329578262 0.4382399058554904 -0.743353746446552
Ni 5.437560579763806 2.1371751708742175 13.018337281411736 -0.43527902345495356 0.21120866850046852 -3.1071630009053517
Ni 1.3715274139560798 8.438772030973048 9.269488362009538 0.9994279080011432 0.801068070438885 0.27318176776915537
Ni 6.789448725628301 4.365829430212317 12.39807684810207 0.7593256963947762 1.384178840799558 0.8699502381225792
Ni 9.179573276768792 4.759795344506197 13.406837878415635 0.34409202162647196 -1.3025889957412082 -1.0468879012553196
Ni 9.280240540984748 5.8686544114144255 2.1799944492869483 0.22163166360600542 -0.15720830302461314 0.4719365267769872
Ni 4.316905139803363 8.985395275665688 9.03161985307976 0.1478641428055518 0.8811353082051212 1.2503606345641112
Ni 0.12660647273356548 7.999094027155648 3.228442175782234 0.4037621837935949 0.5521963401700037 -0.2920392667952906
Ni 0.6871208847310605 1.0596876841234708 3.7400890371015145 -1.1060075902356115 1.054405035567971 1.8537257842984463
Ni 5.327769200782094 1.4555205185900837 3.885403148154194 -0.09945258427138355 0.2995103783613552 0.5063396868472053
Ni 8.2767892512801 2.646304435431152 7.358611370778894 -0.9363967997815873 1.7469841225648173 -0.08973098610824547
Ni 8.692050867740392 6.90309291535864 5.422553836140049 -1.1808115227203793 -1.6841198789404288 -0.1187515417103116
P 8.296538338205375 8.171793294702859 1.3118509445719138 -0.2847594453044257 0.47431171187738314 -0.4843811802982433
Ni 0.7509247119480806 8.722525594089404 5.487918005952417 -0.03057067369800541 1.058209496915726 1.6953036634713898
P 4.885052875899269 1.4445843930684412 10.799366297734263 0.3577270959114032 -1.0295303838134784 1.2797578567793055
Ni 1.739191717581173 6.847506282372485 4.535546201267892 0.6544899934346082 -0.3496510037714881 -1.2016518565044982
P 8.867166149628785 4.4928898207918015 8.584466847315852 0.17541428450967855 0.038494042310140156 -0.2146889137395851
P 3.9950901992439 8.343549950594227 3.1215024258486768 0.23003917094341025 0.027914467022080957 0.9315659540518472
P 6.554500482517733 6.876205604243506 5.178149276291814 -0.5461869007511304 -0.055959031864122974 0.6521564602054252
Ni 3.550625924591506 3.2639530108128865 0.85770430941584 -0.06935447933442249 -0.6657735367682276 0.31354268808470515
