# total energy = -381174.37091746746 ev
CRYSTAL
PRIMVEC
9.16843975461479 0.00000000000000 0.00000000000000
0.00000000000000 9.16843975461479 0.00000000000000
0.00000000000000 0.00000000000000 13.41893834096707
PRIMCOORD
 96 1
Ni 2.841831215044807 4.898578111849491 12.719126935980396 0.9225632363326046 0.03238304431639584 1.1961954613756172
Ni 3.9917094098236947 7.424593254931538 8.721504799430555 -0.26778810755740984 0.17355203448995918 -1.4177844446691454
Ni 1.4329629372140675 6.3274335881032355 11.8158981044931 -1.438276136864594 0.1046187018533553 -1.4523482986869438
Ni 2.5148021413979476 8.629601277287273 6.397022961841973 1.395280092919042 0.6585525935397561 1.479425100299078
Ni 7.583546493032286 0.9052834788114218 1.7615038865581534 -1.1345028694618269 -1.2114145923182167 -0.03849378519982403
Ni 4.118059676551872 3.4313618841270084 6.957317310588727 -0.0197625273389079 0.8801202366770455 -0.33244003920984033
Ni 2.7275924570857986 5.3611809025059705 8.411339236820133 1.5348902232459178 0.3202468395777581 1.0445960198973494
Ni 4.4925904359921205 3.442574885811107 11.62066626756667 0.2522000233111657 0.7099898262741257 0.03355855268173576
Ni 1.7795849663792578 7.559763560596839 4.601434484064846 0.47457653550299556 -1.210662801753857 -1.6662406846671627
Ni 2.116956039944075 1.9492561104233512 6.695191621178771 0.5597589830086103 -1.3739481642104854 0.8819403206049199
Ni 4.822956821669243 8.627318335816021 6.521550542769007 0.23752365224591349 1.0162516644267015 -0.8515753351598173
Ni 8.869576016518339 6.174806573356557 5.0335237907435255 -0.8838035990659037 1.4250688941457006 0.8974895811934286
Ni 1.7606154647566905 8.858216319799944 2.324361731029252 -1.075085189625142 -0.5504256214228263 -0.6100729007718139
Ni 3.272702036094855 1.254710133663583 11.220312597870278 0.11984683165701941 1.8819811795997137 0.8400632207551597
Ni 1.8963817189988248 0.7139693161446928 4.328010526482107 -0.013700894525860275 1.2460779480283573 1.4090493787889926
Ni 4.809231667522803 4.346252970840938 9.349980249586793 0.20322307919183066 0.09766618179492212 0.49991835670189383
Ni 6.7162396080685385 8.175635156775048 2.9697052764417475 0.42597960043089866 0.11928813094007197 -1.207193612258334
Ni 7.064832851757098 5.6687912209877265 0.8231929376186629 0.5825255872811645 -1.106740354636578 0.005065330338049341
Ni 4.604857979427759 7.988929051873181 4.2268047054764475 -0.12925218413131936 -0.2500963467046015 0.028985588599072663
Ni 5.3722838829143456 6.716487155938915 1.970825781528838 -1.139654331755779 -1.5030777067210113 -0.2437279812844125
Ni 4.111174178379544 6.579171435397015 10.845829514316176 0.1221101737698994 -1.438456114085884 0.8544891663725026
Ni 2.5188362548411227 8.30446090220699 11.047516849595652 -0.306118370596176 -0.20389105179313274 0.28342401432245384
Ni 8.258096102929406 4.29929222298652 3.7452122426301857 -1.0800363629828302 -2.0483667782482207 0.8889815437224174
Ni 5.718676701088446 1.498113869321348 12.802968649145079 -0.3322577479957052 0.21997793005266633 -1.662120748961518
P 6.78418691426711 3.4484151818640676 13.158074235512473 -1.5181957933093724 0.9752937339571008 -2.064169549608432
Ni 2.865549968402749 2.7910747331779477 9.234523922843117 -0.39802348153760486 0.09824622266810822 -0.28068090435967785
P 8.208311475664766 8.167722793362637 9.078877740921808 -0.5915478453844328 0.012895367905429405 0.5416414474722929
Ni 7.0045136873419835 0.9602381891910767 8.216818870810044 -0.2553380547195151 0.24045830939420523 -0.458381670910688
P 6.301523577670478 7.009207928439497 6.106381591452553 0.554098185178407 -0.12856595669757212 -1.6200446457270743
P 4.629319376396831 8.763460496083542 12.237736178806292 -0.220663129045149 -0.15335113406205203 0.1308688937991359
P 6.797334456716004 2.5109789020665745 3.3890605372994584 -0.888119195722122 0.9538939281250861 -0.4180351487728413
Ni 5.462987256308284 2.1503383286863507 9.960623084636266 -0.07707755901029306 -0.1743904712308545 -0.34370224238722097
Ni 8.64785564061764 4.1724468605175895 11.976000148081189 -2.1212611524151015 1.619094108888347 0.01266859660660399
Ni 5.2307506801364 1.0367488180167528 3.735014187214632 -0.43802521874152306 0.6312611048136547 -0.8925070403771727
Ni 8.369547655236767 1.8239143720559676 12.699817285247052 -0.7175519548920997 0.3299756368297478 -1.4520888743779703
Ni 5.364004781916193 4.449434590589789 2.819359369478392 1.8428651874348585 -1.1341609127413756 -1.4384422301288131
Ni 3.364468948487448 2.679714865267023 0.1278227181349366 0.04745639370975052 0.012253877666688572 0.3038223754731477
Ni 6.525471884404566 5.384734623950327 11.024033725136551 -0.1834194142023422 -1.7352776327611665 -0.1393350222886181
Ni 7.8320112073733075 3.3721612693484118 1.4819334070383579 0.04303846714771297 0.740036766258177 1.3699236164321245
Ni 5.655487815064892 4.351469812998135 5.332350744046733 -0.4665626640595836 0.06406160636659934 -0.23858320385867943
Ni 3.015811525721383 0.3659527673097144 0.32122545135247305 0.6622986908457497 0.15953977937126718 -0.6843870381043567
Ni 3.754200980856752 5.838636565385048 3.628185362175565 -1.214016034496806 0.1748355291880731 0.047881397062311086
Ni 1.7055956584555663 7.568116009112141 8.849749265789097 -1.2324981524613936 0.18798235098267624 -0.20341719748050777
Ni 1.307859578277417 4.156842176244217 7.200011409018079 -0.0476044892518406 0.44837082364190517 0.5648381973037304
Ni 8.954035682514998 2.5226319888535653 7.65483294494905 -1.406536896779784 1.0295360402404334 0.0810915652656926
Ni 4.961519450002669 -0.14158454603995038 10.079340625361164 -2.0374938400894584 2.084114111051159 -0.7865554786450066
Ni 0.05236279249241478 8.689113619013751 11.136859626546482 0.8299945236652481 -1.0127961017779332 0.15827942460160485
Ni 6.195371383477108 7.7734890571283355 8.137458690943143 1.0855871175977303 2.4395621811203982 1.8893376199647849
Ni 5.326441684696444 8.823577954826497 1.0964738675429624 0.9784189098496441 1.8022857233505991 -1.3528566336475087
Ni 8.142106172998474 6.701515094000948 7.406703795498984 0.5489112416608288 -0.8153433494109764 -0.08396734415159086
Ni 7.3246572628165145 8.878286034179741 12.775419321704048 0.23734676034841706 -0.6824900781919601 0.8763525421044972
Ni 0.35361479808134855 1.832789421630953 1.1593803656254944 3.6758964194984305 -1.6339270601361215 0.24191689621760273
Ni 6.367142100199581 7.599527083331047 10.571948968439186 3.1571066798133307 -1.1339266852433825 0.39442265156022394
Ni 8.747938327766962 1.8126463597340077 3.874758627418115 0.37837819650285154 -0.9208927906087172 -0.48441846129408195
Ni 4.822094988342746 4.914760407820411 0.34099810828781796 1.0968444356791045 -0.926499081051901 0.19671330309777088
Ni 3.2409333927298496 7.097087422423213 13.339189425919683 2.6319210639042154 0.6983843808247133 -1.5047435244592084
P 0.7617185498084582 3.4920202808089345 2.2720539491746985 1.027089892692786 2.0526180973254067 1.1688484368212322
Ni 3.845555313465384 3.3617734272322353 4.05875912578116 -1.0452801904485673 -1.3770311740111834 0.5812541767679086
P 0.08586427095005654 1.1989935259495466 5.9371422809156735 -0.23637462624313485 0.16676817879890635 -0.12202378470368018
Ni 5.582158634795538 5.756432335540709 7.7339244895343935 -0.02324045858517933 -2.4018461546268637 -0.31311897028372526
P 3.782036363614661 8.14429743007329 2.245793704347556 -2.1871477278055815 -0.30035318597762467 0.599148026329194
P 3.8877943149033576 1.4287821287365952 5.3614697083547425 -0.3386145434516684 -0.37181185613924356 1.2064263950750063
P 8.68895775553981 7.953337169176804 1.323721895704775 -1.157213423685465 0.3567343929808308 0.9387992385754929
Ni 8.022531383166903 6.65614048620487 12.356977237434839 1.6211777308902533 0.009535964514893254 0.34308954850388657
Ni 8.770153457023357 6.329964077444863 10.14261019365358 0.13088714863158105 0.37823447183613573 -0.1344309001187814
Ni 6.672386961253293 2.2376310425328767 5.653049926963664 0.37803803955461346 -0.00661107755861442 0.49427144282876173
Ni 7.773424878050831 4.72776091284995 8.725624179362416 0.3863799837614055 0.594069326254706 0.4205052075798887
Ni 1.129982680752319 8.132561827329507 13.373515147101282 -1.1282797713702504 -0.30781401313104406 -0.149840035585
Ni 2.1716916246162485 6.4821510070886506 1.6667801523805053 -1.0535930811896372 1.1399914033802236 1.6765055569282803
Ni 6.514552272789062 6.072725166364936 4.061537162993165 0.5001582406268419 1.13744472569897 0.7278062856302563
Ni 6.850493069769481 9.091003002350442 4.986088117715571 1.1290451887813653 -0.785122602853222 1.9351122550967383
Ni 7.739740030800317 4.54683092492354 6.2883962057888 0.5645659174789504 -0.7165767354630239 0.45750646739458634
Ni 7.436475552709617 0.7798427212958874 10.580188645146873 -1.269291410030343 -1.8901369759376287 0.06731173787278086
Ni 7.611436886428057 2.8910382306119016 10.388405058370394 -0.21083688698334654 2.1306060839651115 -0.779863925557444
Ni 0.8278844281842828 4.199365399311141 9.768597451053196 -0.2776284906865993 0.35284817055254714 -0.24310577431938132
Ni 5.448886196136457 2.2303329645765873 1.4943997344217337 -0.09069694956594057 0.9286932604897425 0.9882837184588656
Ni 0.3201811660770693 8.297272845526424 6.4984699128102585 -1.5026164508138766 0.44990011580223804 -1.4972261330362406
Ni 1.4546004547729168 3.332865337036027 12.041940482841781 0.8687194510392716 -2.301927943572971 -0.2481829317319726
Ni 0.4037166533576565 0.45530287901226 8.346297409144611 0.9841982355355825 0.054607145821918855 0.3581425861822671
Ni 8.852852782608448 8.303736595475149 3.68408900605833 0.8874869614547619 0.4880635142458369 -0.08039222520582284
Ni 4.443080861916788 1.3425437854490807 7.937879179937727 -0.41328477857204954 -1.0446957787000073 0.09766078247828341
Ni 0.485206661753761 5.209617426757948 0.40381475566184283 0.36929346059276397 -0.5472091713680576 0.485420677306351
Ni 0.5163839407617552 1.8540877069229897 10.235201348770133 0.9292792149001997 -0.11326737866728881 0.5421140162333373
Ni 5.747483938448575 6.938390900632484 12.760967110293873 -0.9803472372206085 0.29872593478684684 0.2034375091954819
Ni 8.706075232354374 6.046402576148217 2.46854828024005 -1.1613189612134065 2.3547427733811577 -1.3337047433094062
Ni 0.9922543804264585 3.2478188909021783 5.1784355635301305 -0.4197343908521352 0.536748638156366 -1.8053527923116972
Ni 1.2129662279663627 5.367598810256477 3.6466230942988043 3.2161600343320607 -1.825504584669224 0.41692957441348844
Ni 3.1637626362498357 1.6325231944962326 2.3726427341923446 0.005377462261829448 0.4932818252219827 0.011066285116490618
P 2.6096221441918535 0.5801797774897144 9.127414543550957 0.07775915845834995 -0.5166366978978393 0.012416114276165714
Ni 4.097210644802371 6.1721843996184935 5.945340699644962 -0.1835302287485936 1.33482754405994 1.0077762799658385
P 1.3025235464048532 0.9390224198558322 12.41657026143018 -0.10542937068010874 1.1605358031904789 -0.6678314477385209
Ni 1.58524155125429 6.398681532573497 6.6528545174366105 0.4004002092998975 -0.4322651763292943 -0.293061794522534
P 2.77494744784489 4.6536157414523185 5.428295714384905 -1.3139401590879694 -0.27620538508682757 0.07696545891246101
P 2.824557874756302 4.7257438561283625 10.56117421817005 0.10894715402538012 -0.18450261996419193 -0.2554352424190117
P 6.587065461930138 3.1707673241375307 8.177219463145457 -1.0997515820235706 -1.2548230412108388 -0.7067607778138666
Ni 2.911960609878551 4.41107383912105 1.7566198587600181 -0.35328011588364316 -2.003791305630691 0.5889075795481084
