# total energy = -340890.78999764397 ev
CRYSTAL
PRIMVEC
9.08514810053737 0.00000000000000 0.00000000000000

0.00000000000000 9.08514810053737 0.00000000000000

0.00000000000000 0.00000000000000 13.29703258598093

PRIMCOORD
 96 1
Ni 6.42306350678002 2.152180759310479 11.578630731430431 -0.0819225458074202 0.4115616252333557 -0.36108341397814586
Ni 4.825094958535681 0.40559281408365644 5.866850746078184 0.20598855775210975 0.5952224660225427 -0.26319637442166927
Ni 2.93160470933794 1.4527333689698347 4.666926162270361 0.2878766507771687 0.003623969905832469 -0.2961568885080899
Ni 3.71586195821277 4.367603235306171 4.675276321989564 -1.5282907156515293 0.870329732949185 0.10277213556291978
Ni 4.116135418019859 2.8579514128048236 2.4696312824967634 -2.3560951736439937 -0.3221625685432323 0.6722984823709389
Ni 5.393788895847508 4.69839348160823 2.366366762404946 0.6335223900440058 1.3551071202445824 0.018727915426806456
Ni 5.093824557419739 4.510912363160296 11.539789905805863 1.0104332579727113 0.5224733591842744 -0.78281889442071
Ni 5.884350558559014 8.263351128063867 12.32801191335925 -0.49245727243815834 -0.9155963180964684 0.39668059435646524
Ni 2.1339468668543344 6.755770719354248 0.13429030122671276 -1.0089587303097138 0.17005584841124263 0.9160406047227386
Ni 2.453834935305185 1.5888107188493248 0.2842125084624153 1.0273655149516758 0.3722219470934686 0.41403425514356434
Ni 7.8969016750401515 0.05199702874651384 6.653037680432678 1.1213838155813656 -0.8090384902388713 0.3791798664685405
Ni 0.1577427028143022 2.4191114988490883 1.2681340595339037 -1.289559930471392 1.3173018764713507 0.04007475653369872
Ni 6.983771598815838 0.8700537545045502 4.596478106025499 -0.6311238079048421 0.03474100302561114 -0.07383154126916962
Ni 0.8478514693105659 7.421321421725846 2.5979871649131354 1.045071416871871 0.30489401127077165 -0.4864020673830139
Ni 7.9063683994742835 3.783019373776209 3.751718312650571 -0.7701958063400606 2.9468714309697246 -0.11339901914914664
Ni 7.769000958549067 4.34299156880707 12.3031594904326 0.28737220033692445 -1.2941858592791777 0.19771680466162078
Ni 8.291415150882518 7.2520015145483825 8.723997214751659 -0.6656550089124923 0.24640655655784013 1.3424570355807397
Ni 6.8325856474642155 0.9085693318232249 0.4452622052249172 0.437619241552356 0.3150645240458703 -0.11297350157595382
Ni 2.1693971151671776 6.716613730571995 9.177638652170051 -0.3553863635933686 -0.14176882854109135 -0.7009135750044703
Ni 0.32899865507517634 5.042557066074435 1.2770284196308472 -0.49093363670478035 -0.5860893933730228 0.44679859405877886
Ni 6.551454821274408 2.1007588204456162 6.878621910470582 0.5701446971183084 0.7918979739038425 -0.643636338549556
Ni 3.4284442094620995 4.744854929550792 0.4053756790414532 0.842800931401297 -1.2715259557878165 0.08541667500360774
Ni 6.117466376462461 5.5196363688432815 4.484251087225167 0.2796115825548991 0.7918694346587524 1.336313384576847
Ni 5.390372880120796 3.064829322679697 8.67896031804832 -0.43253951303660343 0.40149832746008274 1.13016259021526
P 0.47201614967178074 5.714912544454829 12.512162416473638 -0.2950016918577242 -0.043347256637383404 -1.8285274306559476
P 4.160770751172344 6.372068569880996 12.56662697147381 0.4702694234872094 1.051241036017693 -0.6364675887152587
P 2.3863504544062093 8.544536465142931 1.4534056699373261 0.6040099824071855 0.20486112901588588 -1.1971107741010352
P 6.473104503117064 7.826773416012258 5.721620109377784 -1.07942006955507 -0.10445903634703946 -0.5761348532634724
P 4.605443330278476 1.2338721486068418 12.727507684479617 0.8149129467417772 0.12116272225496554 -0.36741989771913497
P 3.9839737670185937 6.396798343306819 7.964643265633451 1.037996769413277 1.4326726746348872 -0.6267069097840691
P 4.962162589569989 1.1430115813652357 3.6306886937502107 -0.5484389300101007 0.15649430767672404 0.9262422278460887
P 0.2478401176063239 5.627586099866655 3.505097421933941 0.7587500263969642 -0.5981200992853118 0.9143084525229802
Ni 0.37937852744042766 0.2583688958661277 4.556786910528536 0.2764810073457174 -0.025408155660459467 1.0528397479633804
Ni 2.1508997534129617 6.3487833350204586 4.808937930960191 -0.3897429866963675 0.1860141715127119 -0.36316677886973586
Ni 6.02157263711288 5.756095521287766 8.898613763335169 -0.07272391002728765 0.3547281611840794 2.000814996611186
Ni 8.665696001662685 2.4699338179321346 10.382176674238577 -0.7229409871181549 0.7250698605356997 -1.269289353147814
Ni 2.413551388144972 5.088318957604879 7.01116604621146 0.5173710049607025 -0.30700154453207773 -1.0189646924824902
Ni 0.8545426809667446 -0.228617761025003 8.797037263780645 -0.5090735408386007 0.9914451469059827 -0.052141457890245685
Ni 1.3496987031277135 1.233372465455328 11.324324713843522 0.8096766380435023 -1.3955683135834223 0.043058007531738746
Ni 4.321877684368565 7.241817063405712 1.5045995715821343 0.00905028312772635 -0.9017563268895824 -0.7405787548045761
Ni 5.741840923747311 8.0427637295411 7.8021672006020815 -0.6677890245363596 -0.1774318291603396 0.329210219418633
Ni 5.416910598040277 3.0360475731525094 4.72559259831735 2.136063250424941 -1.157051444186304 0.1197542719432131
Ni 0.6257650213332573 7.3054676117603465 6.593014831758033 0.9844445472184337 0.7750595621902652 0.9002059516833271
Ni 5.0817685657459455 4.839749302597346 6.984306714045367 0.21257880937511772 -0.8647013310188141 -1.8202361371814328
Ni 0.6683834515832697 7.265356682416112 10.957392839449888 0.07409687911541432 0.554727848342606 0.6646070272639522
Ni 4.887037499026959 0.4606851528250923 10.575635820208257 -1.2779822529361216 0.6823928904924634 -0.9108001822594057
Ni 8.23443310131354 7.3221661141691134 4.827394409547465 0.2913288709918273 -0.867046948432855 -1.5680577111368221
Ni 7.338501210649506 6.132102550227707 6.945345964464435 -0.15085305023054665 0.22051940437843312 -1.3780917540652138
Ni 2.508727400786015 5.400684523338397 2.561274080999194 -0.47846867146855016 -0.4730367018197014 -0.2668943920985468
Ni 2.722846173783733 5.2598738112418415 11.286175267997683 -0.41700079397105605 0.09221595731362829 1.2469346396016978
Ni 1.4626906914072713 3.2732335374537405 3.8339334528561695 -0.82298055424126 0.8573001534587364 -1.2715035871903133
Ni 1.620345268283943 1.049434554809037 2.6912398516782607 -0.057696583380519986 0.4054210595532566 -0.6509935502455757
Ni 1.1552220205585881 3.127189779988605 8.218005336321411 -0.3590476144950397 0.4830141247473875 -0.7939684832796261
Ni 3.786326367724409 2.705366348628963 6.523045562823803 0.6916223795105314 -0.049285476498689314 1.7896567217326793
Ni 4.421223780037694 7.186225041512763 5.646372369333928 -0.6876813925849125 -0.9712429609264951 0.584985875896199
Ni 0.5367460136336841 9.35070709149869 0.5061990198094213 -0.40813048806461966 -1.3364817918339111 -0.26887594130494985
P 0.6669180171771032 5.696660481702265 8.059132441069867 -1.8293838651189722 -0.8293345214837458 0.2992290996755105
P 8.654712057477592 1.5500989023293283 7.9204440195950125 0.182099409839338 1.0484321058139878 1.0240829875456623
P 1.972485612877949 3.039908761141479 10.21224079401252 0.169672754040211 0.49674895783497675 1.0638093596010065
P 4.154565594945365 6.274503163260897 3.6796076742834005 0.7099124360689708 -0.32756162807161654 -0.8253629384305076
P 6.831231960381024 3.9530842631068386 10.162895720028313 -0.10657865379320354 0.39402875855591496 0.7301117938349813
P 6.35027329932679 7.99377661039634 10.028156612480057 0.41247719506908964 -1.3099467216578602 0.10715098135690579
P 2.1533164028366465 8.460735058059981 5.355579488023489 0.3827614131722118 0.34773218948222046 1.14415504783961
P 7.285852776776382 4.070082801746715 1.1671789841169002 -0.1700170247535072 0.5056367472429097 0.9249343076679426
Ni 5.4314559203234305 3.2167693413326943 0.48440465777003633 -0.35977112292462554 -0.734436132241948 -1.672739919238261
Ni 1.4722028415824497 1.1438746704451228 6.69718332409668 -0.08169757428080768 -0.28523998448527005 0.5489130414330418
Ni 6.865237670128582 0.842828290865622 9.039456273450456 -0.10704813723045434 0.2838932406493885 0.041780940591528044
Ni 2.85166449024396 1.4864483539746947 9.048684058486684 0.8684384294637431 -0.9248597456762653 -0.4260693319312275
Ni 6.510126482070122 2.1858412334260824 2.4272272617444917 0.9658061061816399 0.24005978840420591 0.23410485637235168
Ni 4.151440303961352 7.1028597215438625 10.475828199010092 1.2677212373297457 -0.15955212066644134 -0.24221103041925385
Ni 8.401472636290459 7.480038734602808 13.162586347076687 -0.68700082157812 -0.45793224207809524 0.20114588494782776
Ni 8.029781052749954 4.218325165078511 8.31685538289831 -0.43841474087045784 -0.3186756384358963 -0.3667766077081812
Ni 3.1156243863181157 8.575180670053033 12.3279446832625 0.6118791007426171 0.37677459946115754 -0.2937071414160168
Ni 0.6971115987360228 4.736342145678641 10.247743736184976 -1.5332506307599658 1.009002696173772 -0.7049962297142762
Ni 8.749615515672355 2.381571666448097 5.606533994435974 -0.037762563460754316 1.000962856588431 0.7093951301129202
Ni 3.5294710575499573 2.8174134814947496 11.71577649473934 -0.046432323320610355 -0.008960037406765214 -0.332421270156763
Ni 1.1216160573322407 3.5725800858032737 12.445902613553283 0.20529641678109162 -0.4121488651953934 0.3726983725092549
Ni 2.9587147915946095 8.49941961913535 7.454529455460625 1.0287125158978734 -0.5334069753776427 0.1512428294697976
Ni 5.737098476382036 8.163078347277384 3.3138196200493235 0.43224769282779746 -0.6506449086569053 0.5893570083807012
Ni 3.232968160589947 8.341401636330303 3.4872532823359763 0.5197739579752403 -0.004675036878166143 0.06212453724488656
Ni 3.462831495434451 4.750169741253257 9.147387834177412 0.8268156117166341 -2.2340693320577847 0.5677558851711577
Ni 7.299753053536672 6.319610924120269 11.200077135447414 -0.11524635677053056 0.6317964084918345 -1.0569668827578764
Ni 8.195085324418889 8.855811813091327 2.7205594419794417 -1.7009528913373673 1.1373935607460604 -1.5969240005492111
Ni 4.47659775837362 0.637339500151956 1.5577340608844576 -0.04378717238827942 -0.698497766474126 -0.5489809185564997
Ni 6.083960349866416 5.823916152670486 0.12060988505308905 0.432662411767713 0.6767007252036926 0.8493418178436081
Ni 7.997129030085586 9.094324209031122 11.063503736475694 0.7040971149387745 -0.6245050170367439 0.1374761147030084
Ni 0.2945150665318066 5.0139661046596435 5.675612010330867 -0.3547027072627827 -0.9819886294787735 -0.025452378634833583
Ni 7.538810558369026 6.490684264902135 2.5506099340310713 -0.5132137882592194 -1.313879738163679 -0.7975968240608329
P 8.552622247049243 1.917011697911721 3.3611577847940883 1.2521357241866629 -2.4456652086943427 -0.3617557574548222
P 2.1198648871298578 3.4070668557255233 1.498123677938517 -0.18430335946919227 -0.18891206188579723 0.2956758351066134
P 4.793069811097759 1.0430022698768244 7.980400546687729 -0.17096267649622812 0.42008946019870874 0.2855534019606308
P 8.49062519566871 1.6386245864811342 12.422287587812747 0.3524833310139607 0.6315956053349381 0.2865013676961969
P 6.6240996663562886 7.987208048240987 1.1750957822665187 -0.28013557337916917 -0.8531390801025114 0.6073891832920637
P 1.8205274239285336 3.171825113141091 5.906143103568757 0.25926130103332123 0.531768154222639 0.42715408035497404
P 7.294865243800047 4.198637648908872 6.002719137548859 -1.3254129356142594 -1.1861864138790474 -0.3726410369087582
P 2.5224641448785365 8.574035941378657 10.115704734684538 0.11206924459412958 1.6184276789489416 1.3525696985347093
