# total energy = -340897.37705651997 ev
CRYSTAL
PRIMVEC
8.99553598623119 0.00000000000000 0.00000000000000

0.00000000000000 8.99553598623119 0.00000000000000

0.00000000000000 0.00000000000000 13.16587619856592

PRIMCOORD
 96 1
Ni 6.398560563497652 1.8501927982123443 11.52921295631131 -0.29999323153504465 0.7989813631131853 -0.690869817615223
Ni 4.856995601446837 0.6462536813775445 6.1292027386673515 -0.3880658561042607 -1.361538477692223 -0.16689647684665448
Ni 2.9911415754879176 1.603760096249445 4.971605923373061 -0.9631126185098768 -0.1803261199889991 -0.31180590789925655
Ni 3.3100872911585353 4.13114582150939 4.5758527252260786 -0.178714295417189 0.04698973848597714 0.33954374013415717
Ni 4.832446784375957 4.395731514622541 2.6147035917105192 0.5245117297705418 0.8300780845179897 -0.4042895170519747
Ni 7.139999606895645 5.877215293376761 2.5368670199439713 -0.22793960810190422 -0.03505699160413317 -0.19867993990583846
Ni 4.818017945027591 4.53310234111188 11.339782265756636 0.653327597695391 0.24528658402078404 0.20165059249838818
Ni 5.632842569101378 7.652556238585517 12.157448579574906 -0.07826720844302004 1.1535951102065873 0.4584107243764105
Ni 1.8322826865274335 6.506075206821636 0.3799840239713676 0.1360059579153851 0.1387611520630191 -0.02509242419225356
Ni 2.618195658689968 1.3146795592799347 0.3973687963682831 0.7955186013755654 0.5762343549558141 0.6165147997424156
Ni 0.5219389754806112 -0.044649341711730274 4.580184075691314 -0.1513623857667974 0.15350282914856792 0.8777905601026045
Ni 8.697198810085775 2.117153312764378 1.3549264857939778 0.24447617230434673 1.0073682458941426 -0.018444322748116623
Ni 6.958883490037787 0.6807659538488297 4.860051384942248 -0.793138531179163 0.05174165134866573 -0.9177082222331486
Ni 0.7260593759204995 7.341463625627571 2.4435203454315055 0.24850123430333979 0.07136482489623194 0.2550968852429865
Ni 7.697192086993617 3.8400143023881173 3.6706202681704436 -0.6900650623257406 -0.4501258586597989 -0.05098446146766704
Ni 7.644721126944353 3.8586080747902827 12.6360542602245 -0.3077561633099151 -0.8183021749289842 -0.05862218051858291
Ni 7.982287601624395 9.016225485578172 6.990277010263388 -0.34558300434970163 -0.7192455405444388 -0.047891681474956226
Ni 6.881836726310384 0.6236137169935245 0.38336904407535155 -1.1375252012279184 -0.9278460819980989 -0.19626336004454586
Ni 1.8746246733184306 6.437664157417444 9.03552990530485 0.05194759671188473 0.17335123133306274 0.012635172265507269
Ni 0.08718743118215036 4.613270555745694 1.2593183335931206 0.167549279939305 0.3938559804234765 1.018656417213452
Ni 6.386506545588168 2.2082241167312477 7.122870307714125 0.34025490726856883 0.8452180254832218 -0.8496966300798656
Ni 3.2777393445895044 4.354118166227565 0.5408898706521842 -0.23680888556707605 0.594871253330711 -0.43744106410327893
Ni 5.642935560216631 5.4665151130220195 4.792694612328348 0.5491621813293704 0.7648805647747343 -0.7556101952164019
Ni 5.188804933244738 2.933777043988834 9.399184333223172 0.8930060915007781 0.5650994213849171 0.29576479527599386
P 0.2694549766164364 5.395243483248263 12.322851294578818 0.41181436467411014 0.8797394562988591 0.5188789569647967
P 4.024350821045672 6.190583776880304 12.580639061323167 -0.6758088095170426 -0.5526462832232288 -0.4995085228579849
P 2.4958203903014557 8.349323451432397 1.5193154039184897 -0.3074805410510253 0.13884265603323184 -0.5157848914205052
P 6.238925786018783 7.803654252634462 5.8067829470887915 0.573459106203522 -0.18435375309115345 0.6281690961518924
P 4.65948062291063 0.8289584098494431 12.59987511497812 0.7475253613257384 -0.07631368426107503 0.07596247156924336
P 3.9428962447991296 6.092019691630898 7.9509120724703015 0.3702241999371495 1.3972588139119677 1.4288800403616748
P 4.912264173115391 1.0260038214193252 3.8381162443441617 0.21791744797921178 -0.559280757820611 0.3027080593630464
P 0.06992319896432972 5.644257903972373 3.619220676429403 0.6321141968425694 -1.3511159968073183 -0.20146778706362078
Ni 1.5105663458447858 1.002939267747747 2.7164754850095685 0.21409190358553454 0.46521977687844396 -0.5228718801742737
Ni 1.7204411905060892 6.585388845558883 4.81796037359877 0.5901270537775063 0.14801403811985475 -0.7886897513791902
Ni 5.842915315549254 5.61752317171343 9.201722428347908 0.2761310802054664 -0.18633401674597588 -0.15625005287640187
Ni 8.652868809893286 2.4584349437105524 10.333356328350893 0.022433646413167817 -0.31242297265796515 -0.19727328936629898
Ni 2.4754994750346486 5.147083638420721 6.701035453203892 -0.8957653994134702 0.10406694311494337 0.5340829183987447
Ni 0.5301617947127444 9.12660070927172 9.187437517571597 -0.040199712147337224 0.2903935036617515 0.25529665995861833
Ni 1.5742817255857318 1.085941076143866 11.342560087197269 -0.4404649385312673 -0.6534605237288295 -0.36603021646045997
Ni 4.133529638484027 6.623224068937454 1.6334507615569371 0.2516323237331537 0.7828163233175486 -0.009982565134008616
Ni 5.606656564523389 7.84963043586981 8.015451443286254 -0.29736196455978464 0.14801403811985475 -0.4667904637996735
Ni 5.4910549345571456 2.973510325411361 4.611453457523519 -0.6066844439155551 -0.6783804268989607 0.36715790230699996
Ni 0.8341884143364381 7.423403960804794 6.893126123680832 -0.6314202560993384 0.15101965771539796 0.5412452404751389
Ni 4.968729151039141 4.561465265342178 6.89279688707226 1.3355731639767128 0.0482187257970718 0.24434170360901147
Ni 8.243374031329495 7.182566482080476 9.14704486337835 -0.13041792230464636 -0.6224553335965667 -0.8431999666119285
Ni 4.695849573961406 0.27785051013503376 10.263195647242675 -0.7148181009007044 -0.03086635056155329 0.23806641212326096
Ni 7.936941105891782 7.244131928776373 4.475686535059001 -0.2380407010916481 0.037369184677077574 0.7771642672380938
Ni 7.223891973331345 6.150859490993531 6.8250587037424175 0.03751470911600636 -0.3217378223009878 0.43329310337317634
Ni 2.1022207234138244 5.31865549184428 2.6356110159084447 0.016963881547848204 -0.7239144067750177 -0.07000162600011817
Ni 2.3226743181210625 5.3056479471449425 11.388904187844929 -0.21048798828436008 -0.5343258876474862 -0.17115448079206005
Ni 0.9584113657686871 3.29646805002797 3.9383876822795525 1.1865260566066533 -0.13888919300045113 -0.974242152764135
Ni 3.631632716661869 2.403373269364325 2.7130265966017357 0.38991576482880586 -0.2615655236864657 -0.28756914683907897
Ni 1.0825137770218414 3.43733813992536 8.254371973341534 0.1002434556037951 -0.2778886863265214 -0.4520726979735247
Ni 3.634934078283347 2.7831557933348168 7.133508428296031 -0.6617685293738925 -0.6002715984106758 -0.5155010416314992
Ni 4.0963780758227095 7.058563021720609 5.9179956551609765 -0.14250390693490297 0.21996584586780826 -0.3737810640504724
Ni 0.7007495365248867 7.444993246612824 11.370419261425381 1.054829010479267 -0.7119616052885158 -0.07608459896940444
P 0.25444952342628085 5.5238166757708305 7.861804993958387 -0.17617070305972887 0.7341548535561033 0.9476518038701164
P 8.366693830972109 1.8768645617210136 8.10554533207031 0.9787243569052048 -0.08127977001709873 -0.2239996496175497
P 1.9474075530987491 3.213070438058704 10.417183027375593 -1.3001438766348254 0.5260536203363649 0.5165811620695556
P 3.7735193020993876 6.157156366020872 3.8187488558672085 0.026721218044928174 -0.4001839795240334 0.07579663541534043
P 6.910019739825615 3.949391021613045 10.584508088369997 -0.9923476041155942 0.23504253769527264 -1.483775921068606
P 6.364998219601919 7.778709631990434 10.073580548205056 -0.8400385381648114 -1.1487820050886604 -0.41163104501871045
P 2.320713291326833 8.606361890048492 5.731224044974991 0.4581273888080368 0.114991303336931 0.2941241743487773
P 6.643266122595908 3.8633936998110623 1.524647957513073 0.9354231230144083 1.2201452873229954 -0.6190771611529531
Ni 4.93363756606534 2.794211306775679 0.4434835108542334 1.037723204036916 -0.6162623174119775 0.010355117982078941
Ni 1.3087155190754667 1.0773323484279143 7.132560298827629 0.5225787744138871 1.0072507464796716 -0.9815111756217226
Ni 6.803467618827238 0.836656789347156 9.122253166842128 0.1141299837779002 -0.4585842738397973 0.9371868997830505
Ni 2.851629811489283 1.7486961683073474 9.165832939352786 -0.3641867354938179 -1.5342867853339641 -0.11722224954997876
Ni 6.380866344670821 1.9683041826537706 2.3421964298129727 0.07466175047994884 -0.6910073716343519 1.3380884741993986
Ni 4.007412227222123 6.836094427004622 10.27917891516922 0.2805492638778201 -0.04446517229191052 -0.3992267578170866
Ni 8.134905861215655 7.047210655599887 0.34851224258471314 0.02042227241009386 -0.06377158593000629 -0.2822060827549527
Ni 7.629212823305585 4.009193343301286 8.301203632027027 -0.4837224636683218 0.006345739712369716 -0.23408480176769364
Ni 3.1035857724047364 8.236798294693799 12.18174012432324 0.10279424705010684 -0.10577287006245654 0.5541717187288198
Ni 0.12017765900396957 4.848548793374445 10.124716570748525 0.5624275309797089 0.024200251395287354 -0.033006793943323794
Ni 8.477500840381818 2.3119606350388278 5.744534739229216 0.5777307369956824 0.681486319517794 0.2464412664505175
Ni 3.700259658924142 2.4440240954336927 11.468768353370281 0.018334793753445842 0.22089427121934863 0.11392892351068766
Ni 1.095026567254745 3.148437513670917 12.541010128115378 0.4175353263182874 0.6202498413048156 0.2790469683006807
Ni 3.1459817324102537 8.390325103396147 7.80114989548073 -0.1094624030989018 0.07238863817505597 0.9382423376307584
Ni 5.59805683234319 7.717566975474945 3.6829828329562666 0.07917840740337977 0.10269345980618443 -0.3001981484569991
Ni 3.2873375812383245 8.360531888981066 3.6274488929829882 -1.0355326241435006 0.04001922070541494 0.8403694391416687
Ni 3.2872386303450374 4.346561916194754 9.145017269619546 0.50275376926816 0.40736429932255647 -0.014405633902368738
Ni 7.399745701773496 6.0773569683529445 11.223922463914274 -0.5680253367824604 -0.02073054767913204 0.5735688923085089
Ni 0.5406658818119259 8.975574659508803 0.4859028592527093 0.5415105783213835 -0.41195474690671635 -0.8105209883216685
Ni 4.6272676093779 0.21019958350199908 1.785898105968883 0.16602487287497858 -0.24689326638627154 -1.31608857288954
Ni 6.070808218324509 5.647199444163716 0.2016772129292796 -0.6381840571857331 -0.6478683743530326 0.8989656515183228
Ni 7.812119051778359 8.690641064521586 11.284182658372359 0.34008495734960786 0.7813186557260996 0.4130515795153209
Ni 0.0886204200276583 4.85711254341163 5.82788827307329 -0.17055515664516435 -0.48875976898191303 -0.7512058955011192
Ni 7.958287512234469 8.785615931005406 2.366816311616304 -0.4267185354794522 0.4161376746398124 1.0275706889839462
P 8.415890416007155 1.6204827972149143 3.5138802540970016 0.2882232354833101 0.2230239159678417 0.29525803084290436
P 1.9395814369933384 3.181541085243228 1.7653334116831596 -1.8210915432031927 -0.2803885699302397 -0.7648962485040182
P 4.796410668148055 1.2019205186117492 8.214532544597118 -0.5593892583740173 -0.895429099119974 0.020411473776816458
P 8.528658452211094 1.4874388234229345 12.34066515403117 -0.031885278744370894 0.2694714087971037 0.3252116397822012
P 6.312212415801288 7.596001305304235 1.5279924977061667 -0.5415450311037447 0.3970469765569485 -1.033324303638272
P 1.7486062129498139 3.202086888903869 5.989433702346171 0.16073379967936835 -0.8177023365614563 0.11742742358224939
P 6.913168177339286 4.035370352343521 5.82550535565223 0.6210335135483755 0.15127291137678464 1.2528923998470294
P 2.362659474544683 8.35276874162593 10.075870811607858 -0.010172055436995385 0.7510768261224227 -0.042719650355713526
