# total energy = -381168.9762017035 ev
CRYSTAL
PRIMVEC
9.19961786924240 0.00000000000000 0.00000000000000
0.00000000000000 9.19961786924240 0.00000000000000
0.00000000000000 0.00000000000000 13.46457066325842
PRIMCOORD
 96 1
Ni 2.8829117994894786 8.469030066192753 3.691675950983573 -0.7462462375029987 0.2128513463102141 1.2501220361907437
Ni 7.653355161877656 4.065375461756428 9.397839109175132 -0.31124335052756724 -0.8505692624928061 0.3311920257353522
Ni 6.986198885813741 7.5742568488385285 0.9527924463428118 0.006164991160131318 0.7739897261648542 0.032169128533376855
Ni 7.353171636119719 0.3241420901505623 10.819119327328094 -0.634960408042113 0.6620976305785371 0.8306722664585628
Ni 7.60536075630367 1.3370080401157864 8.335470936293852 -0.46517838211754725 0.4107452999796474 -0.3088691938684358
Ni 3.5381637702413866 5.337838984044519 5.519612390380589 -0.6481967042267288 0.12111927061153979 0.5467764547060131
Ni 8.170106888060586 5.655989363182941 4.0811647656258225 -1.615007340413483 -0.11452824765758339 -0.9524852207030178
Ni 4.053728745740199 1.2592436716440787 3.1602830332209986 0.6416000248458176 0.6522449061541735 -1.227830314672079
Ni 9.068881939117071 2.249407724995363 6.084289525004706 0.04823723773983305 -0.47238724116116065 2.704345440413214
Ni 7.764238154092195 7.389537724912889 11.607106142232414 1.3064330520776468 -0.16952028762274673 0.4744009291570797
Ni -0.014719388330147033 5.364711067364745 5.989956645043877 -0.01691400214651926 1.1026494723966558 1.6383478149116364
Ni 3.7782369939060843 5.51996381577697 3.132141402657299 -0.7877479562912111 0.9284875722368396 0.1301276447577372
Ni 0.6852399645892705 8.968698102295006 11.201930139477309 0.34096993105772244 -0.4002042912390075 1.020899447611358
Ni 4.2766354827648625 8.993748661309375 8.405029245771503 -0.5258047375503526 1.0923786865982672 1.1049236131428133
Ni 7.446032577247535 3.7647227554954683 5.300503255545102 -0.27328538322655516 -0.041260549311683783 2.0408275324483816
Ni 4.954417317279602 0.5935823334574449 10.698894123332765 -0.621230202940214 -0.027457839100636584 0.4272528107163674
Ni 2.761872429327138 0.3342809888247216 1.242747837134837 -0.3999384391721306 -1.9341056682090947 0.6046722985815328
Ni 5.112669141064096 5.525741175696552 0.042003614523615826 1.6220213098374712 -1.0647879214641918 0.6018739099007893
Ni 0.7058664274486597 3.5097553507642028 4.437222169523226 -1.793911383243975 -0.4768751017291851 -0.9213381056762521
Ni 4.5013453448599705 7.135499481569965 1.6019064321610483 1.0737644139311895 2.226940177212171 0.000150923755567482
Ni 6.500173882769993 0.7314984023020694 13.272201988533013 -2.566348677320045 -0.48872634464081643 0.17213792775125192
Ni 7.166603389035106 3.5075014444261488 3.1905911737545423 -0.41533291935032984 -0.44144041507065906 -1.7692719874287401
Ni 1.125334036310566 5.726743622962417 8.367745955093012 -0.8286382667476696 0.16096468474325182 -0.7939103763481812
Ni 2.296224579502937 2.4646419808529383 1.929459740557122 -0.9117437771195974 1.1108831731603577 0.4477113356810354
P 4.215292431898976 7.877954628560286 6.62299337895851 0.679168727128211 -0.40047759950505224 -0.6023156254238982
Ni 6.310247775222565 2.318506053587697 10.069815984917168 0.5655197967517873 0.5552837208460759 -0.47707539066544935
P 4.212771736647437 2.848744419328125 6.308339774510269 0.8933241369618293 2.17181649676515 0.557732953717517
Ni 3.3234446929753667 0.2149555074410728 12.51422800643386 3.121039758887444 -3.066468351399467 -1.0981359007970186
P 6.366255047818774 5.8522356080946265 11.084411463011186 -1.1127104561770835 0.28668545868254497 0.36768677822727647
P 8.843003725573258 3.829018883645092 7.710984327075494 -1.2484181661257596 1.583495128737815 -2.073152726943649
P 1.5951309137203273 1.291433133998569 3.7848910773930817 0.16527153964872182 0.34199271589528196 0.02970961124929077
Ni 4.623948650032388 3.6949252559574526 2.036328019604613 0.6422692829987003 -0.3323423372897115 -0.604952805936429
Ni 7.246373274166797 6.898784118368081 6.346229319995609 1.6279140211728222 0.22171856689285682 -3.380818365876816
Ni 8.322176568746418 1.447256258708588 4.0786744291127155 1.3981386454137599 -0.41816601792375074 1.5410264180506428
Ni 2.9718169050035668 6.811479746334896 13.041123231099805 -0.22425753126462666 1.4878855723616051 0.48046744706613376
Ni -0.16970534782888896 4.710379058383471 10.900134840697222 2.3824111858307035 0.7054664844824754 -0.19383238200555006
Ni 7.559620257067738 5.014877204845681 12.540860899693723 -0.2869929626206348 -0.09509970661932654 1.1469457232108697
Ni 7.401368433283245 0.9662634465502082 2.1719837423787896 -3.252248295414186 -1.281729892904012 -1.6046375671433848
Ni 5.695667314350394 0.734974937833296 6.688861721774147 -0.4397679124642427 0.38270022091697314 0.05438474539846763
Ni 2.306859337571468 5.003506477360642 10.08967611962162 0.003498242961245588 -0.27785217666163115 1.4686609198040383
Ni 1.4689489572601422 5.057637027944758 12.58983138470635 1.2220833848859727 -1.2063574895102835 -0.20850258242321512
Ni 0.2091772275597195 7.674385487954353 4.723102129671342 0.6526385420481664 -0.6281467275543892 0.1883867855099465
Ni 6.256807195966425 7.91959209829919 8.065183408196216 0.40742317758495 1.1202005939065418 -2.9495716035097073
Ni 0.3106066926192214 0.18772279910675954 2.0609001984982527 1.3568608697108955 -0.7678897839147033 0.46348608201678887
Ni 3.930159480708615 3.1239601826310492 10.43792304808634 0.7989957612908886 0.08773401028287471 -2.2839363920915567
Ni 1.2883880605377698 4.786763484199227 2.6645579532676833 0.07567013713980517 0.4373837285027822 -1.2463121755263504
Ni 6.455822525807718 5.588114583745551 2.1944694479766307 -1.1339266852433825 0.0761326785985205 0.04370746819027957
Ni 3.529157344506878 6.697165296715892 8.485317989341832 0.29870947972661455 -0.7703243614981249 -0.9832924358918613
Ni 2.1721953335860356 7.263346568834997 6.200609491283694 1.181355053928675 -0.7905556009433353 -0.3785918551755544
Ni 7.807687948519248 0.015035855179245194 6.22020099715112 0.9630221156785995 0.32238034098099316 -0.09347836896581967
Ni 4.846515001201918 2.1417261997426316 8.364621764919939 -1.6423967881700294 -0.4088470545156701 0.335300648587087
Ni 7.7357009399671215 6.175942556327679 8.38897959272102 0.8866477533829182 -1.019795930134534 0.5208579350680385
Ni 2.9441444549428906 3.3841989683080484 4.25636596507248 -1.5590516509834698 -1.4109118859190282 -0.3825963483492572
Ni 8.675377491346003 0.8085608399427836 13.180952820427349 -0.0507152669666804 1.2713783744663587 0.3677274016572248
Ni 3.3871428459740778 4.299027352262099 8.017410713408953 1.4539917478276378 -0.3171818274991893 -0.13337546227107352
Ni 1.8511470748701162 1.5874584325532384 12.525793765814274 -2.038200122127864 1.84002926064796 1.481830624416777
P 5.396569343481807 0.12937330384251544 1.856589568705188 -0.20318914063010168 -0.5963750915697471 -0.9442947144724252
Ni 8.958744115936746 7.004690117403488 2.426248296317291 -0.17456350647360902 -0.0689839833688812 -0.6941652005370431
P 7.496786868133423 2.2509440611523224 11.911984232905896 -0.9108780866851925 0.7120582787673801 0.9106263756857027
Ni 4.120021190932099 5.524379632276014 11.478600362339606 0.8039266229336026 1.0786148000449554 -2.060204651423413
P 0.9244235852217654 7.268185567748533 10.112444253483046 0.7432251912884877 -2.4647119409131486 -1.5276839353054656
P 1.9332996609877493 2.927152761039277 10.942238731053838 -0.2566729714808548 2.1628618586750235 0.15155830382768737
P 5.670984740044279 6.309511805806057 4.073638558380265 0.43945295232698506 0.5828747430904672 1.0580984252591583
Ni 6.7730437435578 3.163178152913184 0.6241775020634261 0.11568524408016206 -0.24198451623074455 0.36375633282461867
Ni 0.06021425777331961 3.18813671575049 12.894614719317456 -0.535099275478401 0.5026010457403796 0.8825442727375058
Ni 7.319482636079096 8.305506861462526 4.033123442001535 0.0473023846303895 -0.44591027791655463 -1.0903775970078382
Ni 1.9586262085333086 8.699682881326158 8.609394153309035 -0.6312675325715579 -1.0791853278364445 -0.3292212751622266
Ni 1.677835476900341 4.034280753908992 6.518279650377844 0.8033198425875392 -0.9873097845813708 -0.2160847656458472
Ni 9.375422400710088 6.608490181644462 0.05746817188797655 -0.5636020109037843 0.4826343728104655 0.23995411606427702
Ni 6.330919316208715 3.681815800725915 7.606364434595432 0.12287790517385935 -0.05867565946433766 -1.566038623824264
Ni 0.31179804311219267 7.664275108095083 7.343509277642749 -2.0021231738996486 -0.17614396358685147 -1.3758296975039142
Ni 5.58605386937933 5.3661646069623465 9.238189863461045 -1.0978638780825543 -0.6566990852707851 -0.430802989961471
Ni 9.323168572138067 1.91099058804987 10.770309835625326 -1.4533304600945551 0.8888753571618562 -1.5523212742381718
Ni 5.816706684512734 7.713419465882362 10.033380898991203 -0.7527205323734327 -0.4876145996338763 2.9754579843581657
Ni 2.5705111814175208 1.5930058020301627 7.2943906787850485 -0.3632508539431099 0.812449572802949 2.471949853422484
Ni 2.6818817533704955 1.0381032612190322 10.023416793053464 0.36811615245521123 0.8973078041999256 0.6297310413223735
Ni 8.3778526551052 8.35639914661401 9.18936749229349 0.48248370616521413 -0.03867093420763663 0.45975695399165983
Ni 2.203400436845947 7.087744266056343 2.0254080733871858 -1.271302784033417 -0.5031450911693077 -1.2661682910203291
Ni 5.010056605167558 3.9060104842294674 4.277962987599889 3.4489369159216086 0.07267660172912 1.9935801694256443
Ni 5.383450688632562 5.837056238879162 6.8194410954979645 -0.727379996726115 -0.026024706198535825 0.276662270118588
Ni 1.2475693567747308 3.008679773152879 8.691946002835124 0.68386150461819 -0.577305990753438 1.6001507350166249
Ni 3.56876169873268 3.6479336087134584 12.629295904743016 -3.212209534324745 -0.1817116874826161 1.1576880493290385
Ni 5.515676793925815 7.659868491213746 12.552035675321616 -0.9990568978149696 0.37006607709273037 -0.7569533395078576
Ni 3.5380533748289107 1.118259530294389 5.427730288576728 0.1359589067275336 -1.3914658613792745 -1.9544186687348337
Ni 3.3670508809034274 7.822591329203521 10.484039811686461 -0.7062892374940868 0.21135033628465538 1.1993815724130827
Ni 4.231336565178836 2.0836950112510264 0.565066278453097 1.2815535152271478 -2.264221687271449 -0.18621111801486642
Ni -0.2560437600029076 2.508809345461086 2.118677477541162 1.872338771413943 2.53577131875382 -1.413528497606269
Ni 5.2016662427552465 8.742442704425235 4.754339431593226 -0.9950639746054927 -2.2297997581481535 -0.252056812865082
P 8.117843859870858 4.877324520900458 1.1548169711358505 2.0957192993902547 -0.42144417445439036 0.9160915125653321
Ni 5.57272362332284 3.3905743033785436 11.950573869298688 2.54308070793104 0.7010359595149476 0.667797766287108
P 0.4282247249565732 0.8559683099071046 7.916117402691504 0.0018041430882743121 -0.21106520094406875 -0.48922693842631876
Ni 1.2483053261912382 0.24500973852592114 5.901225412304439 -0.31852394334938045 0.36768780666854095 -0.819199489932273
P 3.1989462665554416 4.975475242209418 0.8642571654605187 -1.4787180469297243 0.4042005568825942 0.9849209726342198
P 0.901375782982067 8.647962630581103 -0.024862886813159606 3.0251378680817966 -1.6760299028434429 1.1622684696108692
P 1.892904139639202 6.250137473129326 4.183711064274874 -0.22234694450547512 0.5733056113447933 -0.02140546225896959
Ni 6.02107619185912 1.6587462701596818 4.4527198455113295 0.5959400609148574 0.7544814809285975 0.10598575740421103
