# total energy = -340888.4053779518 ev
CRYSTAL
PRIMVEC
9.06675079305016 0.00000000000000 0.00000000000000
0.00000000000000 9.06675079305016 0.00000000000000
0.00000000000000 0.00000000000000 13.27010626684341
PRIMCOORD
 96 1
Ni 6.672838478175652 2.108844643350462 11.325677404428244 0.26068209264024783 0.35402522157978383 -0.5314776195654136
Ni 4.622574111966985 0.27759761697540075 5.897832563693225 -0.1380281305517365 -0.10155703220889606 -0.1543759757821406
Ni 3.0032614796736063 1.888567931825943 4.681216043014455 -0.2677022327118228 -1.0329075278158277 -1.808093331171312
Ni 3.3317770626605547 4.492003833199148 4.626423854371319 -0.7185318023068658 0.24190275515021564 0.15341618297203255
Ni 3.9118768478035992 2.6708743940803203 2.379064645171819 -0.480295954485276 0.6593946298250772 -0.24291911222987198
Ni 5.135634341439633 4.803065920829657 2.6860820552550506 -0.28098686563587094 0.40622658617368745 -1.009164932783249
Ni 5.41371158953418 4.918875529238904 11.186209016391416 -1.7054957735130436 -1.1318782873547863 0.943182455244853
Ni 5.781731005907105 7.790197650768662 12.21845043882509 -1.0115730280041095 0.4513674443763839 -0.2513621007909026
Ni 2.037779450309541 6.7190154401758315 0.24096885027904735 -0.35651379232959246 -1.041378027180684 -2.6440890667253174
Ni 3.0317673442973185 2.2346186109268413 -0.019945038485764052 -0.7348336247906827 -2.7350045600599673 0.9153764887761783
Ni 8.161227228418648 -0.1678672650006942 6.727068528267047 0.4448898070718402 0.4938027307224592 0.4313218385794184
Ni 8.592423764606467 2.4582590870109655 1.4939348817284677 1.657367550547249 0.7655225692341074 -0.9327124089514647
Ni 6.669792049895254 1.1082198877518203 4.872690407162973 -0.13699506130153177 -1.1990367874791543 -1.2321237998411103
Ni 1.41852036831223 7.370370820127323 2.233107183562728 -1.2064577625335737 0.934040897954901 1.6734498008210923
Ni 7.633034591803196 3.78479726810705 3.594301206373576 -0.2481806177391274 0.4781390560432733 -0.14187450088102016
Ni 7.695005833757099 4.224081346039257 12.61145782049794 0.4792181480400651 -1.0567969328389155 0.2504323898877816
Ni 8.238775148306246 7.370488687888172 9.094229436268233 0.8094575800541607 0.11100069412029916 -0.35076429144032495
Ni 6.821524125110848 0.6531542233170585 0.04833756872404486 1.6239637782758225 1.535956459726903 -0.1450809236334598
Ni 2.054734274370082 6.573883959567765 8.927225325946985 -0.43411508505383944 0.43237136288985534 0.6243324960146216
Ni 0.08733275738820644 5.432842433795003 1.2346929018175405 -0.207762618933397 -0.7561848367729492 0.7234865752089799
Ni 6.361341186505086 2.05328359423656 7.013583294688193 -0.637993795551798 0.5751136110878096 -0.6198258663935196
Ni 3.5961181832408124 4.397419488493497 0.3447523203813962 0.3233599312854431 1.0665987494206857 0.230492456430745
Ni 6.1348628174097595 5.723930469337079 4.698984154624853 -0.11589144655369718 1.0727418862039462 0.4415458303002718
Ni 5.4575583965698895 2.965861132481236 9.40347636038167 0.4262955890094206 -0.34659859009840954 -0.8696491619423926
P 9.28562219965924 5.917215463627249 12.373883561731333 -0.015126057008161045 -1.9543551624867501 0.9517221172847481
P 4.12243400243352 6.132605196451966 12.424920302178814 -0.18447330938815326 1.0062678137411123 0.3271906178854429
P 2.6834046437336188 8.74136328056503 0.9765470920825063 0.257441217105447 0.560764284344673 0.5995748294539675
P 6.488701835477506 7.9046472465527335 5.849197605541808 -0.8159033356795045 -0.3237121724185392 -1.4843893862828887
P 4.827183478049464 1.1601633032827514 12.49626021777002 -0.47788066017556413 -1.2451654635164167 -1.8102664275632305
P 3.9986184530373956 6.159007574882071 8.165533935065042 1.3385152773241722 0.8025562249486372 -0.3381329758295596
P 4.7802993094841915 1.077365734661969 3.599316932935229 0.6045092906411073 0.6446830346465156 0.6393577657788602
P 0.14736462133860753 5.592553249744969 3.6269723363306636 -0.7196170649512444 0.7000897935515943 -1.531457286304969
Ni 0.9023221363757569 8.910675785648746 4.603280066191139 -0.8435403806704826 0.3712978926173025 -0.4802365620022504
Ni 1.830259657209183 6.592497999031022 4.553623285220673 0.9838598783595572 0.07858448257312273 -0.42808584814062406
Ni 6.017239858833609 5.918774944770786 9.126568723144779 -0.012306842391811065 -1.1286363833787207 0.41403348381261595
Ni 8.750838035187098 2.18884058596338 10.032890203313638 0.13650269504614557 1.1810660619333464 0.023882720154868548
Ni 2.762031506970525 4.876497535838386 6.9958677702326355 -1.1613151045586645 0.07076858607312973 -0.2624037033170449
Ni 0.762705960300325 0.38550827205762034 8.692131730208702 -0.3757315029086239 -0.813908930957295 0.3087108139137006
Ni 1.4531734900017428 0.8873692508994764 11.41783820663583 0.6652690863279833 1.0901827073882129 -0.1908216202036843
Ni 4.074135420738063 6.908311064098817 1.3721684180209437 1.2494471216109062 0.6379308035243465 0.2573211465878149
Ni 5.759490266110043 7.896333036037484 7.879192343584835 -1.0773264202508348 0.5389929541058525 -0.554934050816141
Ni 5.309371420930591 3.363420023073009 4.5440823433175135 1.0724685779379013 -1.5109285702239978 0.5317349869918584
Ni 1.1100241711678887 7.160357670547474 6.747570265254051 -0.5180155805232369 0.8497801909326075 0.17670703517917308
Ni 5.254154908348401 4.592989303993965 7.152083353735896 -0.3078014147255538 -0.2414813513420809 -0.12810058702537938
Ni 0.8958593563809152 7.358157906753233 11.127382123626923 0.26512907266800795 1.3735756113624151 -0.9284014402809366
Ni 4.844872708927602 0.6589007299959735 10.261574512887004 -0.4482209283276023 -0.670127442861549 0.6255206027854517
Ni 8.348908970693088 7.088875406968165 5.022894734862951 -0.2496165788547056 -0.04038637423684657 -0.6622405839143045
Ni 7.1812746647226975 5.98203366534319 7.104948036172508 1.2765864010298595 1.1018616863880377 -1.619039601501328
Ni 2.4941362200631376 5.256167727033662 2.386257298608839 -0.30784538058961175 -0.6893448963302644 0.3014811289344808
Ni 2.440207186099448 5.223890094062792 11.317344153736244 -0.01149437379284472 0.7844194061386104 0.3372965959711933
Ni 1.0042695894341165 3.5672949823378923 3.6640490005182422 0.47441198490067327 -0.5084531336457824 0.017981009958452903
Ni 1.5888846164927495 1.242435000355132 2.6894793667927432 0.1351927179854704 0.5326132758317537 -1.1531994174300657
Ni 1.080031359407316 3.1789207103414823 8.30597155876608 -0.48818255632220436 0.46005880150279477 -2.3432841379222547
Ni 3.958180744315463 2.806159383282105 6.522880766098374 -0.30682182442110384 -0.5823664359954809 1.2128361552560918
Ni 3.999951265410069 6.8439189996720975 5.812333103323757 0.6251038269630074 0.20669098313577303 0.9662578490070779
Ni 0.7260935137554738 0.3022555525449452 0.3759219964002886 0.8698782472340633 0.9503499195275698 -0.643064525206486
P 0.14693576402413505 5.72865424652186 7.909116248039065 -0.41288111537572764 -0.7203254038721788 0.41391109930213876
P 8.284263037243003 1.8122893570551761 7.755355033986708 1.9850487349158648 -0.5012422177196401 0.9209454982235237
P 1.8446123237802186 3.3686334048028543 10.258469150726182 -0.03018577955476091 -0.7619333092209524 1.6276134592132676
P 3.965878415773965 6.452706834664485 3.6679767169797537 0.14815416324214487 -0.9485943702890437 -0.37646375308895813
P 7.221730506946299 4.2071355887295505 10.361258904937069 0.34273705026047424 -1.0075574790868131 0.23132240853120806
P 6.355166729186782 7.875434175363929 10.080065414580698 0.25564453021634037 -0.08704881129039202 0.6775887842356008
P 2.4914796620686253 8.499942906094423 5.8947009079549835 1.4081564346610782 0.5811837285412894 -0.7481915341548275
P 6.7234762815864135 3.84151886132777 1.5458211767291412 0.9061230884987105 0.7149222305787364 -0.19230077585237204
Ni 5.617550281795725 2.9028381474305283 -0.023705926731920488 -0.7559760631962529 1.7824553188882335 1.0553571150685952
Ni 1.6778022419268288 1.3119316455016825 6.642657077997722 -0.8347659769119623 -1.7157578175606838 1.5722228982581052
Ni 6.987672334153319 0.5803101337624055 9.087886337384406 0.27265700561393685 1.1767574072556637 -0.4729251159425017
Ni 2.8376391421795377 1.6694789646607449 9.234069561089278 -0.21605442662854402 0.383725576857694 -0.005919965028860772
Ni 6.600068735977842 1.7821424105304169 2.3788388830760394 -0.5323474237648768 -0.17480133351602797 1.0315358442792815
Ni 4.156932989358846 7.216245122691419 10.156448256986062 0.6438358561548718 -0.589576580590675 -0.9138366550928843
Ni 8.227106239982227 7.7650918177078925 13.100965351327769 0.18906941339926792 -1.7202485063421857 0.7070202021228404
Ni 7.428144156444847 3.906028793515338 8.285668383622353 1.4940819309803044 -0.12067575531621799 -0.5199007133610917
Ni 3.3595213202141676 8.232927094017985 11.998060392915141 -1.0575685208976175 1.3849933662810536 1.8065704667688822
Ni 0.40545784391880163 5.029680291187501 9.874007181714866 -1.1901603109251309 -0.235239227087111 1.331792870998674
Ni 8.447120015732546 2.461650051823074 5.581870803911745 1.4697546670888493 0.07353586440562174 0.3954300097788157
Ni 3.8491711990321003 3.0276873064217873 11.230623402029366 0.11809796728671275 -0.8498462682838526 0.6341523103185207
Ni 1.0522599016011995 3.7195801293543904 12.686513290581129 -0.2326737803527799 -0.4373071096285759 -0.47366687920453254
Ni 3.353682332676741 8.702847723020014 7.936094365147162 -0.7610637621318054 -1.1725323134307226 0.3609432888558558
Ni 5.535079116204985 8.008787946637963 3.502538434527626 1.1259660356354093 0.2661868245085609 0.7868347004483224
Ni 3.2716826381293953 8.517487068959209 3.2706961756386 -1.248896905534391 0.821764679556288 0.26054788105522875
Ni 3.576479600933255 4.285018978398026 9.354695427541818 0.1406362575985449 1.1846370671140565 -1.8156120081458604
Ni 7.354449605661916 6.2054837396597895 11.292634537686942 1.4084731945705486 0.8180815742777461 -0.4626491879377903
Ni 8.608145510553515 8.792835225052567 2.1942788231139216 -1.8514927812028696 -0.921492114755613 0.42321077943650987
Ni 4.935250081246037 0.5118561649618243 1.3772113448351004 -2.449816254748239 -1.2863573643736943 0.048878727978573885
Ni 6.053615663181679 5.701127590988275 0.29330122942077913 -0.023821013678997686 0.11566107571044597 0.61567970543563
Ni 8.214013851777189 9.138287498598388 11.207254758428489 -0.9008389572816357 -1.595520178223149 -1.4529478799441558
Ni 0.45571393711942965 4.9615255251644585 5.794777153682888 -0.5407886125536944 -0.914435722129464 0.47086849052378904
Ni 7.1836320199396715 6.586976347772803 2.5951153441323713 1.2613166193549825 -1.0013917165957336 -0.22888088896925096
P 8.545512395788691 1.299102193070845 3.5530048763476145 -0.04480121547509058 1.5565538242622805 0.48498024733482287
P 1.8233779933257868 3.3509169736722138 1.4444376755726884 -0.09309398904320741 -0.455696410769041 0.9953449961810212
P 4.652920527010104 1.3400657733411796 8.030670549777062 0.43677077750913174 0.039723029621234814 0.29355981720487506
P 8.635762833595445 1.7539629489367472 12.298349367204079 0.21609710694102138 1.609714210335344 1.8085697565870982
P 6.419177990078452 7.936961146526941 1.0908416464273072 0.2904863204858739 -1.3552009655099693 1.6940721050571341
P 1.7343878338850311 3.1605696066524254 5.902808396551206 0.29488907753925986 2.377503978337073 -0.9158498288681712
P 7.063134901348979 4.121345992333378 5.875538330066238 -0.7829003983909227 -0.12825408188410817 -0.5004030096477963
P 2.3716081492855148 8.644022643605688 9.987294420041952 0.5751573198415514 -0.5968957399599075 -0.15647990949902083
