# total energy = -381171.1548527168 ev
CRYSTAL
PRIMVEC
9.19849247701956 0.00000000000000 0.00000000000000

0.00000000000000 9.19849247701956 0.00000000000000

0.00000000000000 0.00000000000000 13.46292353798595

PRIMCOORD
 96 1
Ni 7.0842467295890055 5.682414842813385 0.8915353872549386 0.5094183257725291 1.822451656775513 0.1650033735889997
Ni 8.412242315657611 3.8830608965691655 1.992270253732443 0.0778368057738208 -0.3112387225418769 -0.25967370598039147
Ni 1.467637903376842 1.3363754128960739 12.012158890083622 0.10313183289518368 0.4076116394466722 1.0637111434602455
Ni 3.1514403846302126 6.548811669435184 8.729090834813421 -0.09404786831604448 -0.8766546467259482 -0.7803951154705656
Ni 0.8669110223623656 1.9044559235555893 7.988373933467569 -0.16135137865870922 0.22413180432003982 0.4346470462979095
Ni 5.496108572161844 1.0635849141085711 13.002101591680631 1.9005090632005721 1.035563734491752 2.5401637913945607
Ni 2.283801761497207 8.917533915313502 7.999723033730721 0.6302372915348307 0.05640794647608349 -2.2963743607445934
Ni 4.552324826660247 2.273665022568699 9.078116601197735 1.7139696153120094 0.25735148560511806 0.4133043189560753
Ni 3.6880344548611594 1.567892275048173 5.0236362745232155 0.044393181403394516 0.6296531368965865 0.9477957856471484
Ni 3.158909560682797 7.171246073314802 3.0228574150658454 1.7267377136109552 0.01871043192530971 -0.2283193600388261
Ni 3.857065956267929 9.0484836570433 0.8664437389344453 0.17831500309624126 0.029934325665587156 1.088655729220725
Ni 1.76354421425812 4.184679471401989 7.042751409280121 -0.8013593764270587 1.0428453557548298 -0.2993409426630264
Ni 7.272687050541284 8.456073133256831 12.82216987645328 -2.3119241355537343 -0.4124802803928832 0.820898989121883
Ni 6.517095266689726 8.451722246221273 6.326752697452133 0.12483862844465596 1.5313708972387496 0.3569066568926369
Ni 6.556501609311983 4.60437909671145 2.9949758639168436 -0.923683723090293 2.105608019258877 -2.6903630100911924
Ni 2.514168812064857 8.00877802992058 10.60019486362583 -1.208345209364274 0.4214351755933259 1.2203278356474467
Ni 5.872906427632322 3.8113310506848608 0.37296300387402087 -0.25663774736754513 -0.1905061458457945 -0.16341571738690566
Ni 5.83359206993682 2.570500381210212 6.508112018742738 0.16785087034012386 -0.4825682954592206 -0.07195797839554059
Ni 3.1006831020462684 2.412451880058106 7.444889272373333 -0.2073219318515526 -0.6132435851903116 -1.4697991471735397
Ni 8.263107153908157 2.6079474448925675 6.697535658562038 -0.1606029305284589 -0.029813483817006717 -0.23787306516553225
Ni 6.723904977515172 0.926591762690906 8.152096984751251 0.38101511990506637 0.09136286528471363 0.17605474630715487
Ni 2.4012389174865527 6.056949869085664 5.6566894183475425 0.4536127887671349 0.6041508788604241 -0.23935350636580072
Ni 3.2538931960510107 3.112218011861467 11.741770117733717 -0.28330960023177654 0.9493181358289456 0.8544290025585284
Ni 4.188147303140689 5.394308853721013 12.608418983054829 -0.7790033773293616 -0.47248108642654757 -0.03147801600362321
P 1.6407995279949545 7.96488282287263 12.869168654929974 0.5088112883161495 1.0422033512954565 0.08401568089102304
Ni 5.186901240871653 0.3339807117641086 3.4099023913769373 -0.8376862358825509 0.21095078685339155 -0.41822386774487974
P 2.8979299264907605 5.735775298824522 10.886227512469123 -1.0596603704296395 -0.1626004205744619 0.2949258443144662
Ni 2.3643989543207873 9.042421850370083 4.074163261301762 -0.36779759277352786 0.15175679299173866 2.070089771747609
P 3.9179323823023533 4.274907486056919 8.398656141975755 -0.12495792763133964 1.0015099873411526 -1.191182324431742
P 8.392005631771298 5.48525435080464 6.279524876507817 2.305029722426746 -2.1877735343150384 1.1728395602584964
P 6.396079897049572 1.1794951203137682 4.90874342160794 0.8194483727182855 -0.1514361764275263 0.6047232064241264
Ni 0.32510324648289 7.356540509772026 5.808483864329511 0.2960463310721546 -1.2696691050847357 -0.8663473512626693
Ni 7.62586317682083 1.5033648489288607 11.85061772126259 0.2913165296966531 1.4553816861966289 0.06793908704413461
Ni 8.895751884657688 4.242142455146443 8.64772096860509 1.3580325214214934 0.7540809030560691 -0.12817334924484378
Ni 8.963636760603594 7.023969007085819 12.72784853255771 -0.007634890837438463 -1.7892990812829443 0.43063741091788416
Ni 4.421779818608176 5.48416892866892 4.050253619290083 0.7984805122173667 0.17871558096876963 -0.21568418777331885
Ni 6.842363166191509 6.371207172854759 5.43257274355296 -2.2773841927953358 0.6630815917583612 -1.6650872877890097
Ni -0.023119491490845336 9.030519000847859 11.393712952628144 -0.10379980549648575 -1.2009322047296542 1.5448774163656167
Ni 6.877317438358777 4.393779606903658 7.75419962678149 -1.1184319320418934 1.2096649566169617 -4.177775756581437
Ni 6.013477792700794 7.194334289930549 3.1081449193047126 1.06497535488465 -0.49460234380561907 -1.1840151172593414
Ni 7.114169426262723 0.6587518926614097 2.1145807711413203 1.017582467422983 -0.9029973983855353 -0.16166788145786348
Ni 8.328977559958108 2.159484132986514 4.085741404032536 -0.7092760880365526 -1.1770769953786115 -0.3777881283273365
Ni 2.8610255738762658 6.548305752338027 0.6167902087738715 -0.7611892319660761 1.45277690158393 -0.09128933173430084
Ni 0.8454095457331577 6.623365452570898 8.32174294546875 0.6887126620629043 -0.3678868100532245 -1.05718182698216
Ni 5.938077748238926 9.194206178010107 10.969321176204861 0.8604330426607633 -2.3382653445514245 -1.3804664249449774
Ni 4.681398075884224 7.846958146771477 4.8176939815570785 -0.875794355608182 -0.4215971550924868 1.467088947331228
Ni 6.323089857668712 5.745737266392195 9.388424072211928 -0.005055817256352583 -0.24773273156843142 1.618346689199361
Ni 0.21870704125206294 4.030687505519821 4.911112953321173 1.6259275868704128 0.9369213048264896 0.3950240325896487
Ni 0.6114100104079149 6.3136246087055214 10.600436783983199 0.385603253496381 -0.43064692399958093 -0.4842233145641403
Ni 7.909802248731156 6.9744995134764585 7.802248873121738 -1.2102341988568706 -0.6358397253232726 0.2097310555136775
Ni 0.19311407508074963 3.311346981302789 10.900714218583921 0.13797747981945915 -0.1294686710174996 0.3697089508636278
Ni 5.277129255526583 6.6626522147883716 7.539480132104298 0.4578646220649534 -0.27289071889129773 -0.6168958372309181
Ni 5.319948238931487 3.197911169627328 3.967779014111413 -2.512136195833383 -2.719385108355155 0.731916708254204
Ni 1.188261283833612 4.865965831420076 12.358789368975213 1.2452006876297264 0.310357091267872 0.3340433791412183
Ni 5.487894318202536 3.920544754222223 11.543353111625485 1.658309345635228 0.6273034057174874 -1.0799283766500565
Ni 2.69921488921984 1.8728682997075896 0.5617004361397214 0.5677468863100932 -0.05161720995565949 -0.7749443767686396
P 7.671561288433195 4.703115717091308 10.805127162096186 0.32797840389406097 0.6919249983526149 -0.0819665116714782
Ni 0.39347288299279937 0.4875293102993131 2.787835007355076 -1.432255898812443 1.7915395405776888 1.009714634639132
P 5.497083612385457 1.9919427873931919 10.938989146607078 -0.1952446889720444 -0.18187880918809968 0.14185444627636218
Ni 4.488174538740634 7.74168139809927 12.511970027803391 0.5206920989141356 0.6952157532887446 1.7957517788868236
P 3.6482785695172293 3.5285049963882815 2.3700532677684767 0.6174455390868011 1.2202419608018598 0.7567841609198451
P 3.601780189042087 7.631391470918863 6.640452572565086 -1.139615508098044 0.7979056135505033 0.8181283683552814
P 0.921523393226652 7.497626990430332 3.62494567299631 -1.1218155038021456 -0.9078125603859913 -0.0313772287597008
Ni 1.7355899950169806 8.393642963467554 1.77845221133746 -0.04651562706303601 -0.4322194106930234 -3.035852169175507
Ni 8.43342644428951 5.906186574132631 3.3448773268038754 0.8329358656817591 0.9650550869482284 0.8942160526484794
Ni 3.7933387990113934 0.7394833834780536 11.766689754241177 -2.432426855627198 -0.19875013102214156 -1.2219748843325664
Ni 4.667112816759022 6.942939485106486 10.518124992124887 0.43781798782672343 -0.17972756717305174 -1.617142898699247
Ni 8.170505928142925 4.12235968352482 12.912020752908512 -0.9843463310776726 0.8208807342894379 -0.6495779008449716
Ni 8.844470287991236 -0.22282152702585747 7.188635823718018 -0.020813851421557703 2.1393383216317865 -0.4177561840798418
Ni 2.7975007834585934 3.890474881665697 4.62004504958726 -0.8359898220167344 -2.164571642277279 -0.24890952548535197
Ni 9.013308621051817 0.4542951562623814 0.31173507707744497 0.6796132708647974 0.5131592808722001 0.571629509193951
Ni 1.9352800725115147 4.289827441176738 9.516321754071964 1.04635259757714 0.3365499476131559 0.27175917639001584
Ni 4.17822212954372 9.02368452078989 9.258197332006432 1.286118766000327 0.18374748696572224 0.11606833845119367
Ni 0.5267176486451588 8.818935272323777 9.317864274595959 -0.5697227790895414 -0.7742465793706665 -0.6970350658856704
Ni 6.388757896879798 6.162723336362354 11.903203664190444 1.1315515001429866 -0.11083357241481559 0.9496117558099646
Ni 0.6114560028712929 2.8062669469784374 0.33865078649550917 -0.2304988841886482 -0.2776290049072315 0.036791457796736635
Ni 7.796007695841346 7.445453139974346 10.335473282613362 -0.21132333970146186 0.13573342098028882 0.14603351735471623
Ni 8.305797358415603 7.656678127284079 1.6420192481237386 0.037809614648605855 0.576842163743142 0.5704696845578949
Ni 4.388315702254355 4.319437389099485 6.101733650526076 0.4343986777325293 0.621542077753678 1.9360170262991947
Ni 1.1410638179151242 3.0261293189105554 2.83370329108194 0.4515224818970095 -0.4308842368213676 -0.15921864858642257
Ni 4.591124068765915 0.6766346822720376 6.9606548621504185 -0.32974295199365145 -2.038630524797063 0.3093278786724092
Ni 0.6700743172958018 5.821753609863327 1.1872503694885639 -0.9733476659743235 -0.3247208161887117 -0.27755624268776713
Ni 3.0519770833289828 1.5939975972615172 2.8148013084828563 0.05267830423032218 -0.9975453462664498 -0.3448427837495674
Ni 4.763356645623793 5.587274833069685 1.5620355947616205 -0.2980286516095061 -0.06491804082962367 0.4545234735068624
Ni 5.252182943390364 2.037539715586126 1.7461277882261448 -0.8066113688546173 0.33319645775989065 -0.11459715322230588
Ni 1.885773784931452 5.309461957281306 3.1495970066980226 -0.9919948487618658 0.29335747138608187 -0.21699904993000046
Ni 2.546133574112556 4.245895440158087 0.7367265952231773 0.23131520944235645 0.07507158432385781 0.11443774482630613
Ni 7.003980682501747 3.0457221083095765 9.424234724047295 -0.023976308309939354 -1.9528358976287465 2.3118292618470835
P 1.662324000855851 1.2886536328950768 5.994864642771723 0.15628887653413728 -0.38034868996566107 0.27408679608192793
Ni 2.393512183639052 1.907114287938837 10.019283375533126 -0.7882475216354489 -1.0532254134375734 -1.7168515648454947
P 9.017696302058077 1.5234451584396886 9.900728602683694 -0.43683119843342183 -0.16744129360653098 -0.13682613982383532
Ni 7.132161677936191 4.030135595959285 4.947476434566343 0.6035425558524639 0.10893224162704464 2.8551658376336118
P 6.315436711762614 8.11241744689653 8.935625510707867 -0.8166988349976063 -0.05278937588688973 -0.24214932394338298
P 7.465091921836747 2.298583739226891 0.7580772165725054 0.3658762073810989 -0.4507035855401399 -0.6688663167609384
P 5.725335009637719 7.907217472289313 1.0608262861551596 0.8859401857929323 -0.2928692188957537 -0.4027080314974677
Ni 7.958213915682822 8.584861229207863 4.406077991610932 -0.3545690098983958 0.2524404214567459 -0.8905807698887372
