# total energy = -340870.3086449388 ev
CRYSTAL
PRIMVEC
9.21674357917247 0.00000000000000 0.00000000000000

0.00000000000000 9.21674357917247 0.00000000000000

0.00000000000000 0.00000000000000 13.48963587083765

PRIMCOORD
 96 1
Ni 8.855152188586088 4.497632561395865 10.531871377089214 -0.9551365422829358 -1.6753537027120242 -1.132945552277036
Ni 5.100444451198903 2.0651127582587967 5.819226937366623 2.354894211357357 -0.9701037051157293 0.5878487992662909
Ni 7.942252181534361 5.810677486125394 0.9980387531661339 0.005024964018417153 -0.6993590860331569 1.2433667197447813
Ni 1.937479294709282 4.384211316274524 2.7615980986279185 -0.17290463071394738 1.4153354689080204 0.164380138182704
Ni 3.3660837490448055 1.418678021620126 0.025688907394945656 0.001674045268313246 -1.594642403603886 1.715802040535058
Ni 6.254131881360904 3.835252858556973 4.548543087291912 0.6350421691226418 0.6471415234893371 0.831753929558516
Ni 3.6752409752031943 7.559149022529513 8.626608287499153 -0.1456923319652136 0.19610755119297194 -0.09119651491017841
Ni 5.49562154414727 2.479709529694948 0.8647028904327597 0.10000485723042776 -0.7617322489537397 0.15309479507687182
Ni 1.502080333265097 7.091473025459216 13.103616542035923 1.5430020537197748 0.20445309494418978 -0.8863443632098864
Ni 6.555814328566473 6.785560093001681 6.28773520637211 0.27630591522043385 0.1049002376495161 -1.6027799451093558
Ni 8.926287014674704 1.0213442107001678 1.5277959692161007 0.05141846368129209 0.24289545808078813 0.8111036002980159
Ni 4.160226016507027 5.646140181728663 11.398202866092827 -1.64752845296964 -0.5271198568173503 0.9237143192179122
Ni 0.9250108079691217 8.994057729397378 11.438145467261554 -0.5259155520966039 -0.6048795294963325 1.4431694604011533
Ni 2.820397235258514 5.430459167826136 9.448343641556876 -0.2536012745340665 -0.2584182363067356 -0.39159906606849976
Ni 7.907265423328558 1.660820306020245 4.7453297770843506 -1.4547864758147913 -0.40925020349135965 -1.568147442637151
Ni 5.584388000490812 1.9145019532427208 3.2905129043248795 -1.9204371695830666 -1.6690071916687061 2.017515597195319
Ni 3.028566603234347 0.7384104630578878 7.469589004573347 -1.5099682631932576 2.341664857151277 -0.41749110334391326
Ni 7.244793553054983 1.5679339653463564 13.06224350228091 0.6423638995950357 -1.842376420723898 -0.713367741607423
Ni 5.500847437693817 7.132201814845792 2.3151049430708976 0.028844692145834194 -0.7015990311072692 -0.053243689815488944
Ni 4.494959705790047 8.671121471753827 6.645763293097003 2.187820842613206 -1.3957542043419833 -0.9137728917344843
Ni 2.404491686249859 5.263110756671562 6.851804515005997 -0.6081525438206494 -0.9474237470197103 1.7538949907520374
Ni -0.2575406977126679 2.8846287204893466 12.196950740266177 1.5635022305556556 0.5315254420842136 -0.13195827020857273
Ni 3.3556319619517128 9.43932782309615 11.538008882740973 0.9370508884258185 -1.3943187574470373 1.2753484148577003
Ni 3.9494483101296542 -0.24271003579776868 2.4274469075320964 0.4524349664089498 0.9277254972598346 0.536220790677354
P 5.299867129623285 5.969546493289099 8.822491736431694 -2.6605276718973148 1.6378029981517601 0.8809787280225989
P 7.380878770364961 2.8125630033104283 10.800584611234198 -0.5585528785156509 -0.8746476435982485 0.05561270426829777
P 7.267936795903974 2.6981463498945075 2.5501346665365023 1.1977635771936856 -0.4534101858380256 1.013639423614835
P 0.7901643209812873 4.919805495962988 8.596837284422081 0.2428013557050851 0.5033782902260363 -0.06805607223797311
P 3.311511410968789 2.871780580094486 6.3775081311023945 -1.762631599294087 1.1000981667297118 -0.3681873720127788
P 4.9943505171348885 5.264299716578977 0.01995793630633443 -0.08538530754504005 0.2862493995863909 1.4956618738729146
P 7.975690526837483 8.395006270929422 11.903861984670485 -0.2788492504675778 -0.3554316150090073 -1.2083686064030417
P 5.022664353069617 5.62455456852582 4.15019451291609 0.24002147896710274 -0.47685607556579174 -0.5023256805918058
Ni 8.84484786938849 4.2718039129347005 2.912870665825021 -1.043607687842151 0.6225532926270116 1.2770756819614524
Ni 2.5742641009366056 5.812972455249009 4.671083378400824 0.23390353899482297 -1.1521774039234545 -1.4375222894177049
Ni 6.237790595191545 4.755286625053193 10.461050841952868 -0.709510572644862 -3.965420376071035 -1.7048825654090767
Ni 2.749649512395568 5.519280924630488 0.8952831235863512 0.4653527029118824 0.4600847696447237 0.0388550251939847
Ni 6.703835228667947 7.6425882011483575 13.652320617633748 -1.6399907498316981 1.519356646386693 -0.038553691903481985
Ni 7.248756752746367 6.034598268688613 3.639490148963867 -0.22002086747545976 -0.21078520780980473 1.045254993637587
Ni 8.88383469425955 8.129499541837072 0.4990912671821199 0.4099860532161197 0.3571295715367204 -0.02993843943064521
Ni 3.200320617766786 1.3743270520504938 4.528281920125469 -0.7331670357215374 -0.7877263590246563 0.2109343317931593
Ni 8.430269531439274 3.2188186219077357 0.9574104262833627 0.5534649224697823 0.7090629435844821 -0.7873111258641086
Ni 6.435360708178792 8.01476030239976 8.353308801804324 -0.9691853070665181 0.4687087638683089 0.8364145682589789
Ni 1.5126150710494048 2.8339919318743094 1.2006679366431505 1.87523126247039 0.5653783860779166 0.7147754205882271
Ni 0.6468716102790699 6.811984496525399 5.6937455834169635 -2.485420377105094 -0.1725603600006512 -0.12466456476063692
Ni 6.6266173518902285 0.32332704756660857 1.8794838581091255 -0.09826370616960496 -0.6319167361197827 -0.3997065256669826
Ni 1.8078273643402016 2.839586495159589 9.08696895527863 0.6601104249451792 1.8607338401851632 0.17630748574790928
Ni 8.287004470967462 4.819656361436052 6.11934345985692 -0.8830934603727566 0.8628964165995913 -0.4096590088940042
Ni 1.0584416031602195 2.4256256790227533 3.8217890396984284 0.19081647799736168 1.3266285531889153 -0.5592223937788497
Ni 4.051588261245752 7.496945220861715 4.602515415368139 2.184618533625825 -0.3889860539256849 -0.6135318058546918
Ni 7.3303249324411395 6.644608435140421 10.131202026708063 1.6956505052878474 2.0830324479512057 0.06667127607530453
Ni 1.9270367243596573 9.090345048411082 1.0841664558546917 -1.1993707737798054 0.8058007000278639 -0.47881448484374317
Ni 3.6749829063860813 3.631719512545713 3.9493607510667053 1.3157113920557792 0.879287199252789 0.9300112079702176
Ni 7.586568834347812 0.9262089846200052 7.303544762619543 0.19059484890485884 0.6121578083253005 0.19439082561218132
Ni 5.120472434755596 7.647731144003688 10.638371769540182 -0.3676595245337668 0.9302901726632171 -0.37377129385845953
Ni 6.490089730893771 0.7382703685571692 10.503300394011719 0.7135582603516742 -1.0148460423284265 -0.2416559292467322
Ni 1.1671715258561774 7.163575609612007 8.124389779258225 -0.09082601894463713 0.4360382702184813 -1.2473606713955228
P 6.489960696485214 3.455099057461993 7.007096504029642 0.7248634009518484 0.37981827138348784 -0.9807269891575303
P 0.7396160131035462 0.4954488101634336 3.408884462363064 -1.2867152619337452 -0.6569171148188623 -0.14870926441466648
P 5.2064370010847645 0.6472153948104389 8.318087016640078 1.1568118173716724 -0.19344465964882815 0.42629276079594325
P 0.9129442474203763 1.4164291362138521 7.77689643031764 -1.4915936173408115 -0.2136501880624256 -0.7264939945767359
P 2.4121876670459197 7.411017521506419 2.1503823821304526 0.7198098976883409 -2.0266023899879357 0.0597570654539745
P 7.797199072829691 7.76873776899947 2.4145370149559984 -2.6803899580388806 0.942508826216596 -0.7555911690530084
P 3.842570952870832 2.412777538627893 2.179507291490394 -2.4240422311079284 -0.3334204008452387 -0.5926968713872115
P 0.6260574385045271 4.909418226074174 0.2749078074300531 0.5460269781344984 -0.1333500083497768 0.3128870567785773
Ni 4.024159232683985 3.396462135516441 8.365516378528135 -0.2953773300295881 1.0095220590123517 -0.5053017325009943
Ni 9.379603325421336 1.5148823899426156 9.925390301711433 -1.9044791035919135 2.3333907900679427 0.6719925210947458
Ni 0.21694739445507635 6.779006988395694 2.9665462147615687 2.9401724216829943 -0.8276923578946327 0.7195977816775349
Ni 1.9318939481674704 8.263824361144598 4.227489810338942 0.9020481470983884 -1.2827830167588745 -2.8205536468763808
Ni 3.8780738487108617 1.42784868137112 9.786663565723428 1.2620025896784135 1.6386404064513906 -0.7391517925500624
Ni 7.064523267557801 5.357895746499928 8.165735168782835 1.9131648042913694 -1.0726094743911398 -0.7581221630049783
Ni 0.1475102925133278 2.792433635575583 5.91299255536739 1.4503101852109928 -0.5207998281365933 2.1349553620727426
Ni 1.71518065899649 4.963078106546825 11.847407587578234 0.4644913833528516 -0.922283757418973 0.052677790009689925
Ni 8.591157005422545 8.741205589087054 9.535337718131458 -0.5304679473539768 -2.187794360250645 -0.4363097787123131
Ni 2.025701963188193 2.1905618536063156 11.603973115743853 0.5013797717387687 0.854369867185819 -1.7134438247155264
Ni 2.014549703591506 9.455088454427004 9.443540796535528 -0.9764489306074668 -1.9302834662495272 0.054384231177835377
Ni 0.8979771777021458 0.24652300257061924 5.7233147398120785 -1.2043795398483064 1.7619816244149138 2.153786892956949
Ni 3.6972136916317075 3.5538564637252117 13.157493937654426 -0.646061660161597 2.5274448011659953 -0.6433897697563887
Ni 6.028791720303562 4.434903405350371 2.0225009881816396 -0.3675551377454186 1.4219833132418414 0.33018800995087005
Ni 0.5277083339769558 6.475398241805243 10.194468518897763 1.6240216280969515 2.107365625379932 0.33686490775041333
Ni 7.955745493972004 8.44231581515239 4.807436802945731 0.15085305023054665 -0.4338996266089237 -0.3517145711687362
Ni 6.285828262148511 6.100239915670102 12.05839912240407 0.6814261557038199 1.63591555132106 2.647254866047809
Ni 6.10544737572971 2.6534451440730784 8.993944363452718 0.8960335654731924 -0.6916745729047056 -0.1477042201889198
Ni 8.720689118126536 6.091419492170904 12.254686264700526 -0.9647360130459127 0.6783907113116059 0.18204413112137036
Ni 8.53358922571932 3.3860748656276263 8.21275991563263 0.08776280663828111 -0.9294123980439543 -0.021492365545821047
Ni 4.862551085537686 5.192851521212438 6.75581213178328 0.11009180915278459 -0.8603289129827313 -0.3980013700504178
Ni 6.8855525428896565 3.939254591853675 13.019953396550799 -1.1336448923369058 1.314933376239174 -1.7609151308236126
Ni 4.114824338182004 7.548162664315257 -0.0697403328018568 0.1281466097719664 0.4184953762387115 -0.01942751259699235
Ni 5.057761712197038 2.118588303862081 11.828333536970513 0.8396454164914507 0.6157239284100041 -0.4680377059432133
P 8.173767560715488 8.055415357838589 7.055618971693042 1.3550901509637179 -0.6040176957166695 -0.47671260800939186
P 2.7524606191534104 7.501350824239579 11.057481058578428 -0.2612096830089437 -1.448003391454687 -0.1704155457435065
P 1.0136021461867657 1.462512853555531 13.263144546357612 -0.9571702848835126 -2.3027789787193567 -0.5480177833122819
P 3.669922914221965 3.5436811789361693 10.7509699594698 -0.6515879892964649 0.38201425059354205 -0.19854521410018708
P 0.7912482100131635 4.555255641559901 4.771365234033706 0.02906246458359511 0.46098054198611577 -0.006052633951983124
P 2.548641554094632 7.562079946952443 6.203222277139205 0.7235318266246185 0.26503728428515 2.1993440127614576
P 5.052296183320316 0.07882896353598277 4.652278456702378 1.3982242631490307 1.5816565328671792 -1.330931037219011
P 5.396983955549139 0.4659847246438576 13.268175966616978 -0.7978961004688065 -1.4607426933982262 0.539012237379562
