# total energy = -340862.41395457595 ev
CRYSTAL
PRIMVEC
9.39223671256079 0.00000000000000 0.00000000000000
0.00000000000000 9.39223671256079 0.00000000000000
0.00000000000000 0.00000000000000 13.74648781066857
PRIMCOORD
 96 1
Ni 1.9570509528251572 8.968524651893304 1.8190592731415072 -0.16058981790233634 -0.5591079796881726 -0.522258672070307
Ni 5.449300550569104 5.577936623352931 2.8887965162912983 0.9691130590676856 -0.2735077836500064 -0.5185035759032489
Ni 5.811174035403223 9.035078040601409 3.6724152375342864 2.194932256847007 0.36633463507475617 -0.8822113148781193
Ni 7.519668838246544 6.620117983475527 5.19441309387994 0.5299472989638163 0.9307519427909842 0.0014963820398683906
Ni 2.9263955179390946 1.548723465655407 10.351875250439047 1.1829596794116337 -0.19533262070016036 0.20391959103822296
Ni 2.433594254585221 1.9336642836347564 12.754293854002702 1.0603175443976642 0.67706350785975 0.3154481326375342
Ni 2.9629125339279616 1.745237232511133 6.794915960036022 -0.6627190662126199 0.04585305377837265 -1.8332060670785395
Ni 1.4831280850828126 1.5865553947714448 8.577753133418613 -0.6717197270493336 -0.036133255387447445 -0.5631446116513914
Ni 5.36804831154655 7.66335127409986 7.223243275870044 -0.6702719388592134 -1.461216290600535 0.8934948582117386
Ni 0.7157438448420765 5.4353249024745995 12.10816714545504 -1.666905057724039 -1.378568436591316 -1.717823441840461
Ni 1.5017153213590388 5.689422472063798 6.165904724285815 -1.321061600624099 -0.15038870899961843 -1.4736002660871848
Ni 2.027934162616304 2.255254465594325 4.121169728798914 0.24911495662793867 1.810871151026765 1.3808855147602672
Ni 5.544340592953709 1.474102145688445 9.598003621027319 -0.6543429263337828 -0.13530121853887664 0.7731561745199652
Ni 5.871303134261434 5.621911075220184 11.515556461959578 -1.0836760166179464 1.4135662928227397 0.037405951452283974
Ni 0.9511236260659944 0.31489257802395637 13.014940630188876 -1.2025867096139418 -0.20490638043152454 0.8222699013274807
Ni 0.04518605039157376 3.5081600465827174 2.1564800699285542 -0.4472048283582621 0.12556342242582247 0.05345940537072084
Ni 8.996335064532975 5.723741704682965 0.7511093726210064 -0.6202400711128028 -1.311540548507541 0.7539420634853596
Ni 3.133400413102322 8.696121613126559 13.005895906321262 -0.11980852221991627 0.20193238540486516 1.2536819856278603
Ni 5.6705158997424014 5.621479032335541 9.03901714464095 1.4119884068126585 0.08186700997913643 -1.7403676456895638
Ni 9.071332073964843 1.4148840937826308 11.149280835820425 0.5399756297340959 -0.3342866055002759 1.708206230465671
Ni 7.176664356787332 1.612787911658509 3.211330618031443 -0.18112496174121062 -1.5586629001854833 -0.6020410316062729
Ni 7.875831843214092 8.559736945129044 8.235369478800157 0.8930744828448683 -1.5276854779673625 -0.6410166415385218
Ni 5.553704652866491 3.943537175225703 13.363428299388394 1.0158233186400312 -0.4924498162389906 -1.0173333275266545
Ni 3.713183179818565 5.583355943884201 10.03556820157972 -1.859647806209836 0.8268600918013244 0.8692709526673675
P 7.349293665911657 6.7257336842972375 9.83202434561194 -0.6071464711536383 0.8256670999344876 0.9324900085280134
P 1.2189150766510186 5.4959517898738115 9.452194782802637 0.9711172339819082 0.18291599220336238 2.748155238509312
P 4.001778434522761 6.4985260881586875 12.302790255078627 1.1587843677170107 0.881710721092617 -0.9648823088157897
P 0.09385755979381327 7.31657111351834 2.191409797928193 0.9388210929523637 0.7780536118215826 -0.3431862219827509
P 9.247051428938018 3.1585903917242715 7.200794891118247 -0.3982839342878431 -1.3603280023238893 -0.7892173417478859
P 2.06845227140642 0.2717418253085111 5.009385093190054 0.9513925018594712 0.16254797006997165 0.21444285916705005
P 3.3297075507523495 6.1798944607352535 4.624304330885027 -0.22819671841803282 -1.2057136852786976 -1.143742900002856
P 4.841049914649605 1.6622286452401438 0.24863504476946519 -2.62833848875928 -0.08249975846712888 -2.172884018797716
Ni 4.9718368096200205 4.612085970262621 5.1442247382631425 1.398147130054192 0.8357617651663284 1.461732053894689
Ni 3.9770392832586987 7.947691845613995 3.0982246085031697 -2.226659669857275 -1.8712231697522612 1.1844789442696375
Ni 6.887195624077229 1.894817992963472 5.565087104429483 -0.7528035790055422 -0.4334147165527052 -0.32153444804093007
Ni 4.066002548548449 6.631219607163501 1.078320808199232 -0.6792412322373592 -0.9459479338051322 -0.8584676914042765
Ni 5.437456940187941 2.2018783848677996 7.201317099474466 -1.292788721821335 0.48161184508322225 1.3648094351340108
Ni 4.967553949720092 0.1938736091410988 5.826545369859853 -1.7982717170951996 0.752371119453814 -0.08840275421512517
Ni 3.4267857084840694 4.220035229159924 12.428913904565896 0.44313760026742394 1.2245660420985103 1.3282725165502414
Ni 0.7055720525797456 7.903839492822837 4.586047872673645 -0.7061491123717968 0.41233475595395436 -0.5207136961806903
Ni 6.430498118300827 6.024518690286739 0.4992368238877135 0.609065542553222 -0.2129541904366655 -0.8508839655197474
Ni 7.080018241940254 8.800065495829436 5.93695674670109 1.1618226403227023 0.16517383772859298 -0.28361787550081474
Ni 0.8789151716873917 7.32694953498637 10.88130717584492 -0.37260169903039053 0.5715066104628415 -1.2202013373719114
Ni 3.411110065560865 9.330689296062726 7.762504176901523 1.6539335851650354 -0.18781831460098622 1.1716576241352532
Ni 7.412813362190645 4.101157690227031 7.948274164284599 0.18465431505070778 -0.8952056702552582 1.1668118660071776
Ni 3.1094220330046936 3.8018365012997677 6.250432036218688 0.15251449709336956 0.4048297058261609 -2.3730122611143067
Ni 2.724565745154948 7.617075724260058 6.0066518385594705 0.9032681355484186 2.5432162050676395 0.4910866173428768
Ni 8.556637507043568 4.783400366259774 5.820620746998285 0.7688405778637469 -1.4992979279636052 0.3925164356764466
Ni 1.2486133288518408 4.111893016686721 0.11926355985808412 1.4575403844108445 -1.867937557022454 0.4830601474939746
Ni 1.2494022767281436 8.423596475283718 8.040004382483382 -0.001890017933861261 -1.0544096635536615 1.700200586552375
Ni 5.304988834862072 8.26395662940852 10.07316532478019 0.9328461063158514 -0.27648974909646573 -1.398673177760991
Ni 3.635885072414148 4.067016910103694 3.39675684955413 -1.9004926081403395 0.20009816040960376 -0.14870540775992455
Ni 5.716434544590543 8.05109097859276 12.44271579628288 0.02600722269703908 -0.425686494670512 0.5078872338399835
Ni 5.3198379609624835 6.998474843582398 4.791956693823009 -0.27716234968345815 0.8832934921987047 1.1676819273169567
Ni 4.436479322128916 9.06792269207082 1.241506223399481 0.9274092515709964 1.3579433041417968 -1.0872961298690371
Ni 7.914152168634508 1.6187707663871378 8.545943506425019 -0.054852429063505535 -0.53291769444605 -1.811184568502126
P 7.3060142395544805 4.061879356671105 1.1873458909149641 0.07217857904677892 0.05152850689659513 0.6302576032498048
P 3.267746965752721 7.5385284493848275 8.685168386777223 0.5700634502584119 -2.3033903870511105 0.7121996894412509
P 0.03826491122434226 3.2696066286040057 11.92808885346529 2.8478554200151276 1.1474283192742432 0.9993060377112983
P 3.6128740926886533 3.100508800449798 8.567842445334392 0.24657650647680113 -0.4925979117810807 0.5879400734285164
P 3.342903643207174 4.341458064217556 1.1365583106016415 -0.7439096189500221 1.3630510576820072 -0.4847246796805911
P 0.9745760409127538 4.27309197384128 4.276559587602362 0.9095519116746014 -1.095879500662674 0.8035579267402742
P 0.04042794331853878 0.25222851450129147 9.489653840124756 1.854711031029851 -1.3511640764364343 -1.669990124407266
P 6.365860745863743 5.384644393658776 6.681521608843432 -0.9035769250380891 1.235796106486375 -0.3121519783847656
Ni 8.966289299577113 6.3046421475573045 8.433346556121693 -0.17076855820755107 -0.6945619217548296 -0.23283550274162484
Ni 0.18076204681587804 7.468584463255946 13.24072718092642 0.7497467944570895 2.13403439292037 0.8764394453913485
Ni 8.89205306131168 2.530184016012564 4.888086235655841 2.4250179647576364 -0.3220975196332517 0.28524358402969585
Ni 2.2382263405974587 6.450071539422432 13.31330850709894 0.08010091921764916 0.015398079722625095 1.3970564680931747
Ni 3.764239378099296 0.9425015528464008 3.3316536221805624 0.4071961491758084 0.3712387572445929 0.4245166427321269
Ni 7.706283187701997 4.3600546927304045 11.934164691336482 -0.5314758197932009 0.5124915653812141 0.2066007374148119
Ni 7.922379767915951 6.950010902609519 11.968558122624968 -1.112357186602723 -0.2469390320225425 -1.052042963093698
Ni 6.635652742849392 1.2484348763560107 0.9722646114799195 2.1848082810391274 -0.535435061551265 0.011582562631276827
Ni 5.081801115998017 3.2424254958180536 1.723671718001864 1.0959347793806418 -0.9504993006212406 1.7314397470723148
Ni 4.8093135471016675 0.794817084968175 11.881323028873787 -0.3697259201444923 0.8456096044946856 0.35256997719049604
Ni 1.623692298377407 4.147630477035908 7.908656770986595 0.35851411058907284 -0.7050245118490502 0.8965398156856496
Ni 8.672857043012252 9.084368498397081 1.1545547751943028 0.14499299190534384 0.3008427240195335 -0.10735101318285382
Ni 9.049579653946783 5.6066862596548654 3.4356181678040105 -0.9759107987158095 0.9576251130327441 -0.2649398394753372
Ni 0.5230592928574054 1.1117496567865712 2.9929404536342386 -1.854914662400225 -1.5131633730917875 0.9680337099605779
Ni 0.03139542935853536 3.18898366943517 9.623407742644265 -0.45096943760701685 1.6812978361106015 -0.1546801372861207
Ni 0.10179399973995333 0.4441701405691109 6.649368225989448 -0.5147824182979198 1.0207608651509648 -1.553331717780557
Ni 5.082158020989678 3.4697645832693205 10.739291861992127 -0.10251193992299763 0.09627547209498258 -0.20642435973794773
Ni 7.664816463012993 9.161798097114216 10.494535810947816 -2.167574433659344 -1.615722621312953 1.4332524583977573
Ni 2.0074027333591893 6.115163165931944 2.7249386169488674 0.3435690592434663 -0.030867893223450064 -0.11027924257324233
Ni 7.005584766705745 2.0804273731003002 12.293319123668343 -0.6474729386868269 -0.5389723852805621 -0.5040064107283384
Ni 3.0858005578987266 8.244533484072878 10.807145136248806 0.0894507358636653 -0.20975239566991616 -0.8380009389094922
Ni 2.146717779182971 3.8024845656267305 10.690946263200694 -1.3218172478432009 -0.08978909303969053 -1.1082027981147171
Ni 3.5761316630208424 5.719703042935225 7.324431476347837 1.2639124051066168 1.0115244341543612 1.6372309276983739
Ni 7.468039713531833 3.7418858549373866 3.4493233194837827 -1.8060310493256442 2.4459053497296073 0.07728941791078302
P 5.932888029796157 7.503655074804925 1.9304746800777042 -0.12926709652965476 1.0958345063573516 0.9298751966129856
P 8.390028621594364 0.2414499837531372 4.410904261805437 -0.23353201458801714 0.517437853642896 0.2517354249699213
P 7.8668810417127055 0.02268037299637753 12.729618569947675 0.35610704380947705 -0.3359529374591053 0.7838712469446242
P 7.228631602020459 2.863955928871711 10.051967985946531 -1.388689327075402 1.53158738412493 1.5871059860175247
P 9.267564073721887 7.438848642108633 6.6282535388380674 -0.558918746495502 0.01775758109373716 -1.244498005135747
P 1.0276703545405999 1.8728495515030914 1.1890364935070414 0.8802333652161421 -0.7838463072439598 -2.8832011465042733
P 5.17541353841598 2.695797324379768 4.271583580639682 0.5229680394325058 -1.601720907717222 -0.894293442853634
P 6.0166386037603345 0.12196664555808306 8.122373358440369 -0.8590536458147335 0.3906187044331015 -1.4564978020789432
