# total energy = -381169.0862125664 ev
CRYSTAL
PRIMVEC
9.22332659526512 0.00000000000000 0.00000000000000
0.00000000000000 9.22332659526512 0.00000000000000
0.00000000000000 0.00000000000000 13.49927078030652
PRIMCOORD
 96 1
Ni 3.2683133914447273 8.476190875118165 12.396002230138059 0.23164405353668494 1.41770576891241 0.8721197349700723
Ni 5.7290046504535095 6.446394980397296 8.485223278693814 -0.1953151371986636 -1.2296326579881405 -0.46510844811156027
Ni 0.4415566073115953 8.256731045975938 1.016400427236339 -0.061922705646725626 0.05910914745733045 -0.23213256313732925
Ni 3.232840477984149 0.8227640674406862 10.3001995998008 2.065243756509217 0.7422486863078313 1.3224430543526577
Ni 4.5492028498009045 8.05464796383312 10.434410067389873 2.2454323224790875 0.7023510787819451 0.45406710269573414
Ni 7.017715489624708 4.3537605626897085 6.300001420923128 -0.49361966817737574 -1.386171702859871 1.7204608794633078
Ni 1.6498870789535174 0.48422279305712074 8.8149424413444 -1.1035444734070996 -1.0735404708458416 -2.4597669382030474
Ni 0.4839165786195515 3.169448555411461 2.5552635589202195 -0.950578233488292 2.0535709481569797 -0.728479657548197
Ni 5.735009035961267 7.827007044144991 0.7166496968312329 -1.93325591861429 0.5297737495004295 -0.2964605357914378
Ni 1.4353709527792746 3.5280883804247583 13.336293612316155 0.05262251129172227 -1.210760503673986 -0.1042194095324076
Ni 6.794197396852044 2.845931157454296 11.18035212663906 1.3815043792911883 0.9557088698466379 0.3959573430371955
Ni 5.608428103997413 0.39052486449151325 5.114860236598571 2.0910357778716566 -0.13581621050208223 -0.28940542871686936
Ni 4.612567102394294 4.738797547953701 11.843598763424335 0.1841020420916636 -2.3323456366328803 0.958510343851175
Ni 2.276224730352627 6.216872502116876 6.053072680998713 0.40629549173841 -1.1992028807433734 -0.2868592652562479
Ni 7.143291079007385 1.819319585524196 0.12171654960319085 -0.09041258555630236 1.0780980083095366 -0.9239668015483506
Ni 8.519955559041838 4.814834651065769 11.662303214395779 -0.7805691791545848 0.008836110234391235 -0.6740817995236068
Ni -0.4658268684868857 8.674870549807277 3.291473164117508 2.3147965720055232 -0.7544210600043072 2.1509892756071536
Ni 1.3563547152294104 1.3350949478017884 3.214149406968064 -0.6341777642398175 -2.8177478019964695 0.8906864422286661
Ni 0.03970088629737771 2.559187161984736 11.578323904892422 0.06657897347181438 -0.4872682720380511 0.2794179784868543
Ni 4.385839292023014 4.433772919494316 7.340578953737786 -0.9294905595800572 0.7681355813769223 -0.1446932012767379
Ni 4.669696386319105 7.419068539348337 4.495999935938539 0.14847683668888623 0.7957070632372876 1.4902144776050978
Ni 7.750315084856195 8.901598360178557 13.049960977205497 -0.10322207861614481 -1.2980962500771773 1.144924579015783
Ni 0.09677206326566228 4.588909270094142 7.716493146827089 -0.823850101330407 0.7599977827611363 -0.2116249301022807
Ni 2.5226812359636828 7.2108888384334335 0.8493447718873949 0.9708639803205213 -0.1342699490608849 0.2713202890803843
P 8.01293085837753 6.068496849792297 6.312029560924153 1.161800271725199 1.7731744078069396 0.6280222861613829
Ni 2.962993616539492 2.3773031647297667 8.434965372961445 1.2468973586058592 -1.354530678915822 -1.267066377354566
P 7.094149195773385 1.3379449556695262 6.430742073108178 -0.15417594395619255 1.1450893867284215 0.018893494470393266
Ni 6.1669281894832215 4.097084611391101 -0.21391753228875363 0.8994649597522445 -0.9749936862181788 0.2943020946875383
P 6.55848606653521 8.955102876815275 3.3839563805919144 -0.3056236903479446 -0.6713877976312115 -2.171755304509911
P 6.459962493579956 5.498356926348285 10.725372812369798 0.4698544474369779 -0.16219701448845614 -0.5777824161692243
P 1.028161090770812 9.35660349976183 4.968771046896686 -0.5399704875277733 0.6541886601441057 0.9380962989711973
Ni 7.821279358430218 1.1632828230114458 2.318526594704056 0.5682953026143954 1.0151620309069485 -0.9585003165488458
Ni 7.038855353808703 7.451765231552641 4.787043846191074 0.8239619443179229 -0.7313022145986566 0.2556707554685855
Ni 2.4491436543149065 4.368019825354829 9.081741915735655 -0.3952924557596869 2.671023172112 0.69621822641133
Ni 7.827062384103589 0.5369294919574006 11.022856449137722 -0.07864387505614844 1.1407503930334353 -1.3283149397524026
Ni 4.171673652253217 8.91618966259526 8.363459690125817 -0.2936127819299975 0.10802489932142686 -0.4322844596030039
Ni 8.511340972153596 2.8694137465522247 5.1775908466660265 -0.7681378953697674 -0.9459371351718547 0.05779685640381013
Ni 3.6487202668394505 6.351302484875049 2.894919011136868 -0.40963021253859777 -1.5020160982257165 -1.2452863053649972
Ni 4.944311707529524 1.2623229022469356 0.7230709766937538 -0.6576195402025254 -0.5833714802212276 -0.4826485138778527
Ni 1.170845950686348 1.7033639256109367 6.617693365905332 -0.11656481847163797 -0.20259161625541885 0.2400027099140254
Ni 0.7687375105278714 7.506339654055564 12.069684630275894 0.04627497180713966 0.5780809212462495 1.646561203960364
Ni 3.4739474542641764 0.5365042966088482 4.55910870238974 -1.4692329902574244 0.7608156506767413 -1.4034469450005507
Ni 4.573303401769831 3.364531132791778 10.03030938872191 1.0168723287298358 -0.32367977651870705 -1.8785137898764035
Ni 6.245003647736939 5.220375090989892 4.237326212134587 0.5593023550871657 0.4332758769819957 -1.1097192347592437
Ni 2.9793742442841586 2.3182093122747673 2.062094139223275 0.6375765055087212 -1.0117668891824703 -0.38444908528727983
Ni 0.842886598719143 5.673341875431515 13.54462826511513 0.3402410233114979 0.8445816774508036 -1.3755777293941083
Ni 0.25413584719901183 7.081734598394826 5.092626485899646 -0.02739947505887539 -0.5892593064605723 -0.22431820929923305
Ni 5.63328496873383 2.978793174718892 5.079802372827469 0.1106818773282997 -0.8747767129769451 0.6008256711419331
Ni 0.29241726355838044 1.4315340489832267 13.920042553911774 0.29587715248414204 0.05155473214884025 0.2183550497372627
Ni 8.94582421042387 5.920932850193806 1.855434442504498 0.5936980589582161 -0.4264544831847882 1.5565024021990548
Ni 5.239126113627791 6.818205715556642 12.268744306014035 1.0927432690265375 0.48853351190371996 -0.04218100424342413
Ni 2.4285387430640135 8.600613548696742 6.59204513976098 0.11785191271417769 0.41924690969275535 -0.3022599160820343
Ni 4.243394238594731 1.1527313375723136 6.586266725750826 -0.8896140351000937 1.5434589387515354 1.7789966709156715
Ni 4.151529907323965 5.751924616639036 10.025867434711868 -0.18421542774107627 0.6081373743119979 -0.9794787185727262
Ni 1.5842815580369558 3.4097899955975657 4.796601057040751 0.912878404944673 0.8705377351949329 -0.26177712547663945
Ni 0.574500712181443 7.297145387233051 7.579462186014864 1.7968570961358603 -2.1466076015996904 -0.4417090953510135
P 4.339777999817572 5.663924859143618 0.7457465247288116 0.23455531364620896 0.20087514778494436 -0.6384599365549392
Ni 4.823993414213546 2.181362817991199 12.113435479209917 0.45880590293230017 -1.5471276458523744 -1.8442702953125012
P 4.487489572638988 6.658411585108249 6.659810763728106 -0.4971279384409503 -0.07768536779762106 -0.2524301370441007
Ni 0.7864924139110264 6.187357857531891 10.188115892324033 0.2976774389176744 -1.003356553631588 -1.3180356693135817
P 7.209846602546525 3.1928481345714945 2.0683586225364383 -1.2297175043924629 0.6361302599804981 0.5489585499589965
P 1.5013546300795813 5.365836172161703 3.3926908707237833 0.15678947031963966 0.41361028023226837 0.2340722033622033
P 5.5880261059280425 0.083749648675181 12.285280807975418 0.48296707355953605 -0.28001421730995646 0.10939632574765676
Ni 7.585475794849055 6.371741376250151 13.146183330215765 0.07001679550876974 0.024570490250512524 1.009522573232984
Ni 8.643917066298775 -0.4357007173594057 6.45223242369662 -1.1771703264233662 2.242447271708835 -0.48792056091006936
Ni 2.8835715526265844 6.756686128249815 8.339620158294938 0.25303588894889967 -0.08606099345582598 -1.0783648888176784
Ni 5.520262326626204 1.5987714038628966 2.944528517021011 -0.4974773513605691 0.00946577339859015 0.5886604965343087
Ni 6.336637395846885 5.44124608907634 1.6067505035599188 0.6407633878771352 0.7851053764620414 1.146341771078284
Ni 5.684188507316497 2.6388951490170602 7.958224542306618 0.860542314545118 -0.8189701475302863 -1.1264697147447054
Ni 2.4265557278809604 7.719527621223482 10.32812967690463 -0.8911955206546005 0.2978934115832224 -0.5851828223983535
Ni 6.124786811011723 8.291290850119667 6.971603469123885 -0.30237587283460826 -0.3712811804467541 -0.7169055795573523
Ni 2.7130230235575366 2.932399842761869 11.197415280539753 -1.2166727553933627 1.631846523458009 -1.1038666326332085
Ni 3.7556186201956927 3.3668185177471144 0.102772759442847 1.2572002831937639 0.7616510020938431 -0.01338824838144791
Ni 7.409181133412368 3.8702276744497617 9.066636874036647 0.015169508651586781 0.3324035295449501 0.5080217025353185
Ni 8.128130205523298 6.426398808690969 8.946641397145818 -2.094717854708934 -1.070872179985059 -1.1105841538627002
Ni 2.890175454352475 6.1901525254410315 12.159751335224904 -0.7761540808060245 -0.38013631684453886 0.23617510863781904
Ni 2.0984820066659884 7.903579100190162 3.9280856011627647 1.017954506050421 -1.0484015096863686 -1.3231318528895664
Ni 7.579646652543521 7.63598273039511 1.711721181691704 -0.6402617656503683 0.35093835512434396 1.219194493373952
Ni 8.012119205651443 1.0931302021635099 8.382925520562257 0.414791445024563 -0.0010163570796563142 0.5767105232612841
Ni 8.605999971333501 5.06722175557312 4.008959416656197 0.003300782238458831 -0.5889723713477728 0.8321856177792959
Ni 5.896491035146865 1.2437563461376933 9.788429497686813 -1.5847369715647157 0.3850682069285175 0.5224558756827776
Ni 6.48687616011089 8.437056301063762 9.198267577222461 1.8777334600669533 0.009914430900234538 0.6343340873120237
Ni 2.515127331615213 1.5234906135183197 12.804746853664941 -0.3045975630762754 -2.2671555730887922 1.1654337547127283
Ni 2.5924925937336045 4.571707766296956 1.5046556586098832 -1.6018011261358542 2.039309296031643 1.9761884563117578
Ni 8.494462284781557 3.872920885768141 0.5545635697642858 -0.6215436204155748 0.2672972839639203 -1.0651172797791526
Ni 0.7493786706780513 2.8382942431679314 9.310487789930434 -1.0630120605106919 -0.7684597974855605 -0.02477129340740895
Ni 4.127576928577963 5.026814362470989 4.867243436522268 -1.1755746998014722 -0.6997383237494464 0.5816989776148112
Ni 1.0813335676559486 0.29744674346219047 10.95333470381779 -1.4631731572165898 1.0325594004477894 1.4651544493126767
P 9.127228594704334 8.34770071458272 9.191653529837495 -1.1074332669385445 2.0195678517386573 1.9151928904649922
Ni 4.792089928082464 3.8299586312441227 2.533070390857597 0.4672316651021502 0.7173215840488485 -0.04080829226561359
P 1.8886790002989102 3.8597130823163606 6.958725860758399 1.498828444526354 -0.47257904545699264 -0.24212721245619592
Ni 7.874507175273951 7.396499059567256 11.064177873889342 -0.5263107306524936 -0.4646834447589997 -0.34674719986113184
P 3.6979636066642114 2.7685197787037406 4.178159495400768 -0.5865205673731705 -0.33307587302162633 -0.35098206387808584
P 1.5070730924679219 4.67167940150216 11.47334031410363 -0.5650744816842527 -0.5516898328472305 -0.3932443149814066
P 2.2691688856315286 0.22440814377342916 1.0212186929648375 0.36393322472211515 0.11244205455251603 0.6057673314179245
Ni 4.138838610152423 8.753582417584859 2.167159817617318 -0.9086805648132416 0.14412601591935822 0.9898572335935726
