# total energy = -340857.83627312974 ev
CRYSTAL
PRIMVEC
9.40163119797507 0.00000000000000 0.00000000000000

0.00000000000000 9.40163119797507 0.00000000000000

0.00000000000000 0.00000000000000 13.76023758968082

PRIMCOORD
 96 1
Ni 3.864145597463128 7.728225383508517 9.626043339306715 -0.9200178442029316 -1.6437229631806207 0.2311390888758084
Ni 8.16919008725592 0.2958740317097559 6.804451196288766 0.4901245105399237 -1.0688096410290755 1.2638938931638555
Ni 3.300799861613727 0.4513779503600009 7.643826000910158 -0.8289619686356755 -1.6862760060514828 2.898337230814763
Ni 8.776253407746506 0.8938525560629694 12.202124108121549 -1.2660006550942133 2.530291012365539 -1.7211378509256745
Ni -0.11527809980169278 1.8937517503450125 1.037608196483618 1.3015243019221197 -0.25557999552699207 -3.327232719340876
Ni 4.5099624413711235 8.952712621968091 3.77629111543345 0.9265967829720301 -1.2434754774085035 0.688956145532278
Ni 8.970961187944122 0.29453335911409295 4.428636451981195 0.7653955567379399 -1.5114818716243066 -0.5700269405935215
Ni 5.904891850144679 0.15750176526019152 8.041344827155331 0.729601429857466 -0.40414450683367814 2.965148117791726
Ni 5.215404429751028 8.023972493198347 13.334550574794788 1.1565382519953114 -0.9848587519377168 -0.09303691055302686
Ni 4.476144774284169 3.0037177203068977 1.82343789146911 -1.060541230372696 0.15704709485640048 0.7980454815624772
Ni 4.311136746749241 2.19847741774072 4.421150873294891 -0.9439946667335033 -2.0287230358753643 -0.6279358970951637
Ni 2.9578941702980526 3.449815714637976 -0.04584799424971945 0.9174225726719297 0.5453559202094027 0.20152692243633036
Ni 6.501538163370224 6.054763251599541 11.862508047529735 -2.6599334899567415 -0.038398397272540324 -0.018230406965097635
Ni 5.419899307929606 0.2867036807293236 5.879873169609485 -0.7878741974564302 0.5509627248732188 -1.2325428896564
Ni 5.773240809772529 5.090071285481864 9.546563830265931 -0.2650429407121048 -1.7069523034539118 0.9468876720105821
Ni 1.3156078471353487 6.186592922962697 10.04490480832478 -0.697605850787476 0.8853730004355526 -0.46213650996742994
Ni 8.429869112921747 7.329596224629769 4.203326362534751 0.9588954951047356 0.03177394997748721 0.3826225736015023
Ni 0.16690433652893294 4.451963779080486 13.459906282978606 0.37976016445204275 0.9111480525171275 -2.4706740720338547
Ni 1.2177180640635201 2.5067945082187784 12.621426513638472 -2.0808986894376553 -1.2908315980949638 0.8175490988130437
Ni 6.245700977723798 1.394478130480486 10.833765589178729 2.173589786615489 0.2798152139252729 -1.4276901338186314
Ni 6.504650103266189 3.6395124254562896 2.6391168250518695 1.9795326901936423 0.49196953416846245 -0.4224008819407048
Ni 8.107844444291679 4.43517246592583 11.271326902465892 0.3920199556560023 -0.7445207701714597 0.024374057968990278
Ni 1.7107395992428025 6.135438648116959 3.047039496278534 -0.5594723050061268 2.3723646002279786 -0.9265080799129657
Ni 2.300250074459174 5.200709680332928 11.877644673609803 0.1755117293194913 0.0034352509337940837 2.1504616852384575
P 4.290594182783439 6.103115840375801 11.880520632565013 0.47529901549131687 0.676851391848944 -0.41919137386447164
P 0.013558092217430262 7.848039770318676 6.405900070948195 -0.04926747877656031 -0.7503582027888432 -1.3584660094144863
P 1.2736953756664464 1.1388383790872771 7.005006791034083 0.27438967203432746 0.4593003260702154 -0.8188387641587447
P 7.494538440746956 6.085403167372792 9.859526266673283 0.8398210228373666 2.3932262741683363 1.4790885428952656
P 3.1391858229079324 1.1586194109335246 12.559904120009442 -1.0715872037742125 -0.3874919858786617 0.5588105030524118
P 7.850446587881717 6.301227011033654 2.399317881908538 -0.5285072240831802 -1.3608815608345142 1.4374891221869244
P 6.932339703892442 0.315763182313718 3.1243171433143773 -1.2942912745087904 -0.9421640412826676 0.34537988719996
P 1.2070284094964179 3.690177815484535 5.491105381597433 0.43997591470999065 1.1230074672277175 1.0158048066972698
Ni 0.4862457796414541 8.64980146937577 2.000875815488792 0.19140963149667034 0.43215307623146215 1.9887274693190329
Ni 3.523392879670643 4.738516093549009 9.741120244202747 -0.7741951573074409 1.2165259454028534 -0.11438580854244816
Ni 4.844265640225145 2.842404533796483 9.526047590867224 -0.26694529994114025 -1.9728866456320344 0.22084901980371
Ni 7.227814166280209 3.115832171241545 9.138655261485926 0.4477843550108159 -0.5404384283031273 -0.7770832774885134
Ni 3.1036100508042255 0.3940336415943161 5.50207238428215 -1.7515321469468157 -0.19556453420530837 -2.1017099697560515
Ni 5.496635421013765 6.918613322478221 8.32748911083387 0.6777379082189554 0.6735714355460917 -2.0818039748607435
Ni 3.8147964357896713 7.773325007922228 6.256353025766478 1.0966683151125565 -1.1526589715455633 0.6069487533205353
Ni 6.156836760513375 6.5440523392298875 4.229194950521895 -0.5842695665554648 0.05554714113768498 -0.24102600897221715
Ni 8.8234966040523 5.015036867627823 6.271296918408878 0.5746181595086297 -0.578019728991011 -1.868008005249073
Ni 9.096510569728714 8.441903200736956 10.477375138368249 -0.3825297567773799 -0.4172995561583975 0.3649804350397069
Ni 3.458850682130487 5.88128435443844 0.19656084168853494 -0.9477554193275161 0.4330105391357511 -0.9177241630727486
Ni 4.967032139202473 0.5360640827070814 1.6979167145778324 1.141453332637731 0.6199798754728807 -1.293187242811334
Ni 4.154317539907319 0.3928377541176798 10.433397128545439 -0.8723187383547557 1.5786701965453456 0.45832639219272037
Ni 8.168325137194204 1.8930654312743016 2.752225968557493 -0.751937374350505 1.0092952877135264 1.676904592138912
Ni 8.984414922056278 6.791127204685866 0.7318906570062667 0.8155408101337633 -0.23029268171511305 -0.022742178792522123
Ni 9.179987652315612 3.9204143596303287 3.845683614461001 1.3354682629677321 0.2586205821255288 0.44417581172395115
Ni 8.548395476270436 6.73381486146594 12.165178518365753 1.0988969473327592 0.9213221648366521 -0.18515927971158433
Ni 0.6355145365424446 0.5893121008000429 9.038590881139365 -0.7365202684644865 0.04223962539550145 -0.9816505294130642
Ni 4.980448266790208 5.550563177035663 1.8432255044571313 0.20686916058485016 0.6574549896002032 2.0527101428185808
Ni 6.736748170370898 8.06551830105413 1.8706077550522813 -1.480997072771888 -2.029678457810098 0.7019291607531782
Ni 6.593702353098724 5.005418999006763 7.176225536077391 1.4642388794769428 0.3719121291625337 -0.4657854195739269
Ni 8.187335235289789 7.465327572901761 8.204238427854602 -0.9396456457361881 1.0871184666405924 -0.08027189757787466
Ni 5.1779765363195125 0.8598788218996618 12.633260346711129 0.24545756238100952 0.2166396097080527 2.067865767513097
Ni 5.468947617407682 3.609276779820581 11.64550899998067 0.20649557929551532 0.4296462506492084 1.085828544184575
P 7.331523559006422 3.7743318155110366 4.755235014144152 -0.6769886887577566 0.053349362155417794 1.243832089416974
P 5.164757842984995 4.330795557391116 0.01141922114089924 -0.8166936927912838 -1.0783828865398073 0.2091651557078785
P 3.1156535402505385 0.7791723999995948 2.7935762224862786 -0.6404209169360519 0.9145401089178121 -0.2281905477704457
P 6.403977437387093 7.931074976243608 6.543584138000827 -0.07679576610381614 -1.2815262615336382 -0.30442941292952735
P 1.2204821436085755 6.944627635747501 12.770697150865683 -0.03847604458801115 -0.11257626613753516 0.05175656374700119
P 3.1063835319803865 6.268462326630529 8.106155911345107 2.804177005290571 1.279828562116241 -0.23648286968622498
P 7.209490387255334 8.801430975847385 12.343167377968225 -0.4299198160255692 -1.016021036473134 -0.2898101203544557
P 7.792570146795454 2.4391967805692927 6.8985709252872365 -0.437121475980331 1.3321276286302735 0.4096322694211268
Ni 1.3906892731449165 7.550478145825459 8.146996596867968 -0.29355338944697185 1.4597903567872859 -0.3432798101378217
Ni 6.391106604403485 2.3504077764077147 0.717083088014898 0.878317636250668 0.13714752771899605 -1.333966224500909
Ni 4.687935318200715 4.043867177678368 7.610759524148543 -0.3097299992068343 0.965658524860182 0.23890382042289182
Ni 9.599159375160163 2.9204004654487967 8.065810691781515 -1.4507354456738693 0.3647562348440428 -0.9364484789551291
Ni 2.036496715421806 0.8254998774357014 0.7206350242466053 0.8442404920613009 -1.231397720308363 -0.3825906919223024
Ni 0.027976433681025745 2.498624490787985 10.506120625473715 -0.2858915020263399 0.31057640636752964 -0.3037385575100898
Ni 3.0682411145848416 2.832589230922205 6.6714312784276375 -2.0896815778366076 -0.09845216803132721 -2.6681574205284306
Ni 2.9391003097178965 2.8378541443413576 11.314506713807836 2.4815423822069262 0.0113961576520836 -1.9333201961933217
Ni 6.982234160170025 5.342157220317144 0.5749548699386341 0.24469008808736567 0.3374868576051284 -0.9948698563168155
Ni 2.535300253731051 4.2836933855519055 3.8486423077699423 1.0842290609079392 -1.9615761057152215 0.46896356019159235
Ni 2.218925965395467 2.3456693543304765 8.792530451679685 1.8413240681999836 0.74302978744823 1.8418915106676794
Ni 3.3942332715414865 5.309646379953873 6.164228322888622 0.5005439061010347 -0.008897302489629838 -1.9799792908127578
Ni 5.256085287545094 4.0944291497644505 4.33986907157116 -1.215181772670133 2.6583036676628025 1.5621020077740195
Ni 1.6030533165589065 5.020894083806632 7.623034293720055 -1.780996732064836 -2.028525060931945 0.08874933892126652
Ni 1.4609664656595074 1.6621613713200079 4.462954285842969 0.18685826468056205 1.1832134472936526 -0.24547838831661592
Ni 8.660867189187098 4.135946752726916 1.6456145005740974 -0.418270404712099 0.22568629329135326 0.9720004079178097
Ni 2.0191789109252336 2.6432779869792213 1.97123623326518 -0.3400682451790595 0.16077673710216184 1.9358946417887173
Ni 2.8686068796878765 8.389827566042865 13.025220928646652 -0.3373950692222705 -0.1313124090944577 -0.2085133810564925
Ni 7.617596390288559 0.14963071969855737 0.5555019550179732 -0.9800623589903378 1.3984003837155787 0.12856055738093342
Ni 0.1820672871760944 8.882632863706718 13.51589675686508 2.715462890482614 -2.410718260305513 -0.17624295105856097
Ni 7.181906001591413 1.422795843370646 4.972812262006215 -1.4283280245129466 2.93363307790258 0.20620067376291584
Ni 6.29678003952069 8.330070798735477 10.38253994524264 0.381664066342975 -0.20922531952185258 -0.20368742042275886
Ni 8.736710147316222 5.2252103309942015 8.494415071114345 0.8868421287819115 -1.4907762636458388 0.7824720526042525
Ni 3.8316065522065395 7.816525502852601 1.5405409311744565 -0.38839649997080206 0.04403142718860159 0.9397220075000783
P 7.915336645772782 2.8853793895803217 12.919073692974749 0.9881363942477239 -0.18556114313569333 -0.1827586406898917
P 1.4639561843510978 4.619162386663025 1.4665247099691563 0.3611304651659974 0.6246561979026274 0.2020653114383036
P 7.754690975070868 0.7748843160523164 9.319864179742076 0.29245475706615437 -0.2298813052093073 0.24826006482681115
P 4.745783554393662 1.914905420332682 7.52698723034493 1.492796122289345 0.20719800467917865 -0.11298070066480542
P 3.9360586737900984 6.06548111105996 3.906930540298633 0.0900102079115611 0.1950567413309544 0.4846436899310105
P 1.440292278858225 8.592319896795944 4.345661416495339 0.006951748727484802 -0.561426343408704 -0.6259222090992446
P 1.5356906296870612 4.084745469725651 10.254404174740884 -2.2114737061454557 -1.4629607840954675 -1.2411877098155915
P 2.1508393529284886 8.913413803946554 10.067857010342957 -0.8111851042682288 -0.2915445865470592 0.06904620406538431
