# total energy = -340891.75084888755 ev
CRYSTAL
PRIMVEC
9.02624579014535 0.00000000000000 0.00000000000000
0.00000000000000 9.02624579014535 0.00000000000000
0.00000000000000 0.00000000000000 13.21082310078407
PRIMCOORD
 96 1
Ni 6.332272264055688 2.0185483061308513 11.298529684873804 0.2805258668390524 -1.6687783634873516 0.6857882893272575
Ni 4.657326045155512 0.39484498552624003 6.2261290327902765 -0.4805744049576433 -0.6976433888936308 -0.6853535157826842
Ni 2.9018386377098944 1.6889820306437784 4.954480878321732 -0.4276369335286635 -0.6311734301958548 -0.25213985949719153
Ni 3.271291892036181 4.448025464634196 5.115851192643881 -0.23783115618400333 0.4404191728949963 -1.234154971338526
Ni 5.328517660110013 4.719733506502949 2.4856429710914894 -0.8100047108068824 -0.730547081600187 0.608695560808313
Ni 7.304796058591162 6.124831090106194 2.592174330913154 1.1632650291961837 -0.9037000808795146 -0.8928991336092686
Ni 5.158770087344624 4.404284278968926 11.527604964023983 0.41907438867063307 1.389562987929607 -0.24006287372799948
Ni 5.436029270192356 7.850974173449914 12.165859809169865 1.0923077241510155 -0.7514380661165833 1.108324411294246
Ni 1.7935510846949874 6.510892636141953 0.4807170746606018 0.4751146673946527 0.09737796113054197 -0.2040520028510292
Ni 2.8183909981152953 1.418916765454985 0.29488924554715645 0.4581299599111981 0.519411432429499 0.7744669229115888
Ni 0.6315366106244906 -0.09754121930936424 4.717941796772334 0.4674535513049692 0.9552213886872583 0.211111737911288
Ni 8.763563697903383 2.048100233879117 1.5724577144353982 -0.5743577067583916 1.25142198594909 0.3424352027493393
Ni 6.775497022806707 0.7198114863094291 4.825490414461205 -0.4293500595650283 0.8421635549276141 -0.3046993787614623
Ni 0.4831036139692889 7.5568720165098595 2.332397180338739 1.0586671532784349 -1.3034467157558132 0.8399246382947664
Ni 7.645699298419047 3.6535985199463195 3.9911087940929066 -0.8522224818255129 0.40289752180045446 -1.1168972405649216
Ni 7.938853699582204 3.4632891599449653 12.553398951593035 -0.7435103266290743 0.4806924185927464 0.6440335739879747
Ni 7.6718122266339925 8.917370921125878 6.926685732211312 0.646401559999519 -0.24788776908905696 0.3669663551214841
Ni 6.900781310267284 0.5466826819818833 0.644510033273416 -0.5467245184221552 0.4014201659239796 -1.2087727838199955
Ni 1.734122284360662 6.560591143833446 9.034406122829234 0.3681025256084564 -0.018057371722343094 0.9262684530983338
Ni 0.3062596069962983 4.62634797061915 1.2773861387292575 -1.5178160413724504 0.6040629471323081 0.31748624611348547
Ni 6.175657878484473 2.0889800997227015 6.983716259117808 0.5790029188398866 0.9148982635881792 -0.4776932267551064
Ni 3.4025154490319927 4.218469989223722 0.37871327957886664 0.30786106431889554 -0.8436933613085793 0.6672920302952831
Ni 5.977874787213857 5.5655378405442555 4.758340563731074 0.29157672533657525 -0.24133248446904243 0.24650040182322708
Ni 5.473145191664827 3.1283342158978082 9.212289953283165 0.38002550229828747 -1.1039823322754665 -0.43498283237077345
P 0.3226187743301274 5.622854499432919 12.346808049969104 -1.375722739612405 -0.7847587917559001 0.5384797619148597
P 3.907542910682333 5.9573761836963515 12.645360145937838 0.48896751411734496 2.1448340546390354 -0.457644021413715
P 2.4573592308351695 8.495998702716504 1.6688173982095615 -1.272962431124027 0.3967014202920716 -0.7510066350061195
P 6.327298802788341 7.708883016878993 5.626463192381532 -0.8845407343422443 0.49091718164454806 0.16949663347366292
P 4.786139594604351 0.9940243113028433 12.544865539102746 -0.3700128552572918 -0.4464975178785924 0.6990567243013897
P 3.8557232352996835 6.223460874622169 8.252391168320539 0.9429608261523502 -0.47398081090052563 0.1462973125390642
P 4.747353817715439 1.1700992821597214 3.888354918010597 0.41971819290221907 0.0523556307835808 0.5930583684916884
P 0.2217766570435058 5.506804061112989 3.3110813874240566 0.445913106130032 0.7418771619010256 1.286568709053552
Ni 1.9977698890030238 1.3029746420809858 2.800536181903064 -0.9534882080462352 -0.7249333349578354 -0.4708489501397633
Ni 1.674260224242611 6.725022258002706 4.720940315525533 0.7155107560923548 -0.9863240236293335 -0.4891076392396351
Ni 5.959939637416727 5.4195563721652995 9.034075762244143 -0.06856463644327547 1.4452939629433237 0.7101191527631383
Ni 8.778529212932895 2.440768991616687 10.335381451533237 0.14684058663704389 -1.1860622295963574 -0.2041461052267323
Ni 2.3180662103674736 5.174872909306416 7.10713211376107 -1.2043602565745968 0.4662752147261518 -0.08761779641998459
Ni 0.4893750493387131 -0.02931363486721677 9.074870781380083 0.17589019570483255 0.7937432546426975 0.5066847288914499
Ni 1.4524221887297442 0.9491097137233167 11.619024583639128 0.27353375179193534 0.704737833846567 -1.3496494395641208
Ni 3.9356145341695368 7.033846221343929 1.6187488144528024 1.6326034562286915 -1.4765686046868893 -0.6742226959768454
Ni 5.653751337759833 7.660087133736926 7.810820017744071 -0.7680859590859094 0.4080968066132069 1.0657225174633196
Ni 5.088148742597394 3.1199849388156013 4.8092413673224055 1.1615552455939286 -0.4869479125841549 -0.06724668896280031
Ni 0.8292339525629113 7.633188922163979 7.043204632672396 -0.3857680612090195 -0.5961380358582766 -0.8936226420388546
Ni 4.895925818551252 4.668509563322922 6.918376170609281 0.3655275657924285 -0.28155327966230226 0.4808759953584622
Ni 7.991539894532304 7.247091271146243 9.113076170683712 -0.5680680170949377 -0.48240837284258853 -0.20006370762724254
Ni 4.42273392475923 0.20748630517696512 10.361050288469865 0.4476588851765451 0.8186765275492675 -0.596660998241282
Ni 8.212989801488916 7.123639311521004 4.763861918099924 -0.38234695134261243 0.09977680038002172 -0.7847305096211259
Ni 7.266398410258503 6.259908853928063 6.885520637010109 0.6231634154071849 -2.0261064241881233 0.5247166466924963
Ni 2.3768360947807166 4.996008828591806 2.835901011749645 -0.10578032626162429 0.7356980296735072 -1.5294461694122112
Ni 2.2031260002433393 5.027320874211455 11.444561700227528 0.6776003541998266 0.5139051578992891 -0.3926316210980722
Ni 1.0408163679451796 3.3706166974552145 3.797834312446682 -0.10156345996679927 -0.34441958016921975 0.3725363930100939
Ni 3.9309208865125127 2.7747942323779333 2.418069789447677 -1.0418986755708444 0.4526887342909688 0.47374786895411314
Ni 1.079060570104435 3.3647225591474514 8.316728440954652 0.36794286010214056 0.22669262306868057 -0.6899033399368958
Ni 3.4417525381956184 2.638804817761143 7.02389027256374 0.8425762169850005 0.9250186398516328 0.7614931363597401
Ni 4.086109125295631 6.849855233188569 5.877191531847934 0.5478326638846694 -0.35130705131767237 0.2194950768789768
Ni 0.7960309085122101 7.430008136087784 11.238433844997452 -0.42718236248974817 -0.18073543961227584 0.0024934558458150607
P 0.06105171927419657 5.743806189056244 8.006524364677354 0.46927749188758533 -1.3172951916031315 -0.9410983190223147
P 8.515730075366996 1.6317736867010453 7.926929126659713 -0.024464817910583674 0.04347529757481545 0.727971864673843
P 1.8793094431361212 3.1344359578519403 10.470171278123837 0.04661872829980358 -0.10176092068958602 -0.10674988926374518
P 4.024008556295 6.015243443560167 3.6763735425774815 0.36479865804620404 0.4194510552837615 0.7982815088326832
P 7.0996114460152375 3.8003201404558062 10.498482097116641 -0.5864709450821578 1.7917488283750176 -1.2508437448481167
P 6.127015441515809 7.801636715578192 10.083635854199631 -0.6665968040004714 -1.2248648042858516 -0.6483687110282188
P 2.580368904431188 8.371111570057677 5.825431429685548 -1.1364733629246364 1.5168243668831425 0.6339052273047212
P 7.090115835755257 3.7855622290726623 1.454115512384471 1.037707263197316 1.2948481754535248 -0.10619633075312035
Ni 5.472071068451008 2.879227892746728 0.3385058690246059 -0.44233207364699306 -0.16589426083438524 -0.6083376632482619
Ni 1.546881847827362 0.9510323040135978 7.055372011598682 -0.7720783680747542 0.643518324914453 -1.6320051605230603
Ni 6.660141605389836 0.9962718464309185 9.070907356983543 0.4569598508624969 -1.0454753371785093 0.2868782914196414
Ni 2.4873805233491373 1.6155986547752994 9.013982437149332 1.3360120512863443 -0.9874241986720478 2.2248033333748265
Ni 6.212737694974967 2.2122695869290427 2.533584971409797 1.118065806951726 -1.3912434609558233 1.018416276178188
Ni 3.523232456272465 6.890834387732591 10.620695655860064 2.0501207848248497 -2.1706582147909903 -1.0697123553490029
Ni 8.056348337181218 7.385048407280785 12.949829848452621 -0.2684740778808409 -0.10985063967625597 1.2586195321387936
Ni 7.793143018568077 3.76315006151037 8.196575574057572 -0.897830509472615 0.2830928562352802 -0.4817871943188219
Ni 3.0714959480203405 8.302105923253922 12.355475050892709 -0.15933691933184171 0.21135907803540374 1.7670248432657762
Ni 0.047914921581824574 4.951780225669844 10.108604254485902 0.41441015042574436 -0.28942599754215964 0.027502576295642955
Ni 8.59760714824559 2.4159829214894 5.821151184072161 0.33820908048313364 -0.21930018725935133 0.9625582886683036
Ni 3.8873963307391044 2.6347520335342125 11.343855879247869 -1.9525656746864957 -1.2054236648421046 -0.244382841259592
Ni 1.2285171429986879 3.24774241754161 12.746739324831369 0.3097976192199761 -0.7917280239848815 -0.9609323230291064
Ni 3.2429765599206317 8.335620372774175 8.117402764329064 -0.1285962957148753 0.40999042409149394 -0.07656822347404232
Ni 5.7730421982122095 7.611029489475527 3.51230889397529 -0.27630848632359506 0.5594581639387397 -0.31698076723197666
Ni 3.548072683872717 8.196516903461859 3.8326846463000885 -1.5051834402101048 1.1118619921338593 -0.04327449441791902
Ni 3.5664952509265384 4.247299817332446 9.222198062962235 -1.6733528702319118 0.7825715542965942 0.2961157508575094
Ni 7.1811274690740605 5.794786423607925 11.314607233348212 -0.08706912300536618 1.166185031056456 0.2919937582693359
Ni 0.56200473370842 9.140246974870585 0.6256839930460008 0.6415632580706112 -0.6423983523773968 -0.4445393657109569
Ni 4.485123333615679 0.44181846970301136 1.918898555874024 0.6585129985510723 -0.5268509194266797 -1.3214824902116016
Ni 5.994780945024639 5.558993812560904 0.43156826531970943 -0.10946651686395986 0.2859948603734236 -1.2703491618708962
Ni 7.75403229684137 8.792871917023303 10.923130842640436 0.9223467494464245 0.5734156545600964 0.6269959017793976
Ni 0.06776183017464273 5.0629294126863815 5.54344610469701 0.15304902944060095 -1.0604124181043155 1.1112801514884603
Ni 7.703097193517161 8.813641307905637 2.825359259636878 0.13018318058602096 1.0689741916313977 -0.5736180003788895
P 8.72828010426625 1.5908757683664723 3.762323257423094 -0.6384671356437908 -0.5215796437254114 -0.6115037196810694
P 1.8746699529520623 3.181886930415359 1.6077701920581122 0.8711000354563062 -1.073495733650835 0.33454063049261096
P 4.603674041937524 1.1884947704770599 8.299012628923032 -0.11154885331428531 0.13404086376921434 -0.002027314842673928
P 8.498264290335568 1.2146708824104655 12.312024510332355 -1.0852369333471634 1.0503442352350363 0.9155785774846554
P 6.314734269060306 7.555337554775832 1.217775910860497 -0.010953413687710167 0.5917969852807615 0.5184758079891071
P 1.6322340252212535 3.3321017079311313 5.988624142972992 -0.2176027449522704 -0.4177309872688612 0.35058997064598973
P 6.8433382839417 4.004547971009337 6.053013767830972 0.2491386107770225 0.2780594075764308 -0.05713428311914676
P 2.3149341031809594 8.524945872016653 10.224106799704328 -0.5503924541920457 1.29938514409193 -0.983519721411319
