# total energy = -381169.903052731 ev
CRYSTAL
PRIMVEC
9.25796607690069 0.00000000000000 0.00000000000000
0.00000000000000 9.25796607690069 0.00000000000000
0.00000000000000 0.00000000000000 13.54996916309513
PRIMCOORD
 96 1
Ni 7.715023998214259 8.504691452817587 10.137883652523323 -0.7551574239496994 2.4175471103018884 -2.4804000410723672
Ni 3.051045965480426 1.085376141616611 3.159771516348714 -0.7949329040754245 -1.6017898132819446 -0.6668724262593612
Ni 4.897649090628552 2.366354585578691 3.438819568029693 1.187039248797646 1.5469664376841616 1.0297584406638844
Ni 3.480124908437898 7.4041600211148575 7.787262054099398 -0.681972258015277 -0.6409477359737994 0.6660347608494143
Ni 4.656395758707851 3.5459027557573104 -0.4558455738047461 -1.5111180605269845 2.3081186457647154 1.5450877326042098
Ni 8.531761744944536 3.7147495368145176 2.069717324591287 0.3491542666407277 -0.42131639062727444 0.6499296277574356
Ni 0.5222992526307484 3.7611412036572447 9.271159370813216 -0.2099675970045158 0.07890689890954798 0.18481423766733976
Ni 0.4103223041581567 3.1192308839191982 4.115220439518404 -0.1571162575314391 0.2407033355254758 0.44712358149836545
Ni 5.182637053194843 -0.06194967844304744 4.762569814189618 0.30638910775905936 0.008608567604617432 -0.34908381841410846
Ni 8.24701448949018 2.4216431575972037 13.091153463338793 0.6491464697345078 -0.7414688707190134 0.8595442122979068
Ni 8.653874314422799 5.5619914616058574 4.021657585108911 0.9570039345089776 0.9684607701956676 -2.586987950836951
Ni 0.41145825656717744 8.73957530423783 0.8653170709018677 0.7349621799487471 0.09858252296160441 -1.344717292369826
Ni 1.8517505541572172 4.273495549378702 6.818046535720142 1.0965906677970858 0.6612208844005387 0.7460528905452699
Ni 6.245562627640506 7.700081641342544 11.562174481949132 -0.7068253125032149 0.29278025872637314 0.6564743708544887
Ni 4.789432727881667 4.756529917273196 2.741822499928526 0.47727696515329415 -1.0158875962190632 -1.3378794435123862
Ni 2.0357341093688563 4.7956818548261575 10.861004848642212 -2.403964486521447 0.5489210118528418 -0.6014391363562158
Ni 9.08340689770661 5.550641195481495 7.434136388720138 -0.8344559018707113 -0.3374729736480575 -0.456898144386626
Ni 5.8392305067609795 3.6075422923445943 9.278462980067301 -1.5413328935474682 0.43218135836623633 1.3569382599160502
Ni 0.6086584838172673 4.377129219032961 0.33449678650858766 -1.5953175752940396 -0.051414864136866294 -1.75352423767618
Ni 8.409556595807835 6.427926038829499 13.029188972150395 2.061175242866798 0.32559499126354896 -1.371825718550844
Ni 5.552909397113199 4.753400724818028 7.171605473900886 0.2112670325422297 1.724220089395424 1.0610281973114437
Ni 3.6499622918403793 4.932060949669546 8.832560461578677 -0.0007129669066245786 0.05615674969722587 0.330521739141205
Ni 4.129265699499865 7.3258376300772445 10.094185127944526 -1.614189215387562 0.8165689942879615 0.6548468625533949
Ni 7.2411272426074875 8.193707122162218 0.9033386108253156 -0.5352584267640846 -0.5782691259976557 -0.7668127488004407
P 4.729635526497277 9.303237296665015 10.943997883447967 -0.2162819692583178 -0.29097123054209245 -0.0923185443297636
Ni 1.819264352011711 2.096716330381238 8.176051255501717 2.3640959324612836 -1.0883844778372096 0.7200125006174503
P 8.508440928984282 4.186174415541024 5.670865139927645 2.907865482020173 -1.5844865461168067 0.38576240478206464
Ni 7.8365810897419 1.1025218943591237 1.3986277481071003 -0.13554855866299237 0.6247459294029564 0.18796281059865047
P 9.329715078977966 0.32776254215388795 2.6980295440981226 -0.06487098964177214 1.2171543230154716 1.820799722994387
P 7.5069697318090265 4.353993562389581 13.841021848576684 1.721856474259254 1.275503966598958 -2.942657392888377
P 0.7699840934230608 0.15781406316128216 6.9810385791778 -0.14996267720579334 2.1088226695414325 -0.9236132748636737
Ni 5.704841874573985 0.6307942801495285 2.2948766086893184 0.6013077529846741 -0.35253809551129606 -0.7673130854756269
Ni 6.214502152234928 3.232261388904802 1.3537654972217503 -0.5056879121958193 -1.8200469039887623 1.4573017860374773
Ni 2.7454960607753023 9.14453724617249 9.026257474553516 -0.1660701242906172 0.6893430965580515 0.5173288388688574
Ni 7.574173305868368 7.631535662235867 7.520625231428469 -0.35991561892228985 -0.32144677342313027 0.38092281730157623
Ni 2.719147889984162 3.322628393505054 3.5952541942802654 -0.09505059854894599 1.804908248575111 -0.5775214491983538
Ni 4.631491830588327 8.852022557375282 13.814328355659576 1.0498588109581855 -0.3798151860596943 -0.8630010604982556
Ni 2.5903881010301304 2.2611100298676305 5.636475500004677 -0.2482695779085079 -0.47686610286812064 -0.21853194163475914
Ni 0.9485804383102568 8.885008689676347 10.549680750640379 0.26028485720182915 0.3325842780971885 0.6984468586315326
Ni 4.025919026786761 2.0981605730528536 9.478880350448074 -0.01507103540050953 -0.708318866329606 0.7098903245817839
Ni 3.804755480746865 0.5249174053713438 6.91702900333453 0.7304321532888776 0.4132004463883593 0.45287488215984584
Ni 6.309137079089122 6.176340817027241 13.284199641314817 -3.58106462182851 -0.48898191229504817 0.38599637516974167
Ni 2.5929525575688324 0.5318312542634109 0.4044805277107887 -1.343691422208473 1.6204884181327126 1.242210237542835
Ni 6.359407833620354 5.366074388421704 11.050026588865988 0.321626236423788 -0.7460603467444377 -0.3291603400173041
Ni 1.3224911628051832 2.394554349538569 1.735873224674679 -0.1653787546505474 -0.5241618026302908 0.010587288597543055
Ni 2.10387273797841 3.1614286922347348 12.571851014251646 -0.41133356838294965 -0.33916578796944813 1.1957745717881147
Ni 6.872706491857868 5.569934796299743 1.887483524924105 0.20165547759439464 1.384780478939299 1.9106430663107803
Ni 0.3559641577069345 6.506553942739954 1.369834548536642 0.14698585396565653 -0.8409206836594485 1.397774834316438
Ni 8.833960266014243 4.114739951091117 11.666808011914508 0.07725907889347984 1.1006470972546463 -0.8494464617422725
Ni 4.086873473901612 2.997571954767276 7.252810795502223 0.2773212438588256 -0.5484389300101007 0.32678026982090175
Ni 7.628795304346136 1.4509546968522171 3.888895577520652 -0.051297878943027786 -0.6244656791583761 -0.1811154486595139
Ni 7.209094680788322 5.710961389996664 5.685417736437341 -2.4182104549175 1.1647601256844715 1.6593375297894264
Ni -0.19554397716065383 7.760378772882493 5.605134508234035 0.2654905697724847 0.24332971740472933 0.6675661098922762
Ni 6.301943639628575 2.9182311874868585 11.769190930383285 0.7645190676702576 1.4571061250869033 -1.0464950366922752
Ni 8.913662093962566 6.851774231085286 10.597024136371838 0.41636958814496033 -3.064307853413039 -0.24800501139321157
Ni 5.416289595157875 7.4031786767354255 6.6962728077917575 -0.39651424398193 -0.3990462663751644 -0.5331064134180883
P 1.2076831283775915 5.087613291775214 2.9306961126988016 0.037656634010509345 -0.4296681050260794 0.057191104499011186
Ni 5.604235559750613 8.928160068473783 8.461034589085086 -1.0214046693825507 0.7421792665224767 0.10195375342668249
P 6.978765748563174 7.818509540415018 5.3707061487333005 -0.5929979475673981 2.025291898706628 -1.170987594651422
Ni 4.482827415070362 4.080328092050123 5.111847868964239 0.6638773481867792 -1.482372612963176 -0.8452902734820539
P 1.3517833667346164 6.820611918055428 11.788188276294536 0.7938939212879489 -0.10632540013181688 0.11961157571776174
P 4.330607940668422 2.1012064438154274 1.2814783741176392 -0.9888588742360452 -0.88466389018367 -0.39336309994745805
P 3.925775610255573 3.98785027123751 11.043794126260016 1.7603744278287938 -1.8314368909932588 -1.1496566943841298
Ni 0.2444056692904776 8.17090475228921 8.48462481185139 1.0971977052534654 -1.6024336175135305 0.5910089421618274
Ni 7.409983281630538 7.771451300031545 3.2187003205369655 0.2068665894816889 0.2531130220437383 0.4144826555348926
Ni 0.8569395376099133 0.7053301631570716 4.778816618448709 -0.3357876155258346 0.2900988552394681 -0.4475221024883647
Ni 6.000930138186858 6.830092075079366 9.154900613137917 0.6500234730228225 -0.7302771157682519 -0.23057293195969322
Ni 5.329625776895098 6.393430858095913 4.304540286242346 1.219256971180771 1.0704698023403176 0.376421586997113
Ni 1.9476908541953704 1.8898378256381554 10.59561507397043 -1.056086279925136 -0.051575558084446665 -0.23209451081054222
Ni 7.094508837540979 3.795571578629925 3.9153178120385412 -1.6207645546122342 0.09666422289296901 -1.1914512618224125
Ni 2.528378245809099 4.740421056705175 1.2409914378900169 2.3318075047412226 0.3840659909162482 0.5539284923697622
Ni 8.217731543526591 1.9023916273221981 10.786886499894221 3.4007397873910916 0.7731746864627266 0.5746238159355845
Ni 3.8873087621750435 1.6133671916480596 12.282667341564997 0.537202694974649 -1.4294222860183898 -1.1225616379395507
Ni 6.329189833106553 0.7964952044130497 12.544655739585808 0.027633702556868537 -0.9364646769050452 0.5579113882769101
Ni 3.1509949647288966 5.891695399197167 3.7772028485994613 -1.0164781786152108 1.1770494845747856 -1.2189710645092362
Ni 3.731691614308469 5.94504905635435 11.963972051158418 0.7299737255952203 0.6166808930066348 1.0771942655483449
Ni 6.4083176671725655 1.1725121161374155 10.117003236359466 -2.718237110793641 0.2384559342521958 -1.5829068603345124
Ni 5.056376915018607 7.709496992605576 2.197913303425438 -0.03278593618176934 -1.9040116770371918 0.8082347633906531
Ni -0.5213845656053918 1.1668925308702958 8.63895880565203 0.6045272883632363 -0.6053042757385768 0.023329418754559822
Ni 1.3912778490237951 6.016057654375446 5.191738559415772 0.04031258357611767 -0.40773016730240746 1.196559015362623
Ni 0.7632230009674145 7.67068759978883 3.437193869227541 1.0200556115538237 0.3179477591309363 -0.20001871332192003
Ni 7.584856998451985 0.7831248501415935 6.376899834285421 0.1853873365619904 -0.7923746564299451 -0.364466728628082
Ni 2.3006045121568093 8.310792616187356 5.907284887881357 0.23632860349654786 -0.9496022427282678 -0.31373834903527903
Ni 0.2842463995022105 2.5998960319515994 6.781095216648224 -1.813364092651948 -0.38746961728115853 -2.271499966100417
Ni 2.7163519842993677 7.574117758073307 1.46621460195237 -0.6024819757984333 0.08780600117139072 0.6186891816859151
Ni 3.7743523209161896 5.87405897426494 6.067717103783234 -1.8455270505377377 0.8025809075389855 0.9545529018653237
Ni 6.737632770198441 3.1735010796949052 6.037188961413667 -1.4971631410087891 -2.193738493649222 0.16202500768696612
Ni 1.4615550677432414 6.104202747173213 8.871517056052339 1.002670583308157 0.2888279589468445 0.3586904882659371
P 0.9599862522296821 1.0754701181638635 12.481920059842633 1.1834129648989684 0.878527438268629 0.11045099226441624
Ni 2.9098805022958505 8.429831541005516 12.084661671286506 -0.11073715604626735 -0.3441704402728911 -0.571697643427725
P 7.254097652754496 5.277957069521468 8.718754139055372 0.7998380546865257 -0.7021577318242166 0.18779980265822496
Ni 7.69166615039063 3.1827127557093764 8.179289691953839 0.9119350671947971 0.037188950345471435 -0.19063264412132974
P 4.116637834089073 6.249367651602263 0.5217521068493863 0.8989939336530968 0.0077544471344382585 0.9730846421209242
P 3.3222395589396188 8.316958421439253 3.9749650343762633 0.1321469891806111 -0.9229327038568814 -0.7474279165159257
P 6.076984327592767 1.6009615174175158 7.7569098130808625 -0.5433090649827029 1.3507470435036737 0.07142498871020603
Ni 8.547092936381684 9.132168603805322 12.200974125163699 -1.146522262520206 -0.7204143640415592 1.328289742941422
