# total energy = -340861.40396038955 ev
CRYSTAL
PRIMVEC
9.34245670825811 0.00000000000000 0.00000000000000

0.00000000000000 9.34245670825811 0.00000000000000

0.00000000000000 0.00000000000000 13.67362974253136

PRIMCOORD
 96 1
Ni 8.788551994173485 8.069201496042421 11.9259900641917 -0.6352902805777059 -0.6766631870975378 0.07072384887812336
Ni 9.282702568183801 8.979717347724977 0.7677182661110638 -1.2623424895163355 -0.5907739433328858 -0.029480525957620195
Ni 2.2770743955878907 7.527740720175751 1.4158773740000639 -2.8900983878447386 -0.4002438862276913 -1.882129275141804
Ni 3.6743602803118587 3.601012651012046 4.44085281607467 2.6432853398770995 1.525439105135347 0.015287008066057543
Ni 2.3493382998846744 0.007596351723815773 8.926638178718878 1.113934815502488 1.6113507174975024 -0.3077556490892829
Ni 7.44018321389657 5.453593831404983 8.31690366190709 0.9735939776571749 -0.5135045800267608 0.33148281750289366
Ni 3.2637592985609016 2.4668664079717515 6.746746822777585 1.6682626001931982 -1.6672668119388319 -0.8708066725856035
Ni 1.5883671561631565 2.794497029792555 0.9989151133304668 -0.7410713781702785 0.8341309144311246 -0.4918276092739594
Ni 1.1893881908239898 5.010023319173953 10.752983871581597 -0.5025930753205796 2.1946417221897816 0.1519246860281706
Ni 8.22489354065857 8.1269098524537 4.908942606499221 0.6075609329832374 0.2078574926400485 2.583163434884538
Ni 4.484313925678889 0.9183252114242073 1.6024948195216047 -0.4750976981137882 2.2281259699901566 -1.895760749882309
Ni 6.870246629329627 1.541262488359099 2.5200361988100006 -0.3594016554003488 1.5803043897146591 -0.2602300927044937
Ni 7.361519726607763 4.363572012410416 2.2492712437860507 1.9397248141680852 -0.6079116314544369 -1.0510250633521445
Ni 2.757641037232657 9.288597658501999 3.0723276849871133 1.0842791974195842 -0.8210056899030764 0.5363819988455665
Ni 7.040466194460513 6.649587139273293 13.161115187126269 -1.4626231982503908 -0.28164378249357946 -2.653070187178005
Ni 5.483442981272884 2.5085524507606656 11.215288812679638 -0.4776662301719128 -1.0194668289298892 0.20760423897866181
Ni 3.423403202455335 7.381876940242242 5.13837279511455 0.9052440283278668 0.4694243018780948 -0.40894681331832794
Ni 3.8422629161259247 3.982091468887394 10.141238858040053 0.48910635368805444 -0.25253992314908763 0.9997508385582007
Ni 3.5649881371182643 0.783822793354347 13.063553777974304 1.611598057621618 0.9505214121084276 -1.2325991968156322
Ni 2.109237156972283 5.477660000437758 13.103152715886695 -1.3569822257801083 -1.299555094010891 1.2049500676397957
Ni 5.832925609835792 3.125836607011655 8.791651821380423 -1.824751508553283 0.34201508449278517 -0.9047488338590031
Ni 8.581233532602711 1.0302581220603027 11.455056429879889 -1.370870039505794 0.856979536894524 0.1433549420812886
Ni 6.810641754163049 7.4286919918816965 10.310668985560975 0.5711983351938034 -1.2177387347640318 0.053460948032617604
Ni 5.9682604408174615 2.896497974474169 6.431815402651754 -1.0350734251188949 0.36396433507036674 -1.4042321599060075
P 5.927947739196179 3.181900691004545 4.182667479297082 0.4151575701147302 -1.7257046443607507 -0.12326819863374255
P 2.293414352745625 6.251645186652542 3.415535919480762 -1.0330620511158208 1.1733437535884244 0.7664060002803252
P 0.5258028180642916 2.2148536324829675 5.3924969658678545 -1.465235181951941 0.7474983647425449 -0.016082764494475526
P 8.387676510079018 5.970530657849668 10.701611569455268 0.6185883944419927 -0.6047165215559069 0.3651092473080873
P 7.942480410343446 6.48071288793927 3.750143488131409 0.25877227721204465 -1.6555772914160456 -1.87833072733132
P 3.901867791292503 1.842603436399534 9.187790679815102 0.5899205941936551 0.26209054295200024 -0.30376401143138654
P 5.0790921032031875 5.766136385295688 5.767482633338243 -1.1342136203561823 0.6046262758349458 0.2637134232674039
P 1.2971440889699635 8.788056843956584 10.727550901101036 -0.14699485282672103 1.7430469922939402 1.3657782268051832
Ni 4.0967514426992135 7.090438996539827 2.3618188880876576 2.076923763950307 -0.005752843323377189 2.0671337744430787
Ni 4.015883135576659 7.620838303410069 13.496064689700285 0.02882926552686648 -0.04573915390832768 -0.7145910724915628
Ni 8.87872538839101 4.238924952148271 4.327772651728472 -3.6413017122426967 0.6698554201470851 0.12639568851913072
Ni 7.835976401425109 6.853047166135008 1.552805093887047 -0.9171379515519753 -1.0891010442882598 2.1167864044731997
Ni 8.183936209509623 2.4982103509472795 0.2740404204210347 0.20991463227939333 -0.41669277581233394 -0.0032221064817234833
Ni 6.313071840919039 4.183888538416875 13.154455883831798 1.3017518445518936 -0.3219836197632068 -0.6026755798664781
Ni 1.0478219410749057 9.005511871288444 5.266166394868248 -0.897614279696751 1.3443383117638523 -3.085350790126267
Ni 3.521723219109421 7.545313881647276 7.693823445381281 0.5576164827443106 3.2066816625279806 0.11140435731662106
Ni 5.815698119270405 5.193322323996566 3.6336850913619765 -1.6191828119474114 1.8474296668770893 0.5944632192590149
Ni 1.6870982409218394 7.626172846312908 12.618531447937492 0.45027575397410197 1.854822874017367 -0.0797561342837207
Ni 0.8251080447412789 2.876850787565813 10.813544480091362 -1.2567685949729839 -1.6333007394060322 -1.3802103430701134
Ni 2.976600200129066 5.654409942957584 7.04809991601202 0.5934154947207909 -2.484400934701644 -1.3078607856631088
Ni 0.5176122860801946 7.800437695291307 2.9158060301962334 -0.5882311223063741 0.09100059684928843 1.4277945206069798
Ni 1.3018246598882166 6.6344149892308915 5.285296009663087 -2.0960160046950675 -1.3749439524648512 0.9144694035808767
Ni 4.397812117031969 0.777657706031083 5.185697010656289 -0.5638141269145903 -0.39756762494710884 -0.4894501101807184
Ni 5.099682878260733 6.096896730185583 8.872859259689271 -0.9447855380659147 -0.5356988567356129 0.4351550962825796
Ni 7.283697060441996 5.519654344305119 5.516831053823092 -0.15578211210104786 0.12789361322089587 1.5384532580068278
Ni 5.198909113236317 4.1005351377528925 1.4732241773284347 -0.6956952640283245 -1.863364592939791 0.13809960721962025
Ni 0.9839662480085166 1.3510687503275636 7.288838214486537 0.9801952850237764 1.034881620823063 -1.286222895678359
Ni 6.300917304462657 7.174166095480716 7.121171942832613 -1.7849143219516874 0.043178592270003056 -0.47193164168098073
Ni 1.3982668427008476 7.205276477033179 9.364194017183097 -0.6030743579667937 -2.2057257479180854 0.8293712882589523
Ni 2.243927358426289 1.9684183037770115 4.264668092198664 0.7474402578110999 -2.918163778622387 0.7172835317220615
Ni 6.068981468900671 8.418927028485319 0.7144802753372792 0.48348849328064475 -0.5577679207205104 4.861164949548899
Ni 0.6225869348002919 5.6010084591876526 2.0307119380459318 -0.19558690280281155 -1.280060475621389 -0.16516406753658006
P 6.9924085960503435 0.17230947274448527 10.260555112382127 -0.14598003840896148 0.5284552877993222 -1.0331052456489305
P 5.500707841665963 6.1532597727999985 1.1215498083714703 1.0871192379715406 -0.18829191180329505 -1.1709706253705576
P 2.439119310911448 3.508139286743871 12.09853683534202 -0.12614474885058918 0.14808525767742237 0.7018258024060945
P 6.978647157003264 9.36534594212166 6.279751034058676 0.7446120443336853 -0.46205166356310745 -0.5415046647841125
P 5.051998978127471 8.910274865418836 2.939337810693032 2.003551421705743 -0.6144782289283611 2.7262656375250724
P 7.525862886334296 3.1097021839062196 11.711272376738178 1.0935189708502973 0.9587353153777877 0.9218389565720705
P 3.2488580797692572 2.599716145411993 2.357566201696462 0.11301361078526988 0.296318868007251 0.4802609874822825
P 7.601443362838624 0.39947972103022134 13.341251770280559 0.9222842716396051 0.36315700867772294 0.8802760455286194
Ni 8.261273067915411 1.1411437432753677 4.4712223407931635 -0.6878168897215121 0.2649231273047889 0.9588029353909293
Ni 6.3510022160250434 4.867177152826465 10.559857536322038 0.381440123257627 -0.12786018887979916 0.8999994920994758
Ni 7.987202751632225 8.093305034902887 8.18767412652438 0.9432127942621561 0.995232896083189 0.5203899942926845
Ni 4.303042234008495 5.256169031715307 12.690400166306448 0.7418805043351353 -0.6329935141237292 0.10051162166351724
Ni 3.1704655237312074 4.877977033029061 2.1840338013408007 -0.394106920092018 -1.0063148649289637 -0.9929782957210578
Ni 7.485484787514554 8.70417092324801 2.857064398049309 -0.3802383896400419 0.5169370027470774 -0.4625332311852164
Ni 2.007974266387559 0.4498813418822859 0.7656507803940789 0.13684439465628045 -0.07211095903363711 1.6571040124732173
Ni 5.297985868901138 0.4006017501066329 7.388464306618411 -0.9780378723611414 0.9039453641211014 0.6164307246690416
Ni 8.941665520678978 3.9132375613673815 6.582294356305058 -1.2017480157627303 1.258703864322484 0.9951758175930087
Ni 7.835294402069755 1.8817109610777938 7.17162774993483 0.3361275153637566 -0.9079899665041201 0.2932924224761013
Ni 0.6415792154783698 0.8221661050563329 2.832000454617194 -1.3987855349691392 1.3033235599143878 -0.3567637035568694
Ni 5.76954638207246 9.27399539833188 12.549890548435318 -1.6220254236025289 1.1091152826266575 -5.127671105070092
Ni 7.681872574485814 2.361698370393355 9.707634878854119 0.337260086306303 0.04505549757774176 -0.10456856534171023
Ni 3.192055941679477 6.463877780564635 10.913006144981397 -0.027589222472178293 0.5714916980645061 -0.212137350962325
Ni 2.216703438953654 3.2803328171417023 8.467997349225904 -1.530292062352274 0.3709914171204772 1.3553829996137883
Ni 1.34231486819103 3.8619287879481266 3.524720279290211 3.3988191733296107 0.2305230525583643 -2.2098551967054263
Ni 9.27589191708718 0.7388939837675774 9.092116446961512 -0.2637532753664038 -1.3162258697983524 1.9477271156472715
Ni 1.2288040165806973 1.1507197616210953 12.297652619734697 2.214659302962289 -0.7631916071080856 1.2620596681685943
Ni 3.745288213268702 0.28327263635200844 10.790763833131145 -0.6046877252005005 0.5711248016433906 1.0439650711815698
Ni 0.9925239385496742 8.192120201773875 7.470232292342617 -1.0420544844224182 0.20520617106013048 -1.7477906776265124
Ni 4.980893538489097 8.490929343988268 9.330858262391656 0.6281868367637052 -0.152955184175214 0.0764232132557458
Ni 1.742330846248612 4.119070572287452 5.934861157318948 0.30962149865342803 -0.45114221573945523 -0.8086124584450461
Ni 8.603365813052495 4.943019218124628 13.36137915947474 0.9865613364511203 -0.8605965648218211 -0.5005153668559444
Ni 5.758391488506803 7.835864291942037 4.902707450749038 -0.027339311244901302 0.5506624200239807 -1.1417978604613432
P 4.733243690383195 2.695635150636955 13.313671903199172 -0.42456600791282373 -0.4656152125446497 -0.0054954758969324715
P 0.0015639272888534749 6.321349257752517 7.378440784586087 -0.8438815660599854 -0.5117827122396477 -0.46802253643456165
P 2.5685123392903044 5.364233230939728 9.104572744776497 0.7523389806642978 0.4833211144648451 -0.4992616969545014
P 9.032156558431874 2.912417521070384 2.3481592818210344 -0.2758192053920024 -0.43235619338120385 -0.37271199935600974
P 2.5935501238430367 -0.031016022737542722 6.468679803422884 3.676744369321023 0.5369404424521979 1.1167992815344767
P 0.122635629286696 6.813948983913671 0.32667675696899984 1.9760881832884678 0.23570074010456182 -2.1145724275410163
P 5.10472780499897 7.029339328265623 11.577913475395652 0.3850455812206982 0.2194889062313897 0.2991000302968139
P 9.330620029740128 3.2764650399757205 8.531784842356757 0.019130293071547698 -1.1523481251733638 1.380663371447132
