# total energy = -381172.86109614663 ev
CRYSTAL
PRIMVEC
9.18458591712212 0.00000000000000 0.00000000000000

0.00000000000000 9.18458591712212 0.00000000000000

0.00000000000000 0.00000000000000 13.44256988187976

PRIMCOORD
 96 1
Ni 7.89955211632188 2.335392210184904 6.62777812074411 -1.6377140379823794 1.095282233398307 0.3494296317893014
Ni 1.3759703672211796 4.14929281763539 9.988891107201503 0.5522495620054424 0.03688633150338809 -0.5796765478681436
Ni 2.5825861550587854 4.194324842296036 7.504287951425751 -0.23827158615553157 0.8649656404237942 -0.4570030453956065
Ni 8.931219911963689 6.65357119332304 12.316230272470548 1.4647988657454707 1.7201420626713084 -1.351381334653563
Ni 8.84974345045755 2.6750381967137042 0.6084237082643016 -0.32018410466062275 0.007922597281186355 -0.19125279420383193
Ni 3.895458417156848 8.397613840429068 7.35687626621243 -0.14684084374736 -2.1446674471541836 -1.7056477257098754
Ni 5.085973625914275 4.148355989873736 7.78948495737211 0.3459005355901204 0.7665618091318991 -1.4584361567522366
Ni 6.100052939560339 0.8993913895307268 2.7883116946006625 -0.3319142486133574 0.4887129749043777 0.25501332439024466
Ni 5.448268801268928 3.3027036124354923 9.953335738270994 0.7607860829903865 -1.1461653934014195 0.8980655083015566
Ni 8.99716523871536 8.761350995769796 3.0237181419323305 -0.6927642064244586 0.6045362872243009 0.431660709976076
Ni 2.171686151128945 8.785331949550939 11.67247897300602 -0.3269792732055853 -0.6998887332843817 -0.5709576799379069
Ni 2.3357504090349472 6.481846990777638 8.543398017021163 0.24888150046089397 -0.7024261549942546 -1.3409053748229034
Ni 5.6555281666558646 6.490820331200532 5.89535974747346 0.13386037232729206 0.01720196570058328 0.10962283993616603
Ni 8.516370536097467 3.1034807597097966 11.647274632383189 1.5711504911295329 0.5896004918500749 2.8942185806606995
Ni 4.38347220429101 6.24892589239012 1.8907912052174725 -0.7805141575469331 -0.12744135617482566 0.47164727767134257
Ni 7.766412359136334 7.418307368994959 10.293029484646466 -0.0009001432167661916 -1.1234556105087297 0.7803310950018496
Ni 4.440076807183844 8.48737479841571 4.411475088237133 0.3807649515674733 0.4744448950211377 1.119279367643853
Ni 2.0916241158511855 0.019414377672379093 3.7238738203171033 0.2574880111829823 -0.6156743061189912 1.0528160938142965
Ni 4.105693588374918 5.12750632334757 12.203433454591726 0.28405110638349146 -0.08604093885116794 -0.12521709482999724
Ni 2.2837013607478003 0.8558968645494995 8.024542390439633 -0.5316218584527619 -0.19268952665035846 0.4821304365908536
Ni 3.1309426715464954 0.841649734903651 5.7651416070622465 -0.42396282711118594 0.5673211116265842 0.40684879313871863
Ni 1.705715370151331 1.4098798583586682 1.4963463053834947 -1.3494674054603017 -0.6169464879631955 0.9856015436410124
Ni 7.614187032453578 0.08754563586790759 0.9823484062837132 2.700757980172271 0.7442921991004214 0.1526260829705694
Ni 8.789171106456537 5.0775880989888895 0.4769702410497314 0.22007331797995 -2.053433908358483 -0.3185445121746707
P 6.5068198798358265 8.625116033136434 11.594404482116708 1.70916396639325 -0.011672294131605703 0.5213443877861538
Ni 6.800781736105183 8.971402475269894 7.143972972790828 -0.04960583595258554 0.35388766756065504 0.15286416712330447
P 6.397146739621105 4.184295274494807 5.866323597613748 -1.730939924617761 -0.8294736181647715 -0.4453094111077621
Ni 2.6530870364161423 3.167616723039451 11.554587465329266 1.3752565986092635 0.02082310739293833 0.07021477045218874
P 0.8382293951150267 8.935031515111591 0.07199796885882284 0.03911264973074555 -0.5805072712995551 0.33750459821694134
P 3.6885113276904624 1.964252278609936 1.5281240541339274 1.6518250234624647 0.7995338931825456 1.0083442366541666
P 6.306871444824144 3.3016749388148536 11.994710984671148 -0.6129594782909895 1.4872857339940773 1.738116130651226
Ni 1.6816517550971002 7.893132090778786 6.416057801986242 -0.7561886934276912 0.3799730517937972 -0.4736974753321519
Ni 7.27349400313234 5.345144270799881 11.802563018463115 -1.2688100995185503 -1.311608168520683 0.6715160956789596
Ni 4.487542747107609 4.070617654828313 0.8126797140624087 -0.8877993504888582 0.5837689727699623 2.0763313817819467
Ni 8.997266269160242 7.267156638862334 1.0262139885352424 -0.3536159019565071 1.3114279341890769 0.12145685645661664
Ni 6.905201293185927 1.5743114997006131 10.988978622689698 -0.6699436089855171 -1.0379995976267544 -0.24616615841225992
Ni 9.16551869823599 0.6451886871576531 7.241391120041099 1.271824460864842 -0.5391078824171619 0.7102312528609703
Ni 8.844884804517212 0.2288523268344545 11.641413029662727 -1.5004171291697128 -1.775554478003342 0.031131945518114126
Ni 5.290578645976528 1.7630822936737454 5.3591489273780075 0.02913291281021434 -0.86630878471525 0.4401340375544098
Ni 4.2603160919772 8.594329301204455 2.107552943175061 0.23727682634243005 0.59206206601669 0.2766890095914654
Ni 7.762894662737185 3.949234167592925 2.5969967703336283 -0.8166484413756451 0.5279945461128197 -0.07764140193356306
Ni 1.913094135154949 7.926058831225129 1.8362283357698885 0.35651250677801183 -0.040957673359284304 -0.1698365333115849
Ni 0.5962945441266615 5.604443499888067 6.833368646873279 1.0578929941165718 0.5830408363546863 -0.9714643329086817
Ni 8.232272925083166 4.770960698765417 5.088819010625651 0.5433028943351159 0.3294393047103036 -1.3018330914117902
Ni 5.677314004407253 0.5273192224870551 0.19272475820246318 -0.586883350029228 -1.10752454110077 -0.14884861820600817
Ni 5.563112863344541 8.52944020183112 9.380897237557255 1.9853174151962196 0.0244506768431966 0.2913453260520595
Ni 0.46110111353419697 3.217452286125045 8.027660557352196 0.30086329284482377 -0.5670115508059654 -1.0936133303363167
Ni 7.931643059451454 0.27425449030681304 9.342505668501268 0.26742892444577815 0.6280256285954925 -0.9240549903867828
Ni 0.06405146513938752 5.683210508554129 9.092473686584732 -0.7403476126303766 1.2721075393228995 0.46385426398948504
Ni 0.7940405154398682 6.76855302418713 4.1376228827926775 0.2850705487869413 -0.20384142950211992 0.1035339534296088
Ni 6.608474876561104 9.006726392635763 4.874020018674584 1.3985273962117464 0.03837602867503713 -0.7638852907410005
Ni 3.8448605334416732 3.4909876233560007 5.505351002628488 0.26788066727121607 0.1157621200646845 1.3345488364772564
Ni 6.19510421902455 5.667210959918836 3.578869415067796 0.033644170417006576 -0.5797004591275435 0.37892327037304424
Ni 2.323663493992441 6.4159200331977635 13.396112551786855 -1.6046221405244172 -0.8075241104768738 -0.7828698022633034
Ni 1.3651601096185726 4.324580639509434 4.755712449256626 0.24401131685278624 -0.22128327912765114 1.2357364568930331
Ni 3.384042305153152 8.2556752499527 9.629369676788215 -1.4898776630909696 0.8938890083263636 0.4704830821599123
P 4.544588210123574 6.411786969543412 7.934611517613869 -1.3796061338272112 -0.9811242245959488 0.05553634250440758
Ni 5.38167136891846 3.259480951196862 3.3459225998397626 -0.879003606574099 0.21623157563635664 -0.48099092366977164
P 6.854897316219506 2.0895575840240093 8.726028915321107 -0.06390708306660607 -0.3828390604876826 -1.0295460675427623
Ni 6.370318564211407 5.273862699641147 0.9421493107228897 0.9400426240642907 -1.0435002157300093 0.6587829643830073
P 1.1293458666730087 4.727958467588352 12.037915276737982 -0.5311084091514531 0.521554961135063 1.423721636089187
P 1.7181788532156788 2.5361305195838617 6.331073747125443 0.28347929304042147 -0.2088170283398404 -0.49870273912723784
P 8.238261275089029 6.132906203319493 2.5765105514868867 -0.4416039372317168 -0.7204519021477142 1.7547665947237134
Ni 8.078963817264379 3.708607201636515 9.647598324421091 -1.6245952412122342 0.20466186852088622 -1.0272490439784696
Ni 6.573628557661962 7.778288028703174 2.5365594397453246 0.2779149115787665 -0.5876215137468331 0.036340229191930966
Ni 3.44208888803206 2.7063484500419 8.898940684823195 -0.3035678362601804 -0.8659655424432183 1.277645181311677
Ni 1.6923058747394313 6.566069643467446 10.868734024105732 0.9559225285193408 -1.3172555966144477 0.2813733024410122
Ni 3.305211004385799 4.446983615779562 3.514667322719672 0.4199745318873993 3.0798632846491345 -1.7669484815018859
Ni 6.132143882689912 5.528633927881341 9.864642029165765 -0.6859644098938056 -0.9963623817019421 0.7733387228444165
Ni 3.412753320672055 5.839890359397688 5.890520389163508 -1.1833216907367425 0.8520792713794293 -0.2621638193920969
Ni 2.7162035107110567 2.349692610428964 3.8345737972352847 0.48633856113493024 -1.5559053920450043 -1.0878327190987975
Ni 6.355862026007071 7.268111835795784 0.04630133443182775 0.2862473427038619 1.5242900791325686 -1.0183296300016527
Ni 6.274174319025265 2.662960466257096 1.0517250943270866 1.1565583065999696 -0.011883381701147278 -0.7034571673619304
Ni 4.635616640964216 0.395660939006947 11.505240522213475 -1.6459775635427525 0.959558068389399 -1.0933271665544653
Ni 4.860106289496854 7.253618559247854 11.210525529900437 -0.2760030392680343 -1.7430323370059206 0.5801000085588075
Ni 4.963157343278713 0.975008085233583 7.985464732817024 0.2114423817778294 3.4895929988800733 -0.17859808155429888
Ni 7.90000216103091 7.141832964276463 5.691288351851915 1.0176174344259763 -0.148112511370932 0.03444609749301165
Ni 8.556020393421557 7.611238780380139 7.970677549520341 1.6393942538982798 -0.1594608465042157 -1.6897801625499995
Ni 7.250036570747415 2.4121018716096887 4.402885663504799 0.8128992587458581 -0.08025081453195211 -0.5591156929976564
Ni 3.7843341123701535 4.859775644404506 9.811247439044479 -0.7946811930759347 1.628401759442518 -0.3107101037319165
Ni 4.377061363333814 2.2669945989983167 12.935448624541431 -0.14133302655525337 0.6533386534389845 -1.4438754853292424
Ni 0.44438700411599497 1.908051797496639 4.389038981804128 -0.3126592570384873 -0.7602487224296778 1.0870063665427603
Ni 1.4750353107230627 5.504450913210429 1.9391847883169924 0.3061949894703824 0.3666020298035299 1.423284548551768
Ni 3.319144021193917 0.10960058198612309 0.17272256703257619 -1.0165622536885848 -0.017333349072124988 -0.21669103177127844
Ni 0.5822402907846828 1.7737547824878739 10.076725139066626 -0.20275462419584434 -0.07610285380184957 -0.820231273630897
Ni 1.16330128073999 1.6072382401469558 12.573036804945865 1.01503707529331 1.5708373307644883 0.06174838485239043
Ni 7.7487504004534005 4.747990049433114 7.47346356269159 -0.9206626768757821 -0.038272670327953444 0.3191386941152439
Ni 0.9478860030751312 8.166979703930293 9.435313153630462 -0.25799169029227825 1.6700898832099238 0.49464116746335457
P 8.29258810067902 1.7288605266157058 2.417807336369875 -0.5691931318383164 -0.39402464479085686 0.8691231142355935
Ni 6.581830392869377 6.775762924117502 8.21443186697521 -0.08018396584975868 0.32968381662094187 -1.6928698572189165
P 4.160341874471358 7.272061207732166 13.321667809244655 1.3722270677543205 0.27268554485902713 0.15938859850538356
Ni 0.7972321590396183 3.4431267462385975 2.6514659570050467 0.9374234412738889 -0.26474469274539564 -0.4658049599579526
P 3.203151885880985 6.93276423546751 3.813482314177828 -1.1778776369030362 -1.0798736121527208 -0.6985551020746228
P 9.035685391973926 9.032057480543994 5.2907669299874485 0.16073637078252964 -1.0724703777101143 -0.7439217031348802
P 2.592432031142043 1.3308189429438517 10.430708264183082 1.1009209197413232 -1.0339192569097935 -0.7547193079710164
Ni 2.20530173551768 3.655474372213337 0.4549869347015247 -1.016826820203881 0.2692883462520201 -0.07231433329369481
