# total energy = -340859.07796898443 ev
CRYSTAL
PRIMVEC
9.34506634938663 0.00000000000000 0.00000000000000
0.00000000000000 9.34506634938663 0.00000000000000
0.00000000000000 0.00000000000000 13.67744921611123
PRIMCOORD
 96 1
Ni 9.270268384846545 2.41128876608896 7.22446983410678 -0.16952902937349512 -0.895731203741425 -0.08501815401360843
Ni 0.7497836385915179 5.9546668984107125 5.9524259515130575 -0.08268642055663825 0.5384432522499695 -0.09339377967181334
Ni 5.342266013935611 7.836875391115031 7.837014632602834 -0.025260060118369402 -0.10821876049978782 -0.11162032998216904
Ni 7.6147898906030544 8.094621664610541 12.072167838993568 1.117798412222952 0.43054202299060046 -2.250307391183202
Ni 0.6305219025286591 1.620612051895071 1.8201404313830283 0.921449948663768 -0.07786997300460137 0.746106883711657
Ni 5.39677578563712 2.494039328135396 6.340715325103326 -0.45946950465822806 0.20940272563998127 -0.9947305025254739
Ni 1.1769643745836658 2.3635822026505577 10.71584360700084 1.249253003322229 0.024174797473990622 1.442527198831464
Ni 1.920355053322449 9.088721781924342 7.860101618885805 -0.9715576639534365 -1.224897457296 3.1640756549319957
Ni 3.816665251066639 4.847865281573477 6.286497119470235 0.44749562012580346 0.08871899990396334 1.764305130341768
Ni 2.7833345454444323 7.584474495540532 5.674213048323827 0.7354522322112883 -0.861470225676026 1.0320984016509709
Ni 6.462907673956446 1.3741919987496767 2.6846506453642105 -1.745788559594819 -0.8328049965308497 -0.019706734400307995
Ni 6.674816397272648 3.807404290367823 1.6569680978109893 0.004202982337754052 0.4493385868718133 -0.7797736798364828
Ni 3.807366910102641 7.365285965580154 10.556570035087274 -0.19359121252902145 -0.25710131726752494 -0.44863796126036287
Ni 0.6272389807390585 3.1182056510765026 13.417112583758296 -1.21470380459245 0.07781752250011113 0.3143379302924909
Ni 8.149196851776118 5.054138929913509 10.112202787671118 0.20902374503400775 -0.6096242432701695 -1.0949549319658756
Ni 2.2308916063211006 1.4527559710957398 13.573815327933977 0.5233591042233374 -0.429413308702796 -2.338859526491998
Ni 6.928133109344104 3.0444730780052005 7.645489367890321 1.6020170988014022 -0.40159731493179224 1.967760637259379
Ni -0.016412739934743674 6.77438807865094 13.138981917152464 -0.2805487496571878 1.707835991610446 -1.0113128323641871
Ni 2.0282999141014866 4.263779947973666 4.8734118893054195 -0.5365390932487211 -1.3462728097824042 0.3385785480074105
Ni 7.88343251139909 1.8250166869760074 1.0172001866895866 0.1962638742651781 0.47236307279144457 -1.2692497581591302
Ni 2.3588349089724563 0.5062586869844619 6.014234219991333 0.4324675221480875 2.4236802197828196 -3.0931137219011378
Ni 0.9978007635668089 8.525943199478215 4.224950263009335 0.33521065997644206 0.6359176297490596 0.538512414925008
Ni 0.6867642495213491 1.9369518910632135 4.621856722230661 -0.4018963342294498 -0.1143410713474418 -0.09478320382017223
Ni 0.5563846880867631 4.188645614958043 3.038048344927061 -0.6279055580778605 0.176494919168367 -0.3102398489637173
P 2.6975001115204895 4.368267134223378 11.166283278495799 -2.5164607913506662 -0.5317936081439357 -1.220572347558085
P 2.399747609214048 0.49798830331296606 11.52891296905195 -0.7185091765990465 0.8014205686822973 0.30476956987776543
P 2.9331733384260867 6.507324774058841 13.416004258895653 0.6712895814904503 -1.1134367928201467 -0.03357372219038734
P 4.924728451853763 2.401906319528303 0.21474308192362088 0.5423808967414788 0.8456476568214727 0.5561730654295647
P 2.1943337069732003 1.0602351514868809 3.322512162961336 0.4018096880529144 -0.269076230241214 1.3244289744344353
P 4.808531897535821 9.26125039587141 6.181071688564457 0.2925707138187284 -1.6501342660236034 -1.9347854678849388
P 8.040102547842737 1.6404422825740703 9.097486519602867 0.2465788204696463 -0.157771888837567 -2.1632953466680163
P 3.4824389550089565 6.696992239591812 8.378654675088596 0.5062376140517023 1.307625015503219 -0.22786118945548497
Ni 1.183141463404975 5.320230347610879 0.7108838656299714 0.8681409528279823 -0.4453186670791428 0.3978967261517535
Ni 7.441336115092733 5.319978030820901 12.288326698460954 -1.3209356165691961 -0.5097075748781738 -1.1741441380025328
Ni 2.219107477722506 2.3990280391092966 8.139860196040308 0.2155250364876353 -0.35338116023788174 -0.4673141975136275
Ni 6.471860247467511 1.4812023528991671 10.484133622711155 -1.3913481048544876 -1.449955372974735 1.0280275740157068
Ni 2.778503146169671 4.990938246557207 2.3235937294655886 0.8613126170522393 -1.096617664380279 -0.4280850768096756
Ni 2.2666271398349993 7.562111751895459 2.1614063658810925 -0.6147427954436575 -0.22546337864726976 0.43719938040611805
Ni 8.388748281194339 4.764768952074109 7.34164481686586 0.4337039656583498 1.881710185326514 2.001060536963089
Ni 4.076271192754949 1.0340876559921404 7.674225446748909 0.3221430281592065 0.9908347670154937 0.8360664408909408
Ni 4.288778000314063 1.63434929934942 4.5570253248057995 -0.1773328416886301 -1.0304300128096122 -1.8230139570368862
Ni 5.514037677512746 6.767781116780039 5.222979980700384 0.7580581425362621 1.5003474522740419 0.6386661390284742
Ni 3.2466162070426314 0.51068264136874 1.5706084711612407 1.4092535243799986 -0.6303493916326628 0.34173946223389534
Ni 0.5152252780949707 4.839417341642368 11.821966772025027 1.0852654725922535 -0.15912300354882272 -0.7289442558894413
Ni 5.600843998331419 3.2882017520574975 11.981417900198204 1.0872724757199532 -0.8032553078981909 0.5684133162494984
Ni 3.674087574596569 8.853506463267223 3.7060411597806886 -0.0705523562972656 -1.291781106492427 0.3117012640005922
Ni 4.472371172754975 6.749184434852043 2.1704608006147788 0.6283285045478921 -0.07399017833422096 -0.4307045167103937
Ni 1.8423237497552283 8.12257275790031 13.718891875131458 -0.38580842752865163 2.5888671701375348 -0.8105757528190041
Ni 8.660998097580427 7.9469322368768465 7.754416395137013 2.383973902332133 -0.0831474193534568 -1.3776451534460983
Ni 0.15795965559242292 0.23837582007824895 12.949699468350866 -0.48050884182703046 0.664284610927527 0.1762817747162964
Ni 8.282990165928442 2.830097257186992 11.356660034560596 0.21824269252911446 2.3251560608629767 -1.4125442793161287
Ni 4.912224753150418 0.30697888625996433 13.317267091937547 -0.2854716408801019 0.23696495152896604 -1.5006025057076413
Ni -0.0541546591822807 0.5227424494230511 10.243780386604783 1.0115491167447097 -1.1316990814644445 0.7832978909396574
Ni 1.4305707837102808 6.956327174357553 9.019662676507407 0.19697092763453172 -0.3175698069662273 -0.5563229607438677
Ni 3.772014524306857 0.4296310123748216 9.83088545345853 0.650162312593532 -1.8173045653569349 0.20349407346503018
Ni 7.474305508983171 8.584546110217142 9.435648023077576 -1.7476068437504804 0.24625254747847913 1.9601859102359145
P 5.185689428154918 8.61082443664002 1.4243693977166032 0.8086453685655106 0.030554218637773186 1.4865501413796334
P 5.478432974926985 4.986620825928698 3.2563958189208466 -3.24654584571277 0.8496331238317819 -1.144984228609125
P 8.43751083712413 4.945988477675971 0.31478108211005684 0.7546177493961456 -1.8198437868390205 1.56841715135877
P 9.058443767127 6.998389317753489 10.324012453284588 -1.5307980554544152 0.9227151885294368 0.1377309110262918
P 4.791196799557714 2.53056919228441 9.312195959287825 -2.273604156927613 -1.6298960845998576 -1.5095178059194005
P 8.247077076154929 2.790876013944881 3.379163823857768 0.18811039192010828 -0.6109751008711091 -0.8586911202689922
P 3.2983691841869756 2.760140090899062 5.997753261072632 -1.3162878333845396 0.38738785620062965 0.9454612239767007
P 2.5057860764688087 3.2407755406079595 1.0515180736464613 -0.6451435192227019 0.7436206269546934 0.3599649841029865
Ni 8.084342091685517 -0.07587165874633629 3.4582202811976024 1.5205056723894717 -0.6590788983568713 -1.2747362351949982
Ni 6.271240364236242 4.893048677112102 6.2335928301582895 0.23737864202761702 -1.3368417462764912 -0.7945621509995671
Ni 4.394330524121459 2.792978653861363 2.3227451974459594 -0.2258143342287853 0.6996141394667564 -0.4472585644143329
Ni 8.211304162375848 7.377770974150909 4.977346782137069 -0.17581023439651658 0.3373305345329222 0.3475789517338079
Ni 1.3735378441089936 8.061839172046014 11.264323303508263 -0.15266979172431128 -1.0151098375127743 0.10002979693109224
Ni 5.6913976907345765 6.8901360697867 12.398962938333089 -1.949727433906752 -0.028227884497441708 4.363591181819782
Ni 7.408684453456342 5.1592709257376095 3.6159481791458976 4.548261694820406 -1.6245291638609893 1.419583188440781
Ni 7.2457158423295445 8.89608258530941 0.44821180769011565 0.05014473917519106 2.0752803148096133 1.6498159634522362
Ni 7.370453787241551 1.4821181693961236 5.0796266637277885 0.7797068311542893 -0.3367952308547425 1.087607233351553
Ni 7.243930934667108 6.720597877054184 0.6175369329110959 -1.0755341042371025 -1.5504613382112975 1.2530695488548418
Ni 3.5399298028587225 2.3417427827180313 11.00804887795429 0.02900718586562746 1.4754692009751236 1.3223312113651418
Ni 8.34495730053374 3.8099741835990786 5.349934575337677 0.7598406883579817 -0.3833131719106237 -0.939579568384943
Ni 3.1179066089550473 4.650628312341171 8.674183986123342 -0.7451810294632779 -1.160854619982478 1.246597567977253
Ni 4.339979618546973 5.1308899593982495 0.2814659207666866 0.7236773510635471 -1.3874505695722943 0.06075825302497923
Ni 6.3319459148916515 6.570572182746619 10.37279930638675 0.24279312817496895 -0.1333831755805574 -2.7099193349565653
Ni 5.93387412590328 8.961488704311442 4.400158107463318 0.412935879873063 0.2834373840588925 0.12754574296317386
Ni 5.250469427715155 5.325295373543027 8.29478457409996 1.4797223198245226 0.35645260007435386 0.5616202045870651
Ni 4.551215497089903 5.185913709746009 11.447464174740473 -0.3349568920944231 0.4454078843588393 -0.6219619388999159
Ni 3.70653364477446 5.850974042796116 4.29789224347204 2.5979015124256617 -0.28674176584177713 -0.28149260162769585
Ni 0.9014232258483106 4.087718898966907 9.297546633363039 -1.3796876377974239 0.8431773409041091 3.1531088715078472
Ni 6.2133102982705894 3.202096311210986 4.09058316178647 -1.5468587084617036 0.10034604261993041 0.9136507643343232
Ni 6.962878065830682 0.3249830909848275 7.279808513188698 -0.20785337887499042 0.7254393280599765 0.07626174797721705
Ni 6.697010929724403 7.003370238088976 3.0759902485933215 -1.2860971687337721 3.7751410015240663 -1.6436633135872791
Ni 9.142334427261485 6.913984678972754 2.760300826039344 0.23755527681479732 -1.0066542505462532 -0.3147495639086128
P 0.17266785543487184 8.69653738470212 1.685089271307334 -0.10822981624338135 0.7815300004059572 -1.0980196869341283
P 7.319429725268256 6.714289957304738 6.778543829632538 -1.2278339142165047 -0.7559153851616466 0.2765954214363946
P 7.674635695159281 1.387265746497047 12.563790283146057 -0.7271190297552445 -2.087094790946038 1.6545195395754924
P 5.506982152459662 8.585854419498508 11.284100267309377 0.2056599707680974 1.753378199016619 -1.8437581315627731
P 8.983486990370993 0.19450260283425042 5.993581623478333 0.3877429255472032 -0.2839611177728464 -0.3532119816498691
P 6.360336226297306 3.814758857542362 9.699855475409779 1.409078175144399 2.2017053139047826 1.196180806087598
P 1.8546312020663693 6.310573748273899 3.8227647758376957 -4.108897702662801 0.5661453461509283 0.9246571427471559
P 1.1785343457213058 4.298851981780586 7.382526678388676 0.7453527791544519 0.4201709641689215 -3.289138483572316
