# total energy = -340896.9598631474 ev
CRYSTAL
PRIMVEC
9.02950123544512 0.00000000000000 0.00000000000000
0.00000000000000 9.02950123544512 0.00000000000000
0.00000000000000 0.00000000000000 13.21558777405220
PRIMCOORD
 96 1
Ni 6.375080526707125 1.9755374336381442 11.445174228378638 -0.0027346253223436774 -0.11418243428239044 -0.01842401103314246
Ni 4.768614916634939 0.5202834589861524 6.05250160375136 -1.2724479533814539 -0.9380142807803523 0.1879970062706956
Ni 2.6052458033515666 1.6481186981504197 4.675106307307085 0.5554932657537207 0.005794752304906149 0.8977088962930861
Ni 3.2384847079530417 4.2866743306631845 4.603861738576348 0.42770403932117307 -0.7498653223128247 0.8841666388322773
Ni 5.086579764583554 4.585307016986935 2.687033217441104 -0.6924865272830396 -0.7414629571817425 -0.030694857980695524
Ni 7.045096588850904 5.875821357831824 2.6203205552584845 1.2414214230929521 1.3533068338110499 -0.5577146988850717
Ni 5.150228717079431 4.436067424583496 11.50056118746641 0.1653910959457216 -0.2751571463279713 -0.479732111562006
Ni 5.623121743056737 7.6753106106199045 12.332667627826103 -0.43555850236858534 0.7029028375203572 0.08318135791518577
Ni 1.9533068021946984 6.607463764249169 0.3421900961612956 -0.40400155349791067 -0.42318095463983896 -0.15881010029409423
Ni 2.8805462591107904 1.6780424644394443 0.1821900474251375 -0.1752134813527821 -0.6410027575814509 0.7393081156222687
Ni 0.6858510980342636 -0.004015419091348584 4.718863269116564 -0.6512311201776785 0.20332823731112726 -0.2967150750044051
Ni 8.52115814558993 2.1485246136517624 1.4396528028372129 0.744447236621047 1.5085425864903244 0.20069902721839628
Ni 6.8400727393160246 0.8274679856998649 4.952673167815417 0.2971375072538044 -0.47474777097353715 -0.8547763585956182
Ni 0.7873065711855851 7.443333700622522 2.6332453829790974 0.5655084838978777 -0.26432020361346736 -0.416916718897682
Ni 7.456182680534797 3.8633442356335115 3.9115762181348552 0.33004505661510253 -0.3334754224528902 0.11861090236738928
Ni 7.697956599109004 3.700325624715573 12.65993827949755 -0.06144730867220385 0.4476272606076614 0.012521786616094564
Ni 7.748702394686649 8.628383469875436 7.1083735259058916 0.2183393660079788 1.3294336267378781 0.04516862611683834
Ni 6.859070809404169 0.630846989788572 0.5939813431365414 -0.3390030371393387 0.2685442689971439 -1.8996994228150832
Ni 1.9853344422149672 6.4234244750207745 9.333574856085457 -1.2110916617611596 0.002731282888234006 -1.08024359389763
Ni 0.2873033714285061 5.123591689151663 1.3065137136534357 -0.6674175001295538 -1.3379835731904184 0.3321705875985376
Ni 6.4147471245670165 2.145788674851046 6.956063903165014 0.21560525490626736 -0.45043284837725656 1.1985086828898264
Ni 3.382053773733214 4.258953762616321 0.4653922195028666 0.42617577560210473 -0.04145415337972861 -0.1041049954417304
Ni 5.92840014211094 5.628151175109539 4.889239117443162 0.17021679946913912 0.43796736892039406 -0.3302587152878054
Ni 5.551138561144817 2.817240427652628 9.284558209947868 -0.615745782786875 -0.15267750503379512 -0.5627615172803598
P 0.14127557252808623 5.635465070913435 12.420391938818186 1.341627854811225 0.04701853484138354 0.31534297451823756
P 3.971598923032158 6.02845604260843 12.535764581849191 0.3381214058653338 1.0647784083824954 0.5874502782762915
P 2.4712480086234057 8.514539521362453 1.339346785162232 0.20325933174640476 0.1934801408724539 0.1879188447345925
P 6.267828113918641 7.8105093289800624 5.745278250183381 -0.2928085408611473 -0.3706849416236519 0.16480976952095486
P 4.76282700649877 0.9197269120903623 12.497320578423677 0.1912839045520835 -0.24308829081788458 0.5993130911521486
P 3.978894759834069 6.138561777710532 8.100190168019886 -0.34142527342758616 -0.6008621808068232 0.9507636100262206
P 4.6336870833045545 1.0991611558126 3.904835695643981 0.5984124337147501 0.10901631670041871 -0.5110013539889329
P 0.1297458027108094 5.546948872684314 3.498866622172518 0.26129221542042097 0.5712728971854806 -0.41916489150191033
Ni 1.611043567075364 1.113247177360843 2.560400786672496 -0.414791445024563 0.7355275655339139 -0.10580475174165647
Ni 2.0481617101205294 6.4509644530477885 4.754413317473992 -0.741830110713174 0.5111677043634681 0.0023124501832605337
Ni 5.903957282924341 5.479597824781528 9.130649462581225 0.6411883912296957 0.8292882416268427 0.26715895861384314
Ni 8.370681511550522 2.218990839396949 9.999032826128241 0.5476195194325988 0.2199455341528341 1.0815620555987373
Ni 2.3217736491941627 5.3246786762538285 6.985852226939151 -0.6409276813691414 -0.516448236036117 -0.25080802805964547
Ni 0.5206518626266449 9.14778745546492 9.240338937687573 -0.4892138258001962 -0.5384841327902339 -0.42085616316140423
Ni 1.4653435390609708 1.1916051869734428 11.331890108927189 -0.8574490203317748 0.31504986875785096 0.8216512939068752
Ni 4.074589411352199 6.867007740776543 1.565954753869497 0.5135364617059608 0.479240002416936 -0.21639818312120795
Ni 5.44533989801612 7.750336734366285 8.009451809596518 0.052830770647786435 0.4846169504581332 0.029171222247317503
Ni 5.253372706916343 3.020187491959241 5.03705475754009 -5.270761480636084e-05 -0.46018144312358816 -1.0371447058256267
Ni 0.6794771732836835 7.419098519958749 6.810058678017076 0.719965963650231 -0.3091579287534482 0.07765759988347916
Ni 5.091871052165138 4.396491121733527 7.049458740780363 -0.09987090275572477 0.762390451363029 0.2882741433259035
Ni 8.31394012731388 7.06494343203234 9.280633085866443 -0.17822809980938983 0.14243834380429016 0.1581596111942889
Ni 4.603194458453006 0.27511264213858094 10.363188086403804 -0.3529286460814954 -0.7882518925108232 -0.10026710975287893
Ni 8.041854173907973 7.222381811336936 4.602420630217951 -0.0516632327022465 0.30096022343400425 -0.07606737257822384
Ni 7.435929509808701 6.257037860232647 6.992327282100847 -0.8915050814752195 -1.1310753318375166 0.27652188788598187
Ni 2.421775372685697 5.205001670099715 2.5421106294621616 -0.8532678923708918 -0.17600512401614202 -0.3232676286819529
Ni 2.3733772473660926 5.107717826406912 11.418280762622684 -0.340063360083053 0.3283558418381377 -0.09847710773199168
Ni 0.9107877061078232 3.3972775124065078 3.7238881075554064 0.27500905078588117 0.20739623673291377 -0.3680793856800048
Ni 3.7624666505457074 2.6400455001765213 2.646051021286609 -0.7498977182126568 0.14840073203531215 -0.6104943045799486
Ni 1.2484188072180238 3.3685095222445187 8.121467284158527 -0.49103648083123175 -0.003915533004322289 0.2754967890555772
Ni 3.5821384862252157 2.605950104428979 7.0206483119637095 -0.4169352308404432 0.061123606784197954 -0.10221806283166265
Ni 4.183340721305431 6.799051716307263 6.070553382135493 -0.18270027664813052 1.0893424708751045 -0.8480801775223652
Ni 0.7687726174484542 7.579922962135519 11.363620678364805 -0.5435741457186316 -0.6757707571902555 0.29829424656606696
P 0.23549209473374969 5.561161307246451 8.077670592544681 1.253431817290267 -0.047181028561176806 -0.11437938078454495
P 8.519559923914263 1.5538687667910842 7.979955138704438 -0.3946021145608817 -0.16279865262819704 -0.4073486155932727
P 1.9091796308445286 3.283126560859782 10.281409701815258 -0.9550498961064005 -0.17712123989845627 0.1897587261568087
P 4.0062902658452035 6.148133048762543 3.744531352724377 -0.015400393715470253 0.7301768427449619 0.22045281280655582
P 7.016798132740524 3.9856397970754394 10.314818855487374 -0.11253075761158039 0.25094558207877427 1.2996823636173747
P 6.350854375544344 7.570857343139085 10.109448273114385 -0.995456582058221 -0.41727075980299105 0.32996252420362526
P 2.496629935913221 8.432262708319126 5.841660046727037 -0.6160550864971777 0.072318704169069 -1.1584292983704372
P 6.857400351720562 3.88855460240447 1.5666942700007795 0.483992943720889 0.09357812776847754 -0.34131934397734126
Ni 5.345311086021608 2.842315351908699 0.3254087685668019 -0.23952165651254875 -0.15452587109644353 0.362937179357433
Ni 1.5129560977942316 1.081517510873326 6.911171030130684 -0.5818236761181336 0.38926784683216187 0.19746843609624057
Ni 6.726499675832817 0.4787116364168497 9.176018190317858 0.5248909674868315 0.7830523505877547 -0.5974413280507324
Ni 2.632135657307123 1.4707160921514864 9.224056941497965 0.8116715569863441 0.37535997850181807 -1.0365734067031889
Ni 6.372525177926256 1.9683860688521129 2.6153778064152102 -0.40368813602255 0.2363861962073606 0.744037402777138
Ni 4.027067147628863 6.60713870221344 10.383592952746572 1.464245307234846 1.2781977113810372 0.3227276970180829
Ni 8.102613686086261 7.241768149967754 0.2705545500375853 0.04438521098359453 0.11776835186143587 0.14738951716197843
Ni 7.779574258579883 3.8766627495973953 8.209628622998643 0.18234520730155693 0.1210249111255206 -0.3564585136116248
Ni 2.9734778833252267 8.322418828745803 12.229902877030876 1.5147386879987075 0.2888025050255478 0.6554698408493743
Ni 9.107786766068307 4.7049208166341 10.483582034936719 0.7494020095231609 -0.7149379143080203 -1.3830434416435342
Ni 8.685305444131926 2.4356988632160768 6.032334213284693 0.21035274825807643 0.8844944544853413 -1.1418338559056014
Ni 3.6855894790958716 2.5107701344674194 11.187153528668693 0.7824142027831236 0.3170779549314733 0.7743522517105954
Ni 1.1938535327205662 3.4024965639801517 12.630255600885025 -1.0292804725862015 -0.2532076386400736 -0.19715630417246047
Ni 2.9090523937439983 8.434167933028535 7.912251037312845 1.235598131542956 -0.7619330521106362 0.9070630838144765
Ni 5.42356977112329 7.888795102584723 3.464294468772573 1.273266335517691 0.10387128216436949 1.0307066635097668
Ni 3.071736913125216 8.362636226166238 3.5938208546092656 -0.10214581483283054 0.23441056053822854 0.08495516198615691
Ni 3.6562887483753275 4.265554327841812 9.257703571046182 -0.7606192183952191 -0.10242863618057198 -0.3391765866027255
Ni 7.310509741023381 6.011480580742599 11.418175117461073 -1.1301358507423827 0.0045032871869922445 -0.24996187800926628
Ni 0.5248641248396292 0.12054654709968744 0.6031074597896244 0.056255480058619245 -0.21261968991538222 -1.1448181353449056
Ni 4.617596512535985 0.4382287716672382 1.6580276725395493 -0.5021485315839933 -0.4632053175515764 -0.44234930003817363
Ni 5.8659069657420995 5.566994364887583 0.39114263284183803 0.5190926156374995 -0.09570982939949968 0.13479471121610337
Ni 7.680845694728285 8.86780068869061 11.323750013782483 0.7537240339372825 -0.27104826636592033 0.38320852801195937
Ni 0.05463209280480206 5.197913511820631 5.58954554361626 0.33034433302307625 -1.3228099507737734 0.8095254571776186
Ni 7.955423790408113 8.88924575354771 2.6475842305551294 -0.06525974043975857 0.4465116589459794 0.5699405515273023
P 8.406050066938002 1.8158416790854321 3.7963624943213166 0.22061684918824587 -1.3845161695343187 -0.7393376833086234
P 1.7644186709333516 3.191043709738638 1.5222772516687517 0.0709112822985811 -0.2838647014042982 0.7307897937386123
P 4.732659443682949 1.0794587846470443 8.202029394963386 -0.1784561566597959 -0.3140144855148011 0.1704443420989129
P 8.486268153755049 1.577002348333776 12.382013850749917 0.4379619696037554 0.24427794025061153 0.32040084865711915
P 6.390647386418132 7.7850461361813155 1.4542164849879575 -0.998981564492344 -1.2191340724496615 0.2581616402112393
P 1.6970495640285803 3.377638347747899 5.870205008214512 0.702678637324693 -0.34436507278220047 0.5745919342563847
P 7.044915998831055 4.138563425883803 6.097090182602246 -0.5304602340444928 -0.13430877271862032 -0.23115322994319548
P 2.373891928922663 8.48044412561491 10.16527135710009 0.4062119308856682 -0.2441324158116828 -0.14095944526591853
