# total energy = -340888.829060151 ev
CRYSTAL
PRIMVEC
9.07985061330992 0.00000000000000 0.00000000000000

0.00000000000000 9.07985061330992 0.00000000000000

0.00000000000000 0.00000000000000 13.28927917794540

PRIMCOORD
 96 1
Ni 6.694573859403049 1.841847697517847 11.31894450224332 0.6244201706324215 -0.963450718575586 0.8929682962843073
Ni 4.5506849311337545 0.25262414377219766 6.218944044569047 0.9287367121331682 0.7976269059678198 -2.6026770794374334
Ni 2.8692963537072824 1.4799884109061696 4.599246696184948 0.46878024053619266 1.933022205336929 0.6917779312517892
Ni 3.3372446149198893 4.5027251601784215 4.922335928650058 1.184000461971322 0.0005571580550506534 -1.0921151485242353
Ni 4.244721204916062 2.531988983162099 2.098164616535697 -1.2973148918264625 -0.38024327473604835 1.2329419248670315
Ni 5.38130058566289 4.628544650168586 2.5998218231613426 0.07620312682513973 -0.6204930676638734 -0.2117969369037707
Ni 4.881400330131499 4.686855450826509 11.357602874227307 1.5771293344207868 0.7422044633334571 0.22425033217577506
Ni 5.887420538866451 7.942118094531763 12.377940191414051 -1.1215622501407587 0.3614780783134033 0.18955895144117677
Ni 1.7670115687382457 6.581393521470784 0.31534684384458384 0.05248932814796766 0.6947861219504937 -1.162523780154785
Ni 2.8842145482698744 1.5433112891042937 0.36461138933348 0.10929116762836016 0.3388094330712939 -0.8327764572857593
Ni 8.40773283413598 9.008255994197283 6.738927113693585 -0.7247716125689905 -0.12929640710569346 0.24789445395727633
Ni 8.953649772590813 2.204733007249167 1.1175634496010962 -0.3984410286909977 1.184253972743025 -0.3843264436664865
Ni 7.335720271121709 0.7073939098002966 4.80965589048675 -1.4588470190374099 0.2326940920677541 -1.0271084046355472
Ni 0.8833160154912421 7.6276102288841265 2.4389550177772956 0.6478526906237488 -0.011951258824605224 -0.055079971693279335
Ni 7.680218883355008 4.191068367624305 3.614882839154951 0.6781202312590386 -0.00975733649707997 0.1205184038027473
Ni 7.574002790845451 3.7818031809448898 12.256502637331318 1.4059023485195785 0.44376829187288735 0.10999513567392023
Ni 8.345190823090858 7.201438360357147 9.115236610128733 -0.32267730339612166 1.3692489589626031 0.9730620164131047
Ni 6.669404513494646 1.085450741926404 0.44062608272307774 0.6458549434674297 -0.6316691388853508 -0.5692190999802454
Ni 1.7640696971385625 6.650164310038693 9.204340816166798 1.0992576731062873 0.08482352150429909 -0.2654445470258977
Ni 0.22282952195984831 4.851336944740908 1.2987082853665413 -0.693589016318599 -0.6464907772792156 -0.47465726814225995
Ni 6.474196805094666 1.9902850953932316 6.861095595750933 0.38696619528217874 -0.056184774721683886 0.370387207877575
Ni 3.396127446166639 4.387211300637766 0.24573707707972892 0.0409234776872392 0.5539066379928913 -0.46070466261690984
Ni 6.137343427080298 6.133784125638704 4.516361279833991 0.5678818692260608 -1.1489946353200986 1.1318011542599475
Ni 5.193175160743628 2.6340828234918536 9.880446468728364 -0.17910021800169798 0.24803406485893412 -1.8832695593938342
P 0.24285876443435964 5.343128893671936 12.334297889426773 -0.1347764563836582 1.4710844416438664 0.8746610133346872
P 4.07955872220544 6.362623600721486 12.530434466544802 0.12399170706332842 -0.18082388556102405 -0.06762412690687708
P 2.4192444780594164 8.644816813578368 1.1212353411903309 0.24481324392879122 -0.9390296094187441 1.1769926631949212
P 6.552601315166475 7.94834687205455 6.027645211859386 -0.5505186953572648 0.31393812375091096 -2.1703172865118043
P 4.763026317646707 0.9853181493297718 12.490846317857702 0.4654357495439919 1.1887297491261914 0.08944276544386531
P 4.116377516454565 6.0370837165750375 7.933726496592173 -1.2286255568798645 1.4270237038792262 1.3634045843666842
P 4.809170118478779 1.0876843851780154 3.8785562531421323 1.2163164004952083 0.9817384611411801 -0.9043649681570233
P 0.42332079543345846 5.73233669033993 3.3115286620043847 -1.9094796421302986 0.46458394306665796 0.3944519621362626
Ni 0.8484875244972122 0.2907449885997004 4.594090249019948 -1.1822575111382865 -0.9073618460018179 -0.4781238865346218
Ni 1.9185361158231748 6.605436965902765 4.517597047502871 -0.09716070291341332 0.2477075347574508 0.12713153824389073
Ni 6.001227386491242 5.854678597544049 8.995832034598989 0.5344737260792601 0.292266038094116 0.5795798743892793
Ni 9.010934550129093 2.6770668363094496 9.981073005198523 -0.7783696004001046 -1.615026880797509 0.12064207386480515
Ni 2.270398486906298 5.454929094310522 7.007463695670861 -0.31806165900098127 -0.8375183428461188 -0.1559708310730862
Ni 0.8522856260100133 0.3145805044525676 8.730365350115088 -0.3317538117760932 -1.5833855997431439 1.052502933449252
Ni 1.8774497917843862 1.106252679688363 11.360220595159989 -1.6214875488211882 0.7150284171392977 -0.33943935334580894
Ni 4.457879777984482 6.641674649712445 1.385685990390268 -0.4528525135623427 0.9188163676956628 0.5857867745309395
Ni 5.93025019422357 8.483095594251326 8.027083704658917 -0.2824809336828942 -0.33601824347940196 0.5125039066763883
Ni 5.339733029541438 3.1227331441096395 4.850042158043022 0.2587735627636253 -0.5320725728369353 -0.5053058462660523
Ni 0.8781777280274741 7.363195899086654 6.930173283269672 0.40402057966130417 0.4223952255137499 -0.2448232712311203
Ni 5.506175771188958 5.108550952999648 6.696055691023631 0.0629262072105755 -0.7930786244755051 -0.5862667994911517
Ni 0.7466924112527343 7.3349666435205565 11.352472758629094 0.9959132099796655 -0.7976456750208972 0.21505760993291348
Ni 4.750523363348052 0.2780477254978569 10.390036740837477 -0.2057916112499553 0.6013365493400804 -0.44732052800051997
Ni 8.266922510778292 7.54287706293275 4.429874794728607 0.26351159166924293 -0.6421183592431328 0.27019723121953465
Ni 7.6600434552855745 6.400604615849498 6.999131116760275 -1.3334188366378714 -0.30392341982738624 -1.0866854928682317
Ni 2.490094552418459 5.477129329067393 2.2085982996565288 -0.2166357530533108 -0.7409333099305175 1.7685718760379219
Ni 2.42639032049445 5.521557038132982 11.300338980345446 -0.5842862787260131 -0.5161759562113368 0.7128362945839852
Ni 1.1628383087291871 3.7264433317372667 3.6220332215152924 -0.09879978117873307 -1.1538167392990901 -0.6254025891503486
Ni 1.6902232720761388 1.165017472877101 2.4707962379185604 -0.3380159906357211 1.121069112554424 -0.016516252487468328
Ni 1.28507125772591 3.4499255610682575 7.974524081381363 -0.9572425328823451 0.16330130329622844 -0.2536776362979567
Ni 3.796975611324738 3.3398868514492346 7.012234249184668 -0.4801925961381923 -0.6614381426176674 0.12318309511910397
Ni 3.924474873678919 6.676913549954333 5.713619486279475 1.2430378756504525 1.5822980231059203 0.8016334560240518
Ni 0.5315217432877409 9.003461833071873 0.09432784409762711 1.3590787032978207 1.496639150184519 -1.1850085915208621
P 0.2060980812291797 5.550394643690373 8.08226014088409 1.2746896982277791 -0.3045296859528175 -1.332576029021602
P 8.738502712237421 1.7604105173401907 7.740101406154614 -0.8205706592481867 1.784875755404268 0.4190314512478396
P 1.8446715310595185 3.580457493528285 10.41854202386231 0.6536525851349775 -0.483399018890632 -0.7085386956498958
P 4.091689402628826 6.050494655935322 3.6074409935898255 0.32926035593027814 1.4039310837258208 -0.5009377991053438
P 6.860054136885242 4.077869869990807 10.048941256615171 -0.019753785588159527 -0.05178973097778178 1.0545616157504933
P 6.375108395318908 7.843347479527577 10.148477303026311 0.2483845062198174 -0.1485495989083506 -0.47500976638567216
P 2.4607575550771714 8.378123441276202 5.74381271353388 0.14310991595001804 0.8181563933797393 0.005005680744707508
P 7.269382882518972 3.792780720340004 1.2685613653502794 -0.861819895705961 0.5497136829574661 -0.2008556074009186
Ni 5.3584738412134945 3.1752963993274403 0.12716784780668577 0.878909504198396 -0.7165476819973015 -0.5223779712569907
Ni 1.5934320645063076 1.2413154576059273 6.649064740129058 0.5135498314423994 0.865217351423284 0.5150012191769453
Ni 7.379730307058949 0.8775630221407501 9.247663507412383 -0.48001236180658624 0.16184528757599223 -0.8902074457097184
Ni 2.715211288748555 1.8490843384590434 9.156499083269479 0.9183851936955152 -0.20001151423306845 -0.3005354771917598
Ni 6.578542448377264 2.2380288194591644 2.583608841900865 0.1373215914030151 -0.8117944557174536 0.6679206650182175
Ni 4.169966794792008 7.036003482128036 10.286752532091924 -0.2414957495197841 -0.3785224353901997 -0.381120278024363
Ni 8.155149549691556 7.362796385659537 0.06405743811298328 -0.42420168259486946 -1.7342623041227745 0.16264155822504248
Ni 7.5723048587802015 4.070678628302693 7.892064510024309 1.0711637430835488 -0.6082294198051719 0.9015462677613055
Ni 3.0058209875740722 8.377433372629364 12.266749248751818 1.2702280629119995 -0.8631185599127263 0.1823035554303441
Ni 0.11262192711936216 4.999701703811362 10.15740824409251 -0.7033581798902209 0.25914174473632146 0.517617830864186
Ni 8.709492589518321 2.658489461948486 5.569563116326457 0.5096276135698579 -0.7088292303071212 0.43965709791799124
Ni 3.540578789621465 2.8133735537614486 11.520981166291824 0.01923776518368945 -0.6301838125890761 0.823094197000989
Ni 1.2653498221872919 3.2119971555185525 12.660735770799175 -0.2974828064083651 0.8091032820385357 -0.6990379552483122
Ni 3.3478408005891196 8.40933088784445 7.863199664915071 -1.1962697662569783 -0.9234209563472097 1.9009109266246813
Ni 5.644434656523463 8.18675650968692 3.6398006732012815 0.7272923221083152 0.31917648933171483 -0.5482931484608558
Ni 3.2765458135498777 8.550177530604602 3.359184257964072 -0.8292830994205203 -1.3045211797669145 0.03299728086162704
Ni 3.5767529144768315 4.40468093322354 9.329405770570746 -0.15047381251425698 0.3336823962573737 -0.7122590819242766
Ni 7.156238863989172 6.102222564896422 11.409005724536344 0.4511625274544294 -0.48473727808608136 -0.971372544525824
Ni 8.44915511264757 0.15485231233580538 2.0930345009374833 -2.407993148064866 -0.44833791352144076 1.1587681697670946
Ni 4.642854494739885 0.0035629333818388126 1.355546334254499 -0.6049258093532356 0.9336745157544177 -0.19284944926699046
Ni 6.250687202323657 5.5741929321557135 0.43635310502304375 0.2714578430995131 -0.43465090295265146 -1.4521932611663184
Ni 8.166680959974265 8.71500405884242 11.116322187830061 -0.9668823699649541 1.2996232282446651 0.7912436281492954
Ni 0.1333085507784941 5.083036572767825 5.6024812067508165 0.09653206819047891 0.05997509500205154 -0.07804300824735591
Ni 7.3646940744383445 6.318032454344803 2.393770957155368 0.7612792205767213 0.8430521281801545 -0.009734967899576783
P 8.63691734354218 1.88105449247906 3.4360097820137057 0.47545276746036175 -0.21648894306280134 0.07673277407636463
P 1.9889231178007853 3.3526440415651457 1.526021437560722 0.5012720425163109 -1.077700772871118 0.46042286971043284
P 4.620173027900351 1.5809745094607344 7.994152902443695 0.15203190102999622 -0.8152844711485829 0.7186930104750784
P 8.870024348414626 1.5986438987600677 12.029801467068674 -1.1397931713264886 -0.22909326209037317 0.6476040649480524
P 6.49712342790084 8.047144726610584 1.2730322837937489 0.84944131953595 -0.3652028354631581 1.145236196718931
P 1.803321891352857 3.403509364717697 5.704622262303777 -0.45079563103331394 -1.3872921896175592 1.599763269770219
P 7.115388616066407 4.12238837756256 5.768211180124958 -0.269262120999775 0.05302103228172159 -0.9317009369678149
P 2.32696595624589 8.566557581116419 10.063213873798942 1.2433397231615877 -0.4219622517413894 -0.17829931936695745
