# total energy = -340862.782605833 ev
CRYSTAL
PRIMVEC
9.27479723707808 0.00000000000000 0.00000000000000

0.00000000000000 9.27479723707808 0.00000000000000

0.00000000000000 0.00000000000000 13.57460326733611

PRIMCOORD
 96 1
Ni 1.1868772715276397 2.7933649262639992 8.045179062847039 0.1805760312162761 0.7199813902691988 0.9014963883599764
Ni 7.367778468812727 2.6600211642863725 2.4987862316181215 0.15970947217991202 -0.06378572699739338 -1.4990351612205215
Ni 7.095655913590946 1.3063366618226822 8.515294427725992 0.46791506432241997 0.02481345949925404 -1.3477825615587111
Ni 4.573764306731907 0.14846724659059957 12.815660894595933 0.6544948785306148 -0.32628019025603167 1.9100046613958332
Ni 3.466622468307255 6.109058616755164 10.552502745456355 -0.20703525384906923 -1.863501118517655 -0.8806205733522318
Ni 8.694037395414426 8.17632748028407 8.24571687690615 -0.21504166909331351 1.6769148765515571 -0.7640511268949035
Ni 6.06498477959041 0.19952778862408538 10.566172869319386 -1.6560786565324963 -0.16866282471845792 1.157201339500607
Ni 3.0189187238249566 8.16947340501792 10.724792309125588 -0.12877832981869433 0.863321419952152 -2.71087270000877
Ni 3.1696249065038504 2.8872258757815326 2.043696965979617 1.4192849404740717 -1.2513350826622385 -0.4208191392758817
Ni 1.5278744721167337 3.5709453892729877 5.664370108902131 -0.19453480738921336 -2.694788649962714 0.23526545233935608
Ni 6.613301526085179 5.207641059086284 12.970954392060536 -0.14699048195134684 1.8157608750188985 1.626867839296495
Ni 3.630433939688547 8.531255426542664 5.201679219328392 -0.23382126369366182 -0.811437586598667 2.0073854507398528
Ni 6.574523598226206 6.961802037757246 8.685234685218074 2.9762259728724416 4.188403411498613 -0.7222781567231754
Ni 6.9374649694238455 6.803954261093323 1.4294058032592487 0.89681672349612 -4.4986468600067555 -2.6360476844780796
Ni 8.887778637951161 6.113120978008987 13.545621765400588 -1.1108821447190933 -0.2043116842703191 -1.2724582377940987
Ni 8.487144490188378 6.891526897985076 4.912390869109867 -0.45471553491301037 -0.8511762999491858 -0.5687473025501496
Ni 4.831093560127556 4.47248351930785 11.593484671707742 0.2995288903041164 0.6121529232292942 0.80635682964165
Ni 3.325144709024601 5.089053499745258 5.590347950987167 0.8322668646391925 0.3600701422222831 -0.4992213306348693
Ni 4.892937909078436 3.190799268929594 5.610722825878483 1.2045911416384802 0.10104229735600662 -3.288300303941737
Ni 1.5979548411438564 7.301101950425221 8.932387630924925 0.6168307883209376 -1.0232586918721538 0.515090693566958
Ni 7.89256505434643 1.6823833217227206 11.426788738340289 1.003286876735917 1.2615428764331755 -0.6784930412174252
Ni 0.6680488158328758 0.11491566705703463 10.766343401402125 0.13690841512499646 -0.2694384986766392 0.47233736175983165
Ni 2.815513142414974 3.670074423704153 11.063261199948034 -1.922161351363025 0.2832373522329445 0.9732749037548593
Ni 7.173638409988516 4.989683320582131 3.1149230790177374 0.6444580631199031 0.2517436525000374 0.18169188998827415
P 6.05422601462595 0.8530198099640987 6.381679228596422 0.632277204782995 0.7017669241437011 0.22118043500119974
P 3.122824278908448 8.485929491731184 7.746428564338218 1.7410507877995178 -0.4624792380188293 -1.297464272920133
P 5.57985722766708 3.3298099321083283 3.09933956445456 -2.120839748606967 0.30876403574913924 1.6697106454936341
P 0.9015112331224503 2.207670746315114 10.280916273523319 0.06298637102454958 0.8341604821174796 -0.14390412971653926
P 8.285408372307364 1.1777508709026148 1.0568019481478372 -0.26320948704779185 0.16425852500317517 -1.7814675010536674
P 1.7665428331774735 5.028980637094561 7.129517271357108 -0.24512306185972627 0.7034350558747434 1.1309701737182198
P 6.781128984733376 3.451819891683739 11.916193826816732 0.33343017103725153 -0.8815847370377141 0.5269820456879053
P 7.644427125157488 7.959510541858046 2.826517689510088 2.10938137025838 1.523353683361228 4.283491033933082
Ni 8.464068794299086 3.634320079792089 7.261069142480308 0.10144930298643817 0.6240620159620542 -2.0028083728921313
Ni 3.3392609506417643 6.458737027694892 3.4390447857681803 -0.9648977354347575 0.4791104188176072 1.2218275601214248
Ni 0.8154067966564499 8.364893385881006 5.9786494006695685 0.12186077676325464 1.0767944590067648 2.1480337925232553
Ni 3.8668114257956474 7.881259076336363 1.3962567499321128 -0.6195340461847136 0.013978573667279153 -0.970233545825374
Ni 4.552673417482612 1.0401963509130359 1.5537622865725973 0.13864468108981284 0.14321353140741785 0.987516501275538
Ni 6.831045944249519 5.657144114260915 6.60795367791405 0.766733301712757 -0.21194683221807367 -1.0974193343459682
Ni 7.264290279611478 2.1726954853832345 4.9815131515673094 -1.1254759833728682 -0.3383402067443592 0.5453433218039124
Ni 4.759176781218567 1.0140599718873036 8.317539980361566 -0.3309925081300364 -0.2734465913947678 -0.8949246486797299
Ni 8.303039762132741 7.465590482015484 11.066532420985073 -0.0342172693116572 -0.5202326427792138 -0.40098539237940617
Ni 1.2421921631207788 1.881058756467294 12.732177515870413 -1.1234712942380136 -0.1323102542313528 -0.5384306538444792
Ni 1.6461559631441156 4.10742749430685 13.187740723655198 0.21507715031693928 0.2991967037756783 0.3171872268158279
Ni 0.8352233287452998 2.3852181926208593 1.809983201680959 -0.4732030521942367 -0.11113696258784729 -0.9698879895604974
Ni 1.5304899649787835 0.2629469981706259 8.31566647129017 -2.143293963845425 1.6648049806619005 1.2620925782890586
Ni 1.9089480721984426 6.329103184670528 0.4470962452537011 1.0260169713435814 2.9368878373944516 -1.2456460026972611
Ni 8.047361422671294 9.172960107888427 12.786461977474286 -0.12299463325738173 -0.8107071361905458 1.5829479979850931
Ni 4.14931247928918 6.961356847482854 12.611132135222853 -0.07294862444358403 -0.9105212175664062 1.1823253882617444
Ni 1.8599678672179984 4.671307350810553 1.8776391386721247 -1.0201345444208751 0.49925784029975956 2.3735979584144475
Ni 2.5056885358306658 9.10663603180148 12.431513626661447 -3.74012206224672 0.47188613315502603 3.787102801871632
Ni 9.096452304274775 3.51692896931349 3.954783806454615 0.59436526022857 -0.8776825737698304 -0.6933313917818381
Ni 7.336735721971305 5.273742540036033 10.734145014806762 1.0397520615414866 -1.1245966660917084 -1.5680847077200155
Ni 1.111204199678474 5.3385269997573745 4.468406318378214 0.5141864365851339 2.108537019980214 -1.3080117094186763
Ni 0.8171356188886699 8.745911337178416 1.1350432113923985 0.6859772654096121 2.4578352683979734 -1.29460212088099
Ni 9.054576594089829 1.3430648594599777 6.651854076367741 -0.2588810348757671 -0.5733215521843933 0.39630624173618195
Ni 6.61110339910537 8.066615902038725 6.267231938807237 -0.8665527824052559 -0.961039538030932 0.6274337606477646
P 3.642036711214874 4.958900268067438 0.5558692140038719 0.24432550565909536 0.6103179269030844 -0.9230139507167782
P 9.061829485643457 4.777726375984878 1.5186998425453162 -1.307530913127516 -1.245215342917746 1.3348550548637657
P 3.030642067717266 4.220487274407515 3.6076541098357784 -0.5632081178994752 0.37457322093446455 2.504310272031061
P 5.004940362277422 6.6186067101883435 5.402814330338979 -0.05488508207365386 0.30891984460071314 -0.3723451029348942
P 4.019706460656965 1.1909303579840784 11.1956811921063 -0.7225537789820652 1.4259417836689572 -2.2093893128126014
P 6.1855571455714315 5.125290133121247 8.665388473777599 -0.2524491632074942 -4.823593676163344 1.8018373229592712
P 7.651336849207939 4.2322569922867395 5.272864216723848 0.14883936223462754 1.3884723259685894 0.0769369196673707
P 3.8967226473563237 2.9607564694351893 7.29580604111944 -1.7740339275937573 -0.3790127447630569 2.80704738485983
Ni 2.432751529209531 1.4688125623807997 6.5642573250027905 1.3317797583725517 -0.9688531205380798 -1.0366340847377953
Ni 7.990024625248628 3.217436487014017 0.1693448155000825 0.9713663738782367 0.49314684230601524 0.02295969411996691
Ni 9.05669124789319 6.054773227671555 7.6941938329560235 0.23041583755653863 -0.9325781973664455 -3.1359819820195733
Ni 6.157027868820845 1.5473051726344444 13.435178405641711 1.9919919990029178 1.477805562417784 -0.133266447497035
Ni 8.334583348032853 3.3775473142394294 9.492706892713233 0.03798085011914749 -0.6242149966001508 -0.38056569107247357
Ni 2.1416156393522807 0.168537908127748 3.42568722257696 -1.7585723416230488 -0.34468723200830964 -0.9725228560801831
Ni 6.0985502713200495 0.40388496424557985 3.6688353107737637 1.0651671591804817 0.31372600774010484 0.009313306981125896
Ni 0.1672245968182932 4.08012249081084 11.366979279935274 -0.6694568991570857 -2.3136210636401833 0.6384339684130101
Ni 5.054152437192445 5.904521510064437 2.1577370921636816 -0.052680875333483465 -1.3648711416098815 -1.0150830980398968
Ni 0.3637315839346848 7.058612372842622 2.407755022782189 -0.4432589563366366 -1.8582761226732898 1.6887285813570336
Ni 6.397041075502142 8.82458016858234 1.359931078501246 -0.9257310925376252 3.1893305728440424 -1.3697292410331314
Ni 5.815928645460536 6.843270127200519 10.817696099553181 -1.0925578924886088 0.9705256231444962 2.211335380795379
Ni 8.054771985780436 9.184321734682792 4.9294954504438815 0.2606782359855059 -0.477860605570906 1.3486947889603353
Ni 4.114457790723281 4.352625312725331 9.184061112876325 0.04828454603800071 -0.7469712885944814 -0.980028163318293
Ni 3.02327787859504 2.13608786011192 9.450502854700924 0.18159727339193885 -0.8751454091702734 -0.49675410004129933
Ni 5.296577091193362 3.685869403647667 1.011591948303646 1.302156279079164 -0.18025155799732182 -0.4270715479434968
Ni 3.7508486341140546 2.5430010457031003 13.152093967392778 -0.29118668898700817 -0.03240746979642806 -1.147078135023676
Ni 8.632805183090834 0.943803381709901 3.1175710336706284 1.9186466533415476 -1.3993424359138738 -0.07919409113266361
Ni 5.905244944260323 2.935760890487585 10.081301301803833 -0.2018174570935556 -0.8175187597957404 -0.6291283747413682
Ni 6.152668714050763 3.2695515735099674 7.600990466572956 -0.1760514038730452 0.09772197473352202 0.11578577421376832
Ni 3.9156154096258113 1.4767146897512482 4.0469697275647505 0.8270030451370919 1.8451349573056415 0.43184248696957883
Ni 4.684468288297251 5.849290091647747 7.379601980516773 -1.9717268209959784 1.0691742234573456 0.5098584986337412
Ni 1.183454871293255 5.966384408610084 11.456435628175546 1.5921677168111483 2.368008637252128 0.35893654283847215
Ni 4.642898646425947 7.907590226107142 9.191744355028531 -1.0559448692512652 0.5273643687279885 -1.5746394781193978
P 0.5815233035656799 7.8297283020755515 12.740525760994991 1.0844445193528551 0.7072927390579367 -1.1741721630269908
P 1.584089019056039 7.473650280941447 4.335959429307539 -0.41641638222249566 -0.5742836589873465 -1.230433813733197
P 7.995487480907306 0.041991645152236405 9.85926172497135 1.1518652719996743 -0.6258139656561544 0.4059926157860104
P 4.3094882300962745 8.740689626251699 3.2341088627899772 -0.22785476169758176 -0.22988696163626215 -0.8328723594336752
P 6.045795223804661 8.070121775449559 12.713810634612551 2.241624004476591 -1.8910566595384206 -0.04289577092226161
P 0.9560646638504324 1.5563017260961052 4.840948032347158 -0.3266823107904568 -0.18101131898148182 -0.9315291872766409
P 2.559677131398014 1.106668823758111 0.8054697787401371 -1.1642415341768402 -0.4631307555598992 0.1967197308556741
P 0.14718083219355588 5.724312196909726 9.605389188560405 -0.9616445186047825 -0.7721709277885606 3.075647446795574
