# total energy = -340884.0597811741 ev
CRYSTAL
PRIMVEC
9.11202633499760 0.00000000000000 0.00000000000000

0.00000000000000 9.11202633499760 0.00000000000000

0.00000000000000 0.00000000000000 13.33637159900782

PRIMCOORD
 96 1
Ni 6.761041415919333 1.9429937900623366 11.763466335477222 -1.151168503042966 -0.4245012161131592 0.2214339457729025
Ni 4.861083725496193 0.6616989394069649 6.342125124407071 -1.7812489572849581 1.0103211578748794 -0.302061426917983
Ni 2.734181911081136 1.9770818799946326 4.843943093052557 0.7183348558047112 -0.760902811073909 0.5478902565954822
Ni 3.4981797459844657 4.627241797687449 5.107043736919201 -0.16761664284213065 0.3026882618687045 -0.1230889927434009
Ni 3.30928744331232 2.983623627706798 2.5263885325077444 1.6491107098550952 0.11079500586739628 1.2548546657797228
Ni 5.01036605037211 4.66000864382392 3.076474263259084 1.3719324193320372 -0.1764856631969864 -0.36684936992764566
Ni 5.28970432488814 3.0785071562994197 0.7964175128424145 -0.6763078606406482 -0.4747958506026533 -0.9380605606372554
Ni 6.170891928468095 7.720227963583881 12.948829774529491 -1.2586079621745678 0.7134160783468552 -0.1873837981667289
Ni 2.494754311225212 5.522206784848702 11.423455634654273 -0.10935570231770844 1.5607058987574411 -0.0058338330729576955
Ni 1.1580929671064308 7.995247137691487 12.132897035221427 -0.16334964003566063 -0.33795454127016633 -0.5984348023122532
Ni 0.6724857559966073 0.6200843158515531 4.9060379066458815 -0.0533835578274629 -0.6370944236659802 -0.01244773884504953
Ni 8.53041465918403 2.6919841178503248 1.2938667131733048 0.4825209871610528 0.1396828925463401 0.1710567788719312
Ni 1.4603115393556851 1.4821257300260717 2.744305372165012 -0.9363610614476453 0.44049399199698974 -0.502527769300283
Ni 1.6549535305462157 6.972267294754017 1.2757037113924854 2.201267969257048 -1.2341266892037521 -2.675204300072883
Ni 7.561806276451322 4.5585280082783495 4.028371189981145 0.15094175328961104 -1.1106090935633648 -0.12514716082401028
Ni 7.604341214650723 3.990721209015828 12.68504937350996 0.5594478795260945 0.28720019353543436 0.6919666502238278
Ni 8.484672287769936 9.100809273881135 7.018571878183301 -0.5833059170906149 0.90777347961794 -0.05114746940809257
Ni 7.209754033034004 0.7467797502371799 0.6049938892979911 -0.5260826738020876 -0.10435439244837512 -1.3770342593349767
Ni 1.976781183130755 7.080208356859866 9.315522325134179 0.31808274204690384 -2.0297136819234076 0.8170955562153929
Ni 9.091423886917685 5.270113468605211 1.4500769115524361 -0.27135988406906814 -1.4142463496089 -0.3376426664567024
Ni 6.610064254174289 2.3737466035799595 7.229206386519026 0.541453499831203 -0.9966310619822965 0.19472995411915495
Ni 2.9618185490625892 4.7637855099663735 0.4722544479484264 0.5569040300583183 0.5641702247024284 1.0721446189395794
Ni 5.81752755328113 5.921832916941914 5.3667027684983735 -0.07901462813200585 0.13717169608871216 -2.2407048350964316
Ni 5.18576344227448 3.0313888689324315 10.014161418667188 0.5777168530386115 -0.513995146509934 0.6086353969943389
P 0.5877147540564479 5.977562069047212 12.589281067175445 -0.6257751419984191 -0.5743451083529012 0.40450111884214857
P 4.101833256231657 6.631222378959851 12.772482909499363 -0.4947684370698382 -0.5898354906790165 -0.174667379041325
P 2.6503968303734475 8.938578759806129 1.6754346317867452 0.004338993694986076 0.49014945024058815 -0.174355504227861
P 6.531819285382889 8.516473259131528 6.2801906824744815 1.3511581628991634 -1.4236506736419352 -1.3258171130312133
P 4.704329539154229 1.4892877826020634 12.465199873100318 0.012368548867681925 0.8236721809916461 0.3255265999194587
P 4.049931155121163 6.719536136678059 8.205322167619876 0.29177187206651684 -0.40956413518735274 1.3357212595188028
P 4.765234322128692 1.8718106415589695 4.107762451665751 0.3839832013944548 -0.3477388743504398 -1.4560758840501762
P 0.5080054826582268 6.0812295908755285 3.66379446658202 0.4303286214282137 -0.36963438887195055 -0.1252461482957198
Ni 0.9964182866282892 8.172785855745712 2.8835498890031266 0.11714717333766922 0.7006780619548966 2.3994953950064994
Ni 2.182776758939206 7.138242851588225 4.700711153558903 -1.1830828352530594 -0.4195009346850904 -0.11623443171541271
Ni 6.251852281060571 6.022010532744015 9.404355468344539 0.44237552529041874 0.12401973208778642 0.5401460938736892
Ni 8.746132766924521 2.512176505277752 10.52365033918721 1.2008126484326545 1.2436222873990133 -0.5772651102131736
Ni 2.5752955106134947 5.390410438208571 7.195718779111867 -0.46292686707920916 1.1109307385688418 -0.12422516323037315
Ni 0.8477036409832683 0.019734826296542805 9.244238944342854 -0.33705311250181946 1.2335307074909658 -1.011642447789464
Ni 1.80780776968395 1.4127103146012576 11.850793260760343 -1.0603640813648836 -0.16227620446582375 -1.684344593356725
Ni 4.39640683851748 6.994810447518653 1.54304509224242 -0.7756041218398255 1.4735637564222943 1.2160186667491315
Ni 5.813727838364859 8.34924935471092 8.249692267891547 -0.5515497077249405 -0.48515611079105475 0.6951900422571318
Ni 6.712055163185833 1.3868594963339695 5.003926581472043 0.9277339819002668 0.8002548305089702 0.8361811120919341
Ni 1.1125601722944332 7.5041271507439085 7.138146264110737 -0.2781666225782564 -0.19303636846681593 -0.7891404657633636
Ni 5.280938555704801 5.0584411004878 7.474955910137319 -0.17770745141922942 -0.7715489779338454 -0.5226541077365128
Ni 8.113548573561843 7.663851857619935 8.990007946757979 0.42591995083755685 -0.5652590868912329 0.41715248905757185
Ni 4.795395128778225 0.29063080855855655 10.256963201816864 0.2470935553225357 0.3539264912183904 0.9697761465729815
Ni 8.457737138387454 7.801097195914574 5.017610111183704 -0.3600426314184573 -0.8467686577997934 -0.23049219932042886
Ni 7.222009708243557 6.442885909884571 7.014837769855513 1.5793304558371637 0.7910572231701022 1.3215395687017821
Ni 2.6527021729965083 5.280920331652445 3.0032445536761143 -1.4154357419313106 0.5924078793918829 -1.0925031279912731
Ni 3.7721054769506996 4.634823003467634 9.19602812503711 -1.0657353729791261 1.8732625687797932 2.2567906849147006
Ni 1.0444204405345536 3.6768848033894876 4.182352586757111 -0.20901448906262712 0.22838775138291634 -1.0711989671968585
Ni 0.5410648248350145 0.4255343561254215 0.6146489922363128 2.077015809443481 -0.3169663690542735 1.5424482380988338
Ni 1.2461424760654727 3.648755978577673 8.183197256856817 -1.7757989899139803 0.10113537129044518 0.8111799620619062
Ni 5.379120637773897 3.446350541083396 5.470526105974336 -0.1394898026989275 -0.3182323802508906 -0.3367738906985039
Ni 3.911182332507137 7.419786236439356 6.137611164055179 1.6317822458789766 -0.20012027189679082 0.2073340160364107
Ni 8.59369768099098 7.5240369279430706 0.6144102571504463 -1.6602453863156763 -0.7019263325397008 -0.37069085516092287
P 0.11982405544471675 5.856536137349603 8.15888545981101 0.4028111327342353 -0.07587839649586933 0.3927365221070526
P 8.862575349454543 1.6634914990751013 8.303278271439755 -0.577894002046424 1.8686482099362334 0.3765113184974419
P 1.9175439009468853 3.67571846403869 10.227810185262632 1.2820175993477598 -0.6485844265834506 1.408423829389852
P 4.26763568456848 6.489448363654694 4.017621732698833 -0.6582402045056599 1.1400502816426172 -0.664942813336816
P 6.842940307208153 4.269941027191542 10.669284208781413 1.3933954743018198 -0.08115327174156346 -0.6034232566657801
P 6.770845956086976 8.004249819555456 10.70984001489493 -2.3701814765337312 -0.04987940132894635 -1.0038224375244131
P 2.3556410075640626 8.962862309570781 5.999473758397705 1.1822371994233123 0.08216140129110366 -0.7104086589790991
P 6.910205284454935 4.172205434405172 1.7899673336298358 0.8976754719519895 -0.389062158579259 1.0172538804389706
Ni 2.7739194572438572 2.1060443864933722 0.46749979268869046 0.21577391927364775 -1.1121784949330136 0.594589203313918
Ni 1.6441375554728035 1.47544661483752 7.207881511654404 0.09591603187303481 0.12229812141098939 -0.15272352778038215
Ni 6.9807232550473 1.341499830019356 9.39180638589205 0.14091187985743475 -0.7004996273955032 0.050764375037060966
Ni 2.9490343763347058 1.8843032294491533 9.509112788503757 -0.5444866302305719 -0.7338177819316588 0.35521384257124633
Ni 6.55389772481244 1.851208350370271 2.518880222936984 -0.18396243119000574 1.5322538140643351 1.8862378979935386
Ni 4.42739683954922 6.969961952130957 10.569047364809155 -0.35792532796513843 0.7446320989383434 -0.049402461692527815
Ni 7.53578232968665 6.2782589329247225 11.722870436448524 0.9011163793127384 -0.9126755449052476 -0.08747484308421709
Ni 7.758999634971723 4.133843804195345 8.449724933769046 0.49550094436048864 0.10964546564398536 1.179703377257865
Ni 3.3752949609465226 8.813160831490672 12.350520467635759 1.5925173868410831 -0.6504219940128217 1.7485329551091757
Ni 0.3420982660203548 5.068172744446017 10.325819138834344 -1.408722591577193 0.5534680077935759 -0.29930469010845223
Ni 8.788166543684126 2.8428337112288764 6.052538554048525 0.7934334367117625 -0.1575137500801739 1.2256657029205924
Ni 3.458004822565194 3.443343572444621 11.875505075755367 0.5251861301297471 -2.814508983344198 -0.8072317760474356
Ni 1.2211208521803925 3.6773221806460366 12.505022161106496 -2.2155190798594226 0.25963359677107545 0.4572742967791222
Ni 3.189546307305824 8.753313043552868 8.069385316284412 0.6054852814011313 0.8063781697978887 0.5905697977418797
Ni 6.218529601327235 8.527954412115943 4.100814531704945 -0.3791184171029858 -2.095743210649655 -0.6368416842252258
Ni 3.94379427419858 8.892435459240197 3.758095736701861 -1.7406170426962086 -0.3429476236093835 0.4562180876004659
Ni 3.7523141560918525 3.0755639718438914 7.606532656946557 0.1343018307400848 -0.4333334696928085 -2.0506681726878875
Ni 5.103108252812877 4.8932947380358 11.820185964828081 0.679206779454998 0.5618945412943742 -0.9366451683469675
Ni 8.126615219101247 -0.019120675732138433 2.7233404223344246 -0.10153620627328966 1.5209520158982708 0.6812852592505815
Ni 4.67025967327429 0.6966918535387469 1.6072065133729383 -0.07191452675211485 -0.36735896257421247 -0.8103744354414752
Ni 5.820215601003671 5.456855333099323 0.5767019592175886 0.6457533848925588 0.585661818917301 0.3559566342745418
Ni 8.423995305449926 0.09129794629153691 10.982568425621361 0.5313750325492784 0.3005280209925921 1.2652023275626338
Ni 0.050339388620948715 5.483526233722641 5.728464787011082 0.46047223489112954 -0.38815738737680244 0.9216906039196643
Ni 7.715498821997443 6.633764634263543 2.885203721754453 -1.1492486603124337 0.30965183767073123 -0.3094651755812219
P 8.494768412775278 2.078635411749628 4.072621011507266 -0.0489193514085222 0.3441807246855363 -2.559662009328488
P 1.3710956910458456 3.5590298568018595 1.7562136550582763 1.2605062076385454 -0.05999900626145151 -0.3227966025828054
P 5.046422337958877 1.539422150634005 8.418010526656145 -1.1801633476134192 -1.1868099063956594 0.2037792088056168
P 8.83352620999874 1.6670816373892752 12.598416784621614 -0.8888671296317402 1.7120595427734902 -1.2421238484766157
P 6.456499276994662 8.13819660437362 1.7594274666912944 -0.40142710790251507 -0.28238014643897175 -0.19028554519455615
P 2.025084033900897 3.498316426377137 6.18941029926986 -0.7325517707350416 -0.01645274623938457 -0.161244934987832
P 7.173752417604305 4.2547512795526385 6.3728253630063465 -0.17251073770963837 1.6003687645647018 -1.3953983636644613
P 2.5154659467280482 8.870757948962483 10.431055751570529 1.02726164238396 0.14084297429271228 -0.005281560113913484
