# total energy = -340888.3367624066 ev
CRYSTAL
PRIMVEC
9.09729230875386 0.00000000000000 0.00000000000000

0.00000000000000 9.09729230875386 0.00000000000000

0.00000000000000 0.00000000000000 13.31480686225963

PRIMCOORD
 96 1
Ni 6.511787242506242 2.346209878005187 11.440667458819606 0.7891990869154408 -0.5330858445927981 -0.018511428540626183
Ni 4.828196843544505 0.3696266249478559 5.955127565763966 -0.376585623378803 -0.14716557407663042 -0.6338255231067212
Ni 2.9385891632227725 1.6678338887031698 4.517367838171228 -0.25104097000605796 -0.48697156673323877 0.15342698160530996
Ni 3.4470277324150698 4.344411936477332 4.653617984904807 -0.043709267962492464 0.5530520033020798 -0.0520488981764394
Ni 3.828004139232781 2.589016609414631 2.134310287445891 -1.3570701575082242 0.5860603399073004 0.8638173857519639
Ni 5.179852677288681 4.622161367599915 2.4499381145058843 -0.010220649286743688 -0.014069076498556415 0.11879010825773088
Ni 5.4353592287448675 4.73369417116229 11.295257248472083 0.3395195717644411 1.0006119010069154 0.18512945491491342
Ni 5.512613434931792 7.996356177884449 12.280766013287067 2.199455084418025 0.13851201216669046 1.25127054797289
Ni 1.9293537503677365 6.6211912796710966 0.4474503216325779 1.2373128002412175 0.12766118549511565 -0.1339454758419306
Ni 2.6622225205293475 2.1895181154800363 13.026488347735242 1.5832549877025508 -1.0471157009954095 0.7691496244637334
Ni 7.823343872978311 8.816313327206142 7.100600389143366 -0.9563133361998563 0.9828082971665912 -0.5937998746434031
Ni 8.977198941480253 2.269237687879473 1.3593083177395173 0.15628501987939536 0.9347582357368999 -0.9946880793233128
Ni 7.085380619130327 0.8733364216041238 4.803702384034579 -0.15729932007652267 -0.5736920481499346 -0.35359610446216516
Ni 1.1853498944344822 7.4607348993084335 2.8474379333228077 -0.2704196316429859 1.3711230360568645 -1.6234534142983075
Ni 7.923122974892841 3.9063682150799495 3.5436555322778855 -0.7393783067385717 0.6689023122051964 -0.060016232652632125
Ni 7.577407673018667 4.271542625177608 12.530551277617612 0.8578357142472323 0.16390088455344032 -0.43646430201230635
Ni 8.189810098582157 7.2208665933109515 8.882893680340887 0.9599473334080177 0.3706947118156648 0.46204060781951395
Ni 6.767703172115798 1.085561695227656 13.675771196271151 1.297199963515153 -0.42554585532758965 -1.3329709504671754
Ni 1.9289625667989616 6.715266379315347 8.989225561897012 0.07486795295348396 -0.9825714985654368 -0.31911761106932135
Ni 0.23357116026943403 4.759075616671183 1.1482584142807697 -1.044595505676717 0.6314467384618996 1.1024556112182948
Ni 6.480410681373564 2.2694651201869003 7.108295788697478 1.250473763103208 -0.9493646727961649 -1.0641109500018253
Ni 3.5057507541928126 4.727025855908519 0.5222109600008683 0.2273909346872858 -0.7766557030327915 0.04222805543127566
Ni 6.09290241868654 5.457911416349364 4.560201529222866 -0.17102823962684094 0.5073503874999068 1.1411874805708542
Ni 5.594298022467401 3.0238762785080304 9.203646921881063 0.08947001913737494 0.3718591644374112 0.15126365540540399
P 0.4099076157809296 5.871292378329325 12.358750732045447 -1.395072090673294 -0.302001520214325 0.06809592433697305
P 4.360696089689131 6.1758606271437415 12.652075637309887 -0.10216561232717243 0.766549467836725 -1.465680497019476
P 2.711702693333243 8.50913415550246 1.1578624257588122 -1.16962362442436 1.248941128508765 0.5110286076824425
P 6.454465203742251 7.833605618689433 5.588291080363629 -0.1031508590585772 0.7879068504665786 -0.23598073323882585
P 4.873928931921997 1.3608457601377264 12.351706698619807 -1.198198093627943 -1.4896454924755056 0.3294974116417486
P 3.901619428500867 6.235984631935237 8.130740469967895 1.0408879749181428 0.8702358876837981 0.37381628816378204
P 4.776969990619567 1.1749516893389034 3.5841193786861307 1.379027635615922 -0.41914046602187816 -0.38016845563405494
P 0.3725923422367086 5.634926529866224 3.5775684185029935 -0.7475652134247384 0.032377644999757135 0.05631024455595463
Ni 0.6263176438611251 9.413514177341188 4.68895550710364 0.06314706497212995 -0.4729824515429984 -0.3271101423564947
Ni 2.096998652818588 6.644489445243954 4.840598272403904 0.09508633688288785 -1.0829820758747155 0.242289449065673
Ni 6.228370198282569 5.987319244286464 8.745791117319069 -0.6626442471106264 -0.8552183312290432 3.2254941672487933
Ni 8.698476100081882 2.2579752400156705 10.273851477981994 0.43513992677392793 1.0482151047071755 -0.5973071164657132
Ni 2.5275734972400565 5.068638278956704 6.883408903654851 -0.7896564861678337 0.17401946104468094 -0.16122822281728363
Ni 0.7549842877358471 9.083227883202886 8.956191474107804 -0.08500375583590522 0.24942477455887369 0.40771474068343977
Ni 1.494466789397446 1.2595747022864736 11.20369118204337 0.13820682222144584 -1.0349464126227272 0.13968957741455942
Ni 4.386932680673951 7.234276002156869 1.7775799840583955 -0.12743132887249667 -1.5378968712827255 -3.210685127260419
Ni 5.615048946197073 8.01764384185965 7.9157860086552345 -0.4640154721576977 1.137076543726274 0.053685405338597864
Ni 5.274055139025091 2.8852517384849095 4.734492003696745 0.4465494541624503 0.05732865851813998 0.10357380552860872
Ni 0.6796341448267051 7.809707031824968 6.78429390407801 1.2810585778686001 -1.4042694409018461 -0.0665090394658274
Ni 5.176568554769429 4.648752752984322 7.310148329643863 0.8328070534133787 0.14146672391964024 -1.9773431387414913
Ni 0.7914762563271811 7.520222093639133 11.000893432427315 -1.9516873858466 0.07643298344775869 0.8418565652101567
Ni 4.59900875870381 0.3051504755214306 10.243427403352822 -0.24415401307823761 0.6358561803835049 -0.5506637055755613
Ni 8.481405608580918 7.455449372483822 4.5402429796522705 -0.8900097278766156 -0.803839462536435 0.29767486781451313
Ni 7.298302745343817 6.294662167251494 6.774813615775207 0.888966888434398 0.3002344010115732 -1.629085415773104
Ni 2.418296822167361 5.343958733035963 2.618329904654328 0.9223174388703856 0.7009842803414056 -0.5081021780642668
Ni 2.3666332992121633 5.688118397927333 11.296854732999453 0.6066692744069035 -1.3006197878299794 0.44281107016594057
Ni 1.2335655436090813 3.5481077471280833 3.498758575333266 0.6286239243011238 -1.0359008061161967 0.02462139809310598
Ni 1.6259317603827539 0.9458181882519922 2.5067124962735896 1.0012245948902498 0.2298159991890107 -1.0087288736870952
Ni 1.008980688670717 3.309804175405701 7.892418703660917 -0.19496032496240617 0.015443331138263726 0.3549688164399758
Ni 3.8728901794266433 2.8985246879463697 6.951553991064694 -1.4917723090105213 -1.3351733574351328 -1.1088651142890644
Ni 4.339053631314344 6.732160051111051 5.947031885348783 0.29326439745164334 0.709492832033049 0.02961936552832963
Ni 0.7271938792266838 -0.0216724794393675 0.07034936133342941 0.8355982430052705 0.4838641314525087 0.0004877382696959342
P 0.46107715576439534 5.687536171220319 7.678688737891446 -0.7596691957771239 -0.27223045959947956 -0.15821437569162428
P 8.620093829650118 1.4992883543149058 8.001839115951908 0.040103295778789 1.1284859738437856 0.3453040396567021
P 1.9594566905788213 3.3615859631607607 10.55593849807183 0.20139656750605314 0.11807302758604826 -1.3265727602503152
P 4.302682656710561 6.415073928095833 3.6517859485211472 -1.0908396242459213 -2.003021517344202 1.5425670230648854
P 7.259293555973877 4.035904560098274 10.148105974663869 0.06333861215764576 0.923379561586313 -0.12094237871404333
P 6.447342023873626 7.95856602568232 10.22389460706173 -0.17920460479004618 0.8426926879582066 -0.9610732194823447
P 2.5370164866444407 8.534888589995534 5.687020354747074 0.4681917150225743 0.3499988740292101 0.14602940358965819
P 7.085034922023039 4.0468758946085694 1.2818912700204756 -0.37732250154482755 -0.891680173600503 1.7221758052718854
Ni 5.203260010369104 3.0045172404998137 0.3226445686087427 1.0152512481866451 1.008446823670302 0.014580983137968438
Ni 1.6275146892424484 1.114554765778495 6.65276980069277 0.27460153093481743 0.36392448297136676 1.8652548679839682
Ni 6.819748781347474 0.9854187016212431 9.385514531109193 0.48704407184238707 -1.3019354213176093 -1.0439465592388086
Ni 2.6498138138361114 1.7425590476315016 9.03738480785937 0.7722272349477926 0.003958213316799635 0.11358182458391405
Ni 6.6531136783416 2.0068626807389793 2.5834317816734447 -0.17755241389860388 0.5271921048161824 -0.1872858391362839
Ni 4.35087101400827 6.916862376618955 10.32214445414112 -0.3494208900385531 -0.24829708871233366 -0.378529120258419
Ni 8.760119352686992 7.046353235175793 0.8450829609170384 -1.599413085519652 0.6149330570775926 -0.39323814433381954
Ni 7.673829874075568 4.2636552727560275 7.808295132060459 1.1786301987983443 -0.7569469117499544 0.9715671770351333
Ni 3.3584746891951545 8.697038727898942 12.263936022537441 -1.6061046386072144 0.4585197391504491 1.0059639093474482
Ni 0.19336567696242624 4.959661814529813 9.908453274493828 0.2582935378034132 -0.3114135575568443 0.12730765881043882
Ni 8.730880655244132 2.3053357437143425 5.911401430337984 -0.556557445352177 0.12438097208194708 -0.19096380220850337
Ni 4.083283258381541 3.0029252143478224 11.0874796410526 -1.5158308926216215 -1.4598631190067501 0.21244922577578895
Ni 0.8653462697795861 3.623970067593552 12.438133704629891 -0.24686318447928451 -0.1918192082302632 -0.7330837319791117
Ni 3.1283495832478603 8.526637345882069 7.890234443780385 0.6859538683708444 0.28632653268122943 -0.04974956061930142
Ni 5.789680569132093 8.194822706637856 3.3804164484865162 1.2447324897440564 0.7926289385325962 1.6160794904317395
Ni 3.385411771686851 8.514656211926797 3.5642936495830733 -0.6255267734330389 0.02318929363226974 0.45369686384050895
Ni 3.6418826361265304 4.198282130309108 9.067489567528915 -1.8483521786913586 1.0889025551242086 0.732992457816886
Ni 7.370999208089897 6.259710370246058 11.069144958157036 1.0281561291737713 -0.18163198328461624 0.9982179468534421
Ni 8.455041655503937 9.03932435057711 2.299294231899842 -1.164100894833918 -0.24646697748213037 0.33292186394226536
Ni 4.842288549312704 0.4872937327061614 1.447505656830616 -1.626164385471567 -0.10454671096483929 -0.4591936252890221
Ni 6.275539658843003 5.9140769440025585 0.5673935719236164 -0.8023999018764311 1.104341258276782 -1.8737454219534826
Ni 8.027432528371323 9.074039617982821 11.536308202468188 -0.3791451565758632 -0.623389672485378 -0.6403656382180842
Ni 0.21626902004959056 4.5719534114122515 5.5748298169516195 0.10829435093272961 1.5183253769087013 0.7757977259078703
Ni 7.164272337930728 6.328131105612504 2.662734698085674 1.389151354313485 -0.14643563788914135 0.0025268801869117773
P 8.90467532728782 1.9077658757467322 3.4551661701040506 -1.6970936654922772 -1.6036965433863541 1.3642023976776312
P 1.9001150529248758 3.440304833407517 1.2438400255294195 0.47522831015438155 -0.6122411120677262 1.0380245373274188
P 4.862193424858745 1.3191164803709552 7.978951238261648 -1.599093240286388 -2.4493992218154785 1.8923540381936057
P 8.597687198722374 1.7554044243549984 12.572453405938028 0.1562492815454535 0.10815962512707823 -0.9003807866982945
P 6.582973554731003 8.187772305107607 1.2754449286987546 0.9785893739892373 -1.3165038060500875 -0.34903188213025044
P 1.9109954145122006 3.0320365496985238 5.739986609959216 -0.19814232223481357 1.892494677536528 0.720448045492972
P 6.914306037483471 3.8613912019631162 5.745885294284651 1.119523365333859 0.5892256250091594 -0.21714071771418733
P 2.4706517393371383 8.428968815780467 10.261162574686008 1.4978236574109236 1.790386400809852 -0.9105744394018448
