# total energy = -340864.27499159565 ev
CRYSTAL
PRIMVEC
9.36675155518898 0.00000000000000 0.00000000000000

0.00000000000000 9.36675155518898 0.00000000000000

0.00000000000000 0.00000000000000 13.70918770677476

PRIMCOORD
 96 1
Ni 0.8648087443426092 5.690563773880768 4.323960357625156 -0.8089454163044326 -0.0932207444290588 0.6969324788695352
Ni 2.2265892202774937 8.986798542547946 10.554141745767149 -0.3811958684573048 1.3269388853404824 -0.22890839977307675
Ni 6.76302871445639 4.698793397032222 11.991398568197265 0.19576302336935963 -0.9498387842191061 0.901495102808396
Ni 0.1339885694424491 5.024690780172808 6.9731511763457386 0.6277410074755383 -1.9515107510594196 -1.1811635067431594
Ni 5.540396014661677 5.72635413116471 4.979025993512072 -0.13230819734882374 -0.23483479255984072 0.8807524709444058
Ni 8.576188259308967 5.363739082346802 2.470998675843333 0.9462276698290799 0.410868455821073 -2.2532610744948873
Ni 1.8710554355544977 3.556939561727619 11.701435790312923 -2.6010883947940755 0.9042297281307395 -0.012091383946895304
Ni 2.89314598684118 4.846544534377654 6.31730341671289 0.5324361268239411 -0.04919420233646366 -1.47764975356621
Ni 5.808004103539512 0.6218820455310354 4.078497142521384 0.5957683112236837 -0.7959811428342807 1.1983711288706973
Ni 9.412648530393305 7.068441012179552 0.1270421865683923 0.37477248142946423 0.48862041519057137 0.007421232164735607
Ni 3.896203299184924 7.667697669587226 10.560296638143825 2.785186837341313 -0.5133546847124577 1.438324473604026
Ni 5.466098942173788 4.0799976961034 9.144027895683909 0.07453165265998778 0.031898134260177326 0.09687582468314283
Ni 7.490890869249178 1.3838813259771405 8.778417359752837 0.459331436418467 -0.361807436628364 0.29470421522196344
Ni 8.855907557809449 3.0853891935660207 1.830477731605332 0.17970494146523242 -1.043943731025331 0.0965428668237563
Ni 2.791291931592402 7.38359473140894 8.442912499651733 -1.8859566193076938 0.6353653567900154 -1.7384213205964705
Ni 2.7369554064408335 4.668510689599879 0.04724308427977382 -0.08074472344923513 0.14330017758395322 -0.5498201266283435
Ni 2.5867782804702935 0.36982463740766225 12.722413571527548 -0.6309060354670812 -0.5942104798182605 0.1662290184659847
Ni 9.26871902763878 7.765533388464685 5.189243059591049 -0.3553277424412913 0.5320540608941741 0.2562024596023394
Ni 6.1269045233482196 4.2468663731548055 0.9267435782690363 0.31590604611055917 -0.022123571371916735 0.12840346297777885
Ni 5.914756969795749 2.4285644817571144 10.849327424259059 0.182519270985576 1.5481278049821146 -0.8646838475173172
Ni 1.8723293137514663 8.672497197700352 1.0133813457900562 -0.00960255608677056 -1.120205221892232 1.2224644223744754
Ni 5.9595768754758485 6.310801954532629 10.459493532407546 0.432754457260887 0.6124293168191324 -0.5231621577211829
Ni 5.507003545748499 6.405902581987184 2.805585594302503 -0.3321011678131829 0.11900813780580792 -0.6899905003340633
Ni 8.91221110076516 0.33049926812713354 0.3613552207481124 -0.0702322539536855 -0.16593102760959166 0.14696862757447593
P 7.618775126772772 0.24569832056512467 5.5836694696776625 -1.0902680680131673 1.1660716454070434 -1.0513163693403185
P 7.620507975790708 5.784774559947736 0.4633572706697733 -0.6995007538173438 -0.37342933713800847 0.0303601003490961
P 0.5228408257421812 8.873329715503282 9.320561186879667 -1.6868473051739208 -0.38740919635686827 0.26204606286730997
P 0.3465342099314726 7.703506760374064 3.05044465393786 0.5665438671409275 -0.7124925380913214 -0.723023005309
P 1.6022203022369357 3.7755501737794144 1.8859045466254825 -0.23317848790334034 -0.09157395285425518 -0.1974571232423309
P 1.076136707143354 5.685636862618964 12.389788050821652 0.6721015358687843 0.6909988869939196 -1.892618604708902
P 3.680271578047341 1.379853622854373 10.5119304803654 -0.3061631077911824 -0.432238693966733 1.989093337298884
P 4.5761638870711225 3.3183403020851587 7.294604035924108 -0.20191798722716195 0.40852283840703185 -0.6364943281881361
Ni 3.4945663638334117 2.44283004421287 12.748365093090198 0.046040744309146515 0.04541056692431534 1.40747226410986
Ni 0.24836878140303403 0.6547256228093429 3.2000944318018614 0.19556042044025032 -1.1311781759639679 -2.1676888477500214
Ni 1.9123066089327962 3.538187325328129 4.284052376404543 -0.06673298255117541 -0.5519250887864882 -0.23734573190715252
Ni 4.638434050699399 8.417178286722683 13.420965287688327 -0.14608673919015489 -0.09192542265640297 -0.40315488922689924
Ni 2.1000537749624546 6.170900154900869 10.406342837989332 -1.1120764221375106 -0.8208740494212184 1.4940626477065948
Ni 0.3729343988884967 1.249693244728843 5.352793096604322 0.34182199464537255 1.1344604462596657 1.1077387139941053
Ni 2.6290316962535596 7.042551311176458 13.13725387972058 0.1263198409758728 0.05756134335423635 -0.9174395419527942
Ni 4.777342974677638 6.218089848697387 0.6404319600992422 -0.6671526765039413 0.5370839100085976 0.15101400128844314
Ni 7.622119057039814 3.6444812207633994 8.207676840454356 0.8198304386480525 0.5800403589654656 1.2960892469494776
Ni 2.6109444992068984 2.4162097365968114 6.790270037693471 -0.3987289922450617 0.19944612864790165 -0.7141020486702864
Ni 5.701363638300655 2.441462498501419 2.6541121099315186 -0.5007632212006923 -0.4749107789139627 -1.2044538447296675
Ni 0.08054094900332359 8.813532374257356 11.595244929143584 0.015418905658231508 -0.511771656496054 0.18227861572967963
Ni 5.083888649326043 5.586705233822055 7.263661909189805 0.014929881836954931 -0.3356410626456413 1.1068318859091195
Ni 8.985646432119806 9.149751917493964 7.043739015260103 -0.936249989791078 -0.9705528768380058 1.8633352823637521
Ni 9.44936619607063 4.531540683171437 0.06886435664787699 -0.4685542405683157 -1.0290935533863759 0.44477436453989855
Ni 4.873558245554541 8.247555784745478 8.38540251910948 2.438151416815801 -0.7156452247876901 0.8295201551319907
Ni 4.282900265976402 7.390704095758196 6.0508792852181195 -0.17694897598665008 -0.1751440615674274 -0.4983052465785031
Ni 1.5642100248597477 0.5343656767241654 7.782473158458929 1.6918668698756993 0.7101032119235384 0.25827785407412934
Ni 5.811666503355796 0.20730025967797733 10.07404609025927 0.06096368416756598 -0.9531130840950035 0.18377371221796737
Ni 3.4035777402646583 0.6546666122752186 2.710224571157685 -0.13603321160889476 -0.11939586016252987 0.3721797810016236
Ni 0.25600081048310613 4.3607286037602995 9.78670131940473 -0.14270471009179939 -1.310654546358162 0.04147240821217374
Ni 1.7497372707961594 5.996931480251655 1.9832803580068297 -0.7624601282586998 0.4516268686853577 -0.0802659840406037
Ni 4.020668692429889 3.8012712732564373 10.996838772767415 0.6909628915496616 2.0511577107297962 0.17482961565080213
Ni 3.1289914215578416 6.289661196513822 4.371682082903938 -0.0760372906712368 0.9193434438437263 -1.2673065183898304
P 2.406636916616652 1.4045256461691864 4.580897843253092 0.5066358779313855 0.613964522516736 -0.7084931871239412
P 1.4415336811414066 6.643143662669641 6.436463481937541 1.054840580443493 0.638383831901365 -0.1816947182017516
P 8.943018346278608 3.8043154674771333 4.972047763683091 -0.05790715672942931 0.859546526290752 -0.36394556601728933
P 6.379535176660228 8.190015830598592 11.650191229814437 -0.3665590923807365 0.39257094306346585 0.483532973365335
P 4.655715707121506 5.557406035291783 12.351155821148296 -0.17244697435123849 -0.5496640606664533 -0.7638284693611361
P 0.4684846304125709 2.5901877779974734 8.051049769436517 0.5641748526881187 0.2140834189451023 0.0077521331415931006
P 0.4097738323346474 1.994930723458221 12.766612461586627 -0.12211634441748645 -0.08011197496124267 -0.0582956504170996
P 4.038343752412826 4.38200986305083 4.186840483173541 0.898074507162621 -1.2696079128294973 -0.4228086589020847
Ni 7.64084319318496 7.99651747917968 2.39095041796619 0.8477384779122303 0.04510023477274813 0.4525604362432206
Ni 0.6364370406065437 1.7204661725202326 10.493847966694464 -0.6765600858607703 -0.012098068815114648 -0.4188530166884464
Ni 7.434980729854296 2.5320389850064475 -0.19614726872849053 -0.16186611351159866 0.5891335795159854 1.4152210548173434
Ni 1.495486169483595 1.6025387717861774 1.1062077259929655 0.4613772632039022 1.2706913757016631 -0.43049625735432956
Ni 1.9506540893621227 8.77952169974859 5.007801590636385 1.378486161290155 -1.043591747002551 0.5149716514905904
Ni 7.681916398285741 1.0626111180520137 11.919850637259449 0.44214618288843205 -1.1785132136045058 -2.1910277795862783
Ni 7.840345632282229 6.137751221525347 4.401842085892308 -0.4451541164768205 1.0298366021999878 0.8418989884123178
Ni 7.309840930505052 5.125036788438409 6.588484921268251 -1.247801358477367 0.05432535291544192 -1.2559460990716884
Ni 2.736814905169109 2.9518193179133103 9.28353254505426 -1.6305190628958373 -0.1322935420608044 -0.1805050687690246
Ni 5.253764053592351 0.9662178788975928 12.27447959379254 -0.3785746287843738 -1.6464406192221002 1.513312497075142
Ni 3.8522264011351712 3.847430624393643 1.9705724863169254 -0.12652810033193693 -0.21810333873777277 1.0184520145121296
Ni 7.079081641824816 7.866001164499115 0.06319653534651268 -0.3387394990653069 0.15213294538423477 -0.8550653505909468
Ni 4.4386318755557825 1.5275017259338732 8.55436841181016 -0.19396787914214983 -0.2332322239594112 -0.20834137425500246
Ni 7.597915371297416 8.221516215719214 8.922090213517679 0.16397467521416922 -0.22697518730610586 0.40450523260720656
Ni 5.616229234387086 2.948690822929579 5.415471650595744 -0.27787351681786987 0.6529527308544755 -0.6063846532869492
Ni 5.767474170022733 0.9276886834901694 6.896858985799363 2.379706642415347 0.16790254951366568 -1.5195633630808605
Ni 6.717571869677807 4.441095331186685 3.4662169538999965 -0.5286558338459024 -1.74048745909688 -0.6874952447160353
Ni 0.31581969525736303 6.733570281151497 8.607382351657229 1.861715230261826 1.8886454789937668 0.2974103012992168
Ni 8.67482015205953 6.1608121635910535 10.908811916006613 -0.22510702374911556 0.7221022932669434 0.4738890225176677
Ni 6.994705944778559 7.450520170507019 6.3074598976158756 -0.49065518623241305 1.2178919725124446 0.9589397180791099
Ni 5.44760897481485 8.751824215715978 1.917778665128891 -0.41856299625185334 0.4357145683304754 -0.13703928427590592
Ni 7.803215829541182 2.2898616263107376 3.7820628760614152 -0.07917352230737332 -0.5429881913081746 1.522791897320487
Ni 1.9863976128888228 5.009263740537463 8.346784339563298 1.040696170622311 -0.19404192691319483 0.757206078948612
Ni 7.823419912415158 2.3625382507980714 6.2934903245058855 0.1559546331231701 0.04693625954022239 0.21560448357531897
P 6.22385040083809 7.827072945479993 4.279953485970768 -0.3469788562559637 -0.4258435890736666 -0.42708928855530964
P 5.009956880144637 1.9332881321769806 0.5220474618945105 0.4616130333637921 0.5375775618155646 0.8319105097410382
P 7.811112001012096 3.052689864260017 10.34685834624178 1.114760396727577 0.3013867694484616 0.41888052749227206
P 7.803272030049872 6.073692008370446 8.552449164438404 -2.35933836317164 -1.5685863299467824 0.12895547882650693
P 4.059418943171493 5.8523369381443 9.22400777627548 0.11749118694064925 -0.4721653549583416 0.382175972982387
P 7.488118310820482 1.1531688710541457 1.8853425415385845 0.07048447917380765 -0.5879220757063875 0.17845024312252492
P 4.006122127430685 9.213773663643071 6.836675734393767 -2.7937334413597434 2.1155988119230016 -0.19541900976637958
P 3.354036991854617 7.35824830198985 2.338348615182845 1.6326075699937497 1.5566461268657705 -0.42284439723602657
