# total energy = -340891.60606024327 ev
CRYSTAL
PRIMVEC
9.07596468724703 0.00000000000000 0.00000000000000

0.00000000000000 9.07596468724703 0.00000000000000

0.00000000000000 0.00000000000000 13.28359173235710

PRIMCOORD
 96 1
Ni 6.446939200698135 1.730868184023984 11.476758154492943 0.21682498624598143 1.1990342163759928 0.4642250170653424
Ni 4.680184651585818 0.22505760842991748 6.15824637219226 -0.33739609766353507 0.6495491044895653 -0.6764860380897253
Ni 2.8528026571548213 1.5335294798976267 4.661810360710419 -0.4881799852190431 0.06259967710909219 1.566388036743883
Ni 3.492748940002149 4.394010403330832 4.954089102935667 -0.6424119792241517 0.8648021182627363 -0.4609905692884448
Ni 5.194138390134655 4.416373580765746 2.8436586225502447 -0.658134275055415 0.9219124901224831 0.4022354627364234
Ni 7.325138637297061 6.276855619070579 2.685809441564842 0.19505288467621246 -0.5026524678036052 -0.4137732881726938
Ni 5.248412660045689 4.650687765764604 11.550415054976218 -0.43339851860278905 0.08922396456483989 0.8358586957555089
Ni 5.508339217902229 7.63495577403336 12.367117568822104 -0.24968008510278936 0.9812957171768069 0.361019650619746
Ni 1.8314661786216266 6.518013081579959 0.5209785353567201 0.5812570049813861 0.22239553835522347 -1.3122591718411207
Ni 2.498295469408166 1.5668654988580326 0.1748947506041171 1.333284367942536 -0.8470396520729928 0.4416229633951105
Ni 0.7225856657605289 9.311939954635637 4.728812763752429 -1.338864690243791 0.06333321284100706 -0.4453088968871299
Ni 8.545356733984184 2.5767118058682557 1.6300559966554549 0.48362681863072193 0.3646410494224172 -1.334893364300869
Ni 6.891198605025093 0.735316521680965 4.739692122839779 -0.24724884995347743 -1.2029592624620122 -0.293951653326655
Ni 1.247509523045397 7.4439793212795164 2.798427644033751 -1.0065030696803698 -0.28575831888258524 -0.6487556620539924
Ni 7.6307717542291815 3.976661234837688 3.9299109398022805 1.0183429997380913 0.3614906767188935 0.17288740432276678
Ni 7.761256901137365 3.983277613226508 12.847384956166628 -0.5811425908907089 -0.5109681867581523 -0.966692108331019
Ni 7.924796712095045 8.980785224494515 6.853151252701674 -0.4682181973851356 -0.7843371308374492 -0.3238340427083842
Ni 7.021665600003541 0.6958714707678636 0.7056562684921255 -0.35307905561643066 0.5844873389932257 -0.6547684439069755
Ni 1.9852765552407396 6.336285037026674 9.137969137255087 -1.1064482773174558 1.2777917341918705 -0.5103727192659985
Ni 0.06135987568353328 5.13921065075312 1.2922812577395664 -0.013994514506879123 -1.106285012266714 1.0923131234676544
Ni 6.380013035761017 1.8930012204271136 7.011597632175396 -0.7787730064861104 0.9644894442527453 0.008074035257386094
Ni 3.7297859144614267 4.132377564079095 0.799821219191283 -0.5476205478738633 0.4188568733431883 -1.2631014791695472
Ni 6.042541434071721 5.822249614794026 4.7432253959629165 -0.2143675258444244 -0.01961108936270816 -0.157496009468361
Ni 5.173263670938103 2.8369015667059694 9.3901448211143 0.11125677599516323 0.05235048857725822 -0.10039386513873033
P 0.2986881886150759 5.464375244081318 12.38514334264657 -1.2228606293716295 1.2548099285847163 0.2440007753298249
P 3.8679402516831263 6.017264871914158 12.658532279191911 0.1506843858631663 0.32296603828113407 0.07034204005867241
P 2.444293478443174 8.498034653162089 1.282536394260724 -0.008126999982508584 0.6913089620351708 0.08641966234682535
P 6.395178973055555 7.788085453287367 5.659407745534699 0.474529227204828 -0.12044204203885707 0.6012079941820162
P 4.734722124478026 1.0906950020549542 12.670168573749258 -0.8815343434157528 0.25556328335644374 -0.12008311603754157
P 3.9572749738794992 6.143284644107252 8.03483280255899 -0.17539602967723342 0.23792680122160315 1.7500041403380637
P 4.846710454985092 0.8687395584169416 3.9248102475464273 0.13288129624347436 1.243298328400691 -0.9760781775316092
P 0.40715595234981855 5.432200948624025 3.58516222948177 0.03197269625185461 1.0488455392023226 -0.03166930607882288
Ni 1.397689513717284 1.0566147539753665 2.417799829396803 -0.14925742360865263 0.3871821679477267 0.1286942547453203
Ni 1.890450874299187 6.720815516556892 4.899905592673313 0.5661240059946895 -0.9375352842614048 0.6495493615998813
Ni 5.935926074766551 5.336404139441589 9.232866518319097 0.15474570041673352 1.1907449797840073 0.9901891630116947
Ni 8.486598937428326 2.356038796066101 10.20078912841075 0.5363920261478955 -0.048081171777943 0.10820924741809106
Ni 2.400565479708832 5.096027209910862 7.00090433036784 -0.297716519685726 0.17578838001964564 0.205843033313181
Ni 0.254121570726925 8.866037800667558 9.342709290731353 0.39572748641457656 1.155428049650268 -0.3936328086690769
Ni 1.3748816140038345 1.331198995093833 11.360393393726495 -0.41088079711624725 -0.7259530344716013 -0.2824354251569394
Ni 4.208624744935717 6.978037436882748 1.3245372368806727 -0.7674575814732911 0.6481064585057676 0.5882375500642774
Ni 5.52278815397219 7.703197953876347 7.986546854267905 1.0931818992258528 0.14247691035170945 0.4351370985604506
Ni 5.007382261044462 2.7933732391987256 5.034494890894836 1.75603594835444 -0.7030313926784215 0.07948205468672763
Ni 0.7424429692953703 7.733157713905833 7.0883639582224705 0.6080021342857141 -1.6072387522116576 0.1616370282199281
Ni 5.3007900532992975 4.572643543864105 7.193583434130933 -2.670573486169091 -0.7640660392932389 0.1568005260632332
Ni 7.937938709224005 7.03508895204341 9.116595239990792 -0.019717533033585397 -0.3124589681022232 -0.6438016604828267
Ni 4.63019423709251 0.4991689917787576 10.485004783447211 0.22193531088935325 -1.0582632329717967 0.6009627109404295
Ni 8.487851420580117 7.191240927598485 4.7252794906292905 -0.5927974015208178 -0.0926623008224275 0.2996255637829807
Ni 7.309972700002524 5.987967657320041 6.8542803027312615 0.6441284476946262 1.1839611240929546 0.20659636653943775
Ni 2.553903906154806 5.3857501604292635 2.5503969533297854 -0.8595416411947454 -1.2262071772463592 0.4585086834068555
Ni 2.1635466571792907 5.515899496637328 11.393336423408115 0.6389785280625705 0.01889298024976101 0.4238239875404765
Ni 1.396173827584317 3.2662128568952236 3.7216511271501798 -0.878085465635204 0.6009452274389327 -0.23223900680820647
Ni 3.735975722501448 2.6083506193983337 2.7487467199424453 -0.5380028222784412 -0.10999205035012669 -0.6628375940683552
Ni 1.10967284459408 3.339210842329078 8.263457265182057 -0.624327610918615 -0.1230915638465622 -1.1579801266481604
Ni 3.525767300192173 2.6338540806775987 7.037221803787406 1.4905916584388585 -0.12328465369397477 1.0043744533731414
Ni 4.168781259164907 6.930942255182354 6.024853286140347 -0.30320736759696815 -0.11188283961493634 -0.7481712224398533
Ni 0.36336169907194 7.33903393951007 11.190137368766447 1.4324297053861461 -0.5717022714134155 0.2733936266696453
P 0.16299797585505632 5.655279089116217 7.930397490015128 0.8372375783809065 -0.4309726827701158 -0.41223139760687066
P 8.507001706451737 1.548332378597442 8.11284798137191 0.6232765439462813 1.0952644927864943 -0.31507223735535417
P 1.807296884177967 3.392613819612778 10.23935108794219 0.3274029910065652 -1.4398087714590364 1.1139998644124685
P 4.008735694681433 6.229778589299921 3.8346015099332598 -0.15656449879302714 -0.053249860463076025 -0.18475484518431406
P 6.843377346135254 3.751586382074521 10.507228191023156 0.8592451930002493 0.5728484692027167 -0.7088641973101146
P 6.254701188827631 7.77108617108948 10.207510787992042 -0.5282066621236259 0.36431683331377906 0.4970855152387891
P 2.3716857594986465 8.637622992832942 5.828508400167043 1.1799535455954582 -0.26000049319219093 1.2430828699557752
P 6.972410338664547 4.2320770381548 1.7286472954207683 0.8556752162608038 -0.3774767677345047 -0.28155225122103766
Ni 5.707293443775102 2.771899506320881 0.5488199651859991 -0.42569035132525396 0.17016023519959084 -0.3351834062829324
Ni 1.483893028034174 1.0410040944022931 7.307808989977976 -0.731968644538062 0.6142213757225486 -1.190976121958207
Ni 6.8151147915360974 0.691204609632704 9.062836484884265 -0.4017230418763791 -1.1739315077710943 1.7079411497297425
Ni 2.8568505374859785 1.3883775737626483 9.226742964822614 -1.2496612945042413 2.261370590975899 0.7511477885696741
Ni 6.399598967946303 2.2387047222517444 2.8945611715127924 -0.6329464629358776 -0.7888267911776866 -0.81068759580652
Ni 3.985483072689448 7.122871684247344 10.361162335225963 0.46547097365730156 -0.4167279999256436 -0.20398309728630676
Ni 8.02725527949064 7.124695953185825 0.23301269163677726 0.24807880205394048 -0.48249296213659487 0.32255363333406384
Ni 7.655530986389265 3.8457313656509693 8.051783074546588 0.37893895410232803 -0.5170917831573869 0.3732437034897636
Ni 3.015371339871618 8.39623863120186 12.343140684833648 0.13381717779418245 0.009265998682958236 0.24793456316659238
Ni 0.08624617135177003 4.774284255337925 10.045411332658922 -0.8020558882734509 0.7253087160193831 0.5390153227033555
Ni 8.44298892623727 2.1684658301377824 5.849602757713402 1.285186741104361 1.364643856090424 0.020176732058191055
Ni 3.59969103404257 2.929176901519596 11.537251275531576 -0.1434719272751271 -0.9364831888478066 0.3155064966792953
Ni 1.1880619531595653 3.4334193576596026 12.411098786976265 -0.8283672724744702 0.23077013557216386 0.7435962014746613
Ni 3.196200863902963 8.47545365257034 8.080953225632554 -0.4332082569688539 -1.4826536345387047 -0.4349573784494767
Ni 5.394798897402724 7.859849107499165 3.329798159164407 1.576029159378073 0.06098888097854658 1.1841313311222317
Ni 3.1650430765108926 8.5134637934378 3.6187823261425467 -0.2023044240323032 -0.2521784260446109 -0.2811501306866126
Ni 3.4984577219041624 4.550026239412884 9.696809875251919 1.1482515865064868 0.164192190541614 -1.379168274958844
Ni 7.2224077909554225 6.227936168431704 11.450309885270913 0.5967908389509271 -1.361352844043978 -0.587457220254827
Ni 0.5015831984336632 8.8239343996446 0.24401003826741274 0.9763502002460732 1.2192544000776098 -0.4651968940603085
Ni 4.516372561682096 0.5336422291371324 1.5219412879540801 0.07666052607753249 -0.46478526044418667 0.0711208272062259
Ni 5.972565744938933 5.673866665166015 0.5128963886417074 0.2062374405381222 -0.4558853868513955 -0.5436047418462508
Ni 7.839582477948774 8.832493034515185 11.806708504096072 -0.7413146045293362 0.3232959108167271 -1.3989809388093972
Ni 9.490554943239173 4.711324287048152 5.694914735291547 -1.0695539753942676 0.0074767679930193825 0.3304800872699921
Ni 8.37930288075805 8.521441566556831 2.275545878844198 -0.8224293097234804 0.7099602585877709 1.0993636025565325
P 8.545783304332984 1.860690785496799 3.5906214223499116 0.05830696327100926 -1.7889136729190673 1.163015375079223
P 1.7414689109898849 3.15633015023755 1.3694451110478627 0.5414486147351966 0.6812407791658913 1.0932292075240204
P 4.770445122198733 0.9807487636432036 8.304144815685596 0.2395075154451617 0.10971462831902397 -1.150357062885264
P 8.461086400184191 1.7367584852233586 12.589790013684695 0.6344649564629331 -0.11122052344058911 -0.06724231808742613
P 6.3409954627932015 7.885252733164881 1.3921341156215408 -0.0521406865592973 -0.7689493355274692 -0.2689430470974594
P 1.815283733261865 3.0614500135067884 5.99634658808624 -0.841251584636306 -0.008226501674850348 -0.4795549625541935
P 6.7624106635472385 4.061040480216097 5.942175784174701 1.8361067856651025 -1.6735032797668468 -1.2585593683248197
P 2.1782678721952937 8.663498568671798 10.29210059575539 0.5753786918237381 -1.1805580119486765 -0.11380448211768142
