# total energy = -381172.4363242676 ev
CRYSTAL
PRIMVEC
9.17300992467399 0.00000000000000 0.00000000000000

0.00000000000000 9.17300992467399 0.00000000000000

0.00000000000000 0.00000000000000 13.42562724680984

PRIMCOORD
 96 1
Ni 0.7656133228498154 1.3331868718538293 3.327783511899469 -2.8418966313285314 1.0787269001427873 -1.1803081007213996
Ni 3.4187623385912733 0.13247385299956962 8.609921670650625 1.719197182259536 1.8873506714417432 2.7401994739973454
Ni 5.413121397687809 3.0593546487503174 12.797199672334834 -0.04171357768870235 -0.24990839906351156 0.3344676111628304
Ni 1.2241473065252404 5.937551530555711 12.14420430586557 -1.2194176651283515 0.2836633840267695 2.492733365826739
Ni 2.735941848650203 1.147855385532738 2.5336577232541755 1.9691629169235443 0.13587303188194663 -0.4865807590527233
Ni 2.3404016739241356 6.538631331791217 5.424100572899534 1.49590124357723 0.34117510508999305 -0.6206000255553827
Ni 3.3847488189279096 3.680275669789452 7.841801364272223 -0.3747238875797159 1.9604558760678494 -0.43900095239123105
Ni 4.334458023703278 0.4563966724344424 4.461738118657164 0.11168049379614314 -0.8500475856613812 -0.2652198326096013
Ni 6.612428194167636 2.229252316383418 5.67622074224893 0.9788236014872305 -0.03340042983731667 -1.3216380419528593
Ni 5.630668493787145 0.774006626650241 12.681068453270607 -0.17566162463379426 -0.2740682841391667 1.2431394342253237
Ni 3.7032724049016563 6.20192684075469 7.460849026741585 -0.5829220513886348 -0.3187882527543606 -0.9736749674067554
Ni 6.43303164506936 8.659541231577009 11.015391170998738 0.20232962084328382 0.2873228351562278 -0.2702113722869217
Ni 2.7339971706111967 4.6860227903208855 3.628033545413295 0.37564485673208853 -0.6464632664753899 -0.07173789196493452
Ni 5.495412466970451 5.001721089332303 3.439296120621058 -1.5146713250958816 2.5018870073015496 3.073949747378177
Ni 5.719243074658085 4.353134271285428 6.3934180030342365 -0.6629319535543744 0.3483240574299485 0.10128938036980621
Ni 2.798538466283104 8.487051958721052 6.749908675816684 0.004392729751056951 -0.5763893924764396 -2.6573757565318945
Ni 3.444538495617717 2.469245767017882 0.506429018793635 0.9553206332692837 -0.8907859439210079 -0.48255415439183347
Ni 8.20325738716087 8.681244572333084 8.409463891469532 -0.8596372862323453 -1.929531675685167 -0.7108948545868983
Ni 6.58617504064106 2.271310565481725 10.938985504686972 0.07394749802174361 -0.4160258316522964 -1.686787655580579
Ni 7.83369517567284 5.5817213144657565 2.3265137373625575 -0.11097189776489275 -1.473920368430765 0.11787325287041635
Ni 7.539544276253991 6.700736757759655 12.287845380774035 0.3682467644958045 -0.546857958676226 -1.3249362530881568
Ni 7.243714716075056 4.484601845129908 0.05667727452643669 0.5100855270428828 0.8444490085276811 -0.2821916845772495
Ni 6.367105224945142 8.525963865520401 1.1781474151940994 0.970758822201225 0.3456706789675014 -0.36275128859887207
Ni 5.132748358715122 7.431660510137264 12.905128386198689 -0.6204455022553895 -0.521433090845218 -0.6924811279664009
P 5.006335113170134 0.8001139293238927 7.031752148231128 -0.5064949814781471 0.2239875654326917 0.13950548642821137
Ni 1.2157723487440506 4.798107794842634 10.343291177398166 0.6218398114997549 -1.0271420860869602 -1.7065661237590866
P 6.816977135638337 7.336756552629938 9.409283413185847 0.4208515351757139 -1.0447109482086587 -0.9048758463551706
Ni 5.735130727316377 5.51762949626513 8.50361749679011 0.5428678636802263 -0.2108425434103014 1.3028939285761367
P 7.748872355735643 2.9199157295478373 3.767217454948396 -0.8258848723722486 -0.4242379351494436 0.317399342826634
P 7.58373983659328 8.8083366205898 12.67914854235757 1.9449662650726827 1.5369589328494886 1.6112175343537478
P 6.9141468265212955 3.861176592465073 9.213511207317602 0.9567373111111522 -0.7801560028765661 0.20189690418123937
Ni 7.5162998698821015 4.938977703545516 4.773965350829148 -0.488199782713385 -1.4675414614876146 0.13013304407437587
Ni 8.617070197045894 7.3779984038722475 0.5799791272113316 0.3102239081241173 -0.3512846827201692 1.8142205271149723
Ni 6.067294578592017 3.5771893877029135 2.0852415691873505 2.9072234775608 -1.1801440643397094 -4.110268100647766
Ni 3.8176047967798032 6.841065458895076 3.21017452098579 0.5378480418681317 0.3234275512985849 0.2422228574937958
Ni 2.3634626201036655 1.8194022466533466 4.919042001742821 -0.7154156252753873 -0.013271006077293273 -2.095886421095739
Ni 3.8912181989638635 1.312877828559685 11.29307376625048 -0.20003671104404905 -0.4811590738165197 -0.9585838774015879
Ni 8.379746092210254 0.17797473260749425 4.62085864729592 0.9397921986163814 -0.3524069692500705 0.9349739512921318
Ni 1.79381872282888 4.202109840935474 5.898186477081235 0.3620072113439959 -0.3386307414015846 -0.2097768211499484
Ni 2.435278112402608 2.4601553144864923 9.634390903812298 0.46435202956150995 -0.03956439255618348 -0.6924487320665688
Ni 2.7855403116544664 0.13377091655954795 12.972994897857102 0.3444548042825294 0.068863655740933 0.6649728952438032
Ni 6.672869154540319 1.058675386027014 3.2317898008495307 -0.7696841568109648 1.7839175052560567 -0.10105849530592272
Ni 0.8062268229332955 8.200477965246629 12.376427300052669 0.19553110986421163 0.9808853691122658 -0.2305670184224223
Ni 7.599168838770675 1.6978690422251077 7.705450997408108 1.0177331340682343 0.8691423975093032 0.4050755032883798
Ni 7.899694979874001 4.089712954086716 6.983903895461969 -0.14376066216013952 -0.4444717456978151 0.08956103618928446
Ni 4.4060900558098615 3.4085527788864938 10.561953711467046 0.6393737066184602 0.721029886138371 -0.0015053809009328912
Ni 5.9855905819249235 8.11073841215421 3.3776727593086218 -0.0391041650903133 -1.82410487610822 0.7195224483549093
Ni 4.598071974103967 2.7771745268828947 3.278698737433811 -3.081051391419965 -1.808754104683762 1.6819596380643163
Ni 0.74910557474135 0.8121498352436067 8.79927643899015 1.9321138345900468 0.7584769752412357 -0.9892170289064126
Ni 5.111632090574599 7.082563283106885 5.327073980966615 -1.4670958893097636 -1.7136785664341516 -0.10727208031580235
Ni 0.9034221982431856 5.238870906985203 1.376368814630336 -0.14177474207836227 -0.3284656279431246 -0.8588865241092497
Ni 8.7044522866665 0.2816618468240086 10.715220942668589 0.034791910868204594 0.6853036363813553 0.25346577739746673
Ni 1.0698114197032071 1.955437979287567 0.7555973136479741 0.22576522615840472 -0.3327668264216398 -0.655379080907781
Ni 8.309123091161647 0.7376631625439172 1.5122623656154779 0.1974769207366728 -1.0603041746612256 -0.7223989985717559
Ni 8.530724657512117 7.669204767203734 2.812843774782299 0.6094049281705117 1.303772217416032 0.9318567458193887
Ni 1.7648320124361534 7.750477632418784 8.742808309083003 0.2982888472494282 -1.2108826310741467 -0.31667377751451914
P 1.7718952298419761 6.579955740120088 2.79467846383587 -0.667169902895122 1.901548303098364 0.4766439595549856
Ni 4.029895758368054 8.479676858988219 1.5817405750637659 0.5569850198078987 1.1631459871198162 0.045705729567230964
P 3.9737661125158086 4.942830367585056 5.4684997740523436 -0.7969491631745049 0.5631749506686946 -0.7117626019038322
Ni 0.6660843338931184 3.248832335418723 7.840539158148793 1.157140918576317 0.18131110961008773 -0.6473179011662014
P 2.0006517436944495 5.290790141422808 8.262949829948726 -2.1256399982090874 -0.10538566192636689 0.6844680278539373
P 0.898279809051362 0.31321241340495265 6.321617187550683 -0.47395381431733213 0.49281568421884164 -0.27529650011931295
P 2.102417112396003 9.037450881817374 10.748677660648143 -0.006350881918692288 0.3096150708955248 -0.6736647665908463
Ni 1.7158389680666746 8.63890195993662 4.24265912995163 0.4325598247515776 -1.010460254555905 -0.07650754543943598
Ni 7.072133571171274 6.464302434856957 6.619397846875356 0.8788351993170349 -0.048637301391729136 1.1398443362793984
Ni 5.198628913791249 2.651063990655298 8.50019412960069 1.2993967140561555 -0.3457465265107594 -0.20311355019715988
Ni 4.718687877570411 7.643694627456212 10.126923730335697 -0.5581638706073484 -0.2349990860518469 -1.9938930726803727
Ni 3.1852817247855554 7.0912592962247025 11.520020445305331 -1.6295626125198388 0.5584811447374511 1.3541894935263195
Ni 8.408787840660688 1.999303311280611 12.423336236636947 -0.5157468390937182 0.35866760544780163 0.9348423108102739
Ni 6.05362679426127 0.523283506665659 8.987410279749525 -0.21786242637156028 -0.5323330255871735 -0.0071929182040134185
Ni 2.5396669618548957 6.994740889024617 0.584920627492522 0.18258843366061459 -0.807260572402842 -0.6513625035492201
Ni 0.0592090251809913 2.459228840515079 5.444346322427315 -0.36511310396282926 -0.29437151447289306 0.77134611789442
Ni 0.29767516971406643 7.128685175465944 10.2653416935677 -1.586488921258816 -0.3860223433116707 0.627232443270236
Ni 0.34788914166369456 5.934561129420259 4.404759969415258 0.6175121306586785 0.9403740392617805 -0.7639035455734456
Ni 3.05213549018099 4.390615188584377 12.320227939327326 0.2422359701199183 0.0630125962767947 -0.30113917221402975
Ni 6.071908602429846 5.605534447433959 11.088977054153943 -1.9478358733109937 -0.4145785576828086 -1.7219719167911955
Ni 1.2440986024442848 8.637250818205388 1.452344266791019 0.30918543955727396 0.7725465659604244 1.1004763760047371
Ni 3.516454891022457 5.455610778238159 9.938293629755991 -0.012083927747727576 -0.05412866352360355 -0.6311631457832096
Ni 2.458504172755261 1.8070003376498762 7.063531122751559 -0.7310700439831925 -1.1117509204772915 1.624246599623564
Ni 5.3178780388246185 7.700402172914387 7.685392377276534 0.6240383618129705 2.0217322063798275 0.09564272360699012
Ni 6.4223175698355925 8.914936165360015 5.756291025903067 0.23307178712214696 0.4580903649225143 0.6604881199995722
Ni 4.3344488506936605 2.493168976101499 5.734394134644055 0.14076532697724145 0.7389144797282757 0.6749714012174117
Ni 3.7711526760744967 4.986842467731986 1.284434160336341 -0.6477205359212588 -0.845082528346622 0.6567641341807657
Ni 0.13662097064784548 2.79963005442764 9.908703335330404 -2.1399564148317594 -1.1611256142556778 1.0942972437772187
Ni 1.4711214174789655 2.0256115028648956 11.682202007253597 0.5264318296113902 -0.29719484285430103 1.06691525221984
Ni 8.750583352035179 5.399306845203173 8.669249027655688 -1.3951242840674682 0.12209628981282844 2.1948173285356978
Ni 8.263423157245013 3.0378806332346935 1.5386980620334523 0.4455616363278842 -0.00798353242610883 -0.16719215371020238
Ni 7.991791996438233 4.307984717945871 11.162643659793789 0.8354686594059417 0.15547177994948064 -0.034832791408469045
P 7.586253241228599 7.130648199524186 4.70121145964629 -0.1929612922545064 0.8684957650642398 -0.6275774853144804
Ni 0.4872363307699952 6.107261381497431 6.8095314037314445 0.3471446924098667 0.3944722738512368 -0.4708867453562342
P 5.485413886486884 1.4435932156154934 1.3219022354218257 -1.0545163643348547 0.3636339483141415 0.5458737403860857
Ni 0.411942433223926 3.8335199684669488 3.2983005416864115 1.1046898998654522 0.09343311755018102 0.5596995905255844
P 5.1153196404410135 5.101615164071794 12.955702857426303 -0.657278611923339 1.6618952632142736 0.31765002538485937
P 2.157996377671171 3.4052321494047955 1.8824740261844575 0.5276813857477751 -0.026859800505321486 1.1718859380959754
P 0.34268804521031604 4.094510438116904 12.908001372811032 -0.5759918999277047 -1.4677468926302013 -0.5458709121726083
Ni 5.818595941830117 6.115526263163206 1.4046161804478559 -0.019392288483682733 0.8602157844436346 -0.34757278108622075
