# total energy = -340891.5799507844 ev
CRYSTAL
PRIMVEC
9.05658713291939 0.00000000000000 0.00000000000000

0.00000000000000 9.05658713291939 0.00000000000000

0.00000000000000 0.00000000000000 13.25523072288668

PRIMCOORD
 96 1
Ni 6.441569905145252 1.934369232163658 11.519842723450822 -0.6426505775975191 0.18293990346276234 0.1315903453461927
Ni 4.578485068690886 0.2996045747957452 6.086337962121125 0.7201508259675274 -0.32005015018591976 -0.4267105650596522
Ni 2.6915995217900663 1.436755063411664 4.918220285822729 -0.11260660515483832 0.5526933344110805 0.21869957756087494
Ni 3.671938830384631 4.121580258179681 5.01789979852698 -2.049839249028689 1.410112015725552 0.18441648800828883
Ni 5.288910917074044 4.387762404576803 2.9067133858182967 -0.7462873751535792 0.8971111148080871 0.17896703485794338
Ni 7.236385030522335 6.059191748463517 2.719297281591581 0.3018837636895382 -0.9311671759515319 -0.5465908210577684
Ni 5.078526402739549 4.601108422836712 11.49767944392093 -0.2879753811385621 -0.45544135733544144 -0.340617175703994
Ni 5.773112280585859 8.010994910463332 12.453488081162657 -0.9066987584965224 0.28005818317401443 -0.44929693500060036
Ni 1.9768536814423114 6.34691951516205 0.2047531285827434 0.18461060629696593 2.1786047233315773 1.1417027296443756
Ni 2.841549431554863 1.611266436924853 0.2571518235713395 -0.2547790968922515 -0.32482494586674376 0.1299767210021697
Ni 0.2824323803218048 9.09453402710101 4.465952447818596 1.2877408749847823 -0.286949510977209 1.9614058986859444
Ni 8.484391765770193 2.520357576157839 1.2383641871457514 0.3415391732976311 -0.19941913206470815 1.5045879727179508
Ni 6.778384372992858 0.9312888337932036 4.897555871429401 0.8004237519866667 -0.3040020955841216 -0.8043004613332536
Ni 0.8162638401983641 6.96570176042206 2.481114479340672 0.23727194124642362 0.14431987709771918 0.05565744146330415
Ni 7.5243210987202085 3.648636232219213 3.7865417870286313 1.352943022713728 0.20869567227062766 -0.29117203369898886
Ni 7.470986858301963 3.874335435048742 12.64653738245851 0.5212865379650248 0.49351451005807906 -0.3604581216893211
Ni 8.156217281851779 8.973148592506726 7.114797634039558 -0.5150061042729518 -0.056698481133308797 -0.5722308902233758
Ni 6.933514650480398 0.5998150352569652 0.5337617241572146 -0.21066488018185656 0.10272662703696503 0.014189918347136853
Ni 1.6744904702683359 6.818604675539543 9.221676734005346 0.9003512190119397 0.0908023647955533 0.9267291947848362
Ni 0.20610074871761094 4.934626293042571 1.1037353054868375 -0.6073228488305024 -0.11575106432109096 0.3870700678498946
Ni 6.3589376060153375 2.1001953388130166 7.138790344128879 0.9351529000721571 -0.9707020008213604 -0.9917400524385823
Ni 3.058065255239528 4.258524909116051 0.12073245467678514 1.528504117213916 0.505355211446749 -0.2001873776893004
Ni 5.905066752124971 5.496515059221682 5.037796214348824 -0.17567036638454264 1.1485801734904995 -1.04344570834299
Ni 5.452382311122156 2.972915224943664 9.023153631570286 -1.0577590396418686 -0.13795973920764626 1.9010420528859064
P 0.07269269497657443 5.9037444904335015 12.257642105823477 1.1468179393837539 -1.6854884771531808 -0.8113031179033318
P 4.186633722082594 6.281186807239545 12.531176389488646 -1.9108163586638511 0.06273363158379519 0.8732978144385733
P 2.3040500539725155 8.37423649896647 1.4819881868229265 -2.458616626648688 -1.4313835235098187 -0.6523374658679798
P 6.715033547432385 8.06268990864763 5.655543291722979 -0.8249407632914244 -1.3666207773111365 1.7391394297094176
P 4.860335110473227 0.9932811713144957 12.904285129449704 0.09892345124079092 0.8512855718335403 -0.6531419640471462
P 4.1111742397995545 6.182053406727046 8.147327336123379 0.7565386205679422 -0.4588794364827129 0.1891779139526742
P 4.617645750567009 0.948115972305192 3.7743072437477676 0.28853433896582564 0.3613441238387003 0.5519425722879849
P 0.21183537956034026 5.170550382513669 3.773896980359935 0.009529793867306168 1.0347695207252308 -1.342919319929139
Ni 1.4305060184314313 1.0665217898002066 2.6934624617211296 0.24775304328340556 0.49799825686104554 -1.3721633043959207
Ni 1.9612582387525137 6.147049698250815 4.6699638419319465 -0.24778801028639907 -0.04194831940732776 0.3679302616966502
Ni 6.150427805174912 5.699808265991652 9.058253339867951 -0.871709386905531 -0.3955310541330543 0.42184989453324123
Ni 8.490640810750424 2.4424256456434903 10.080390608452037 0.478262211884699 -0.17085571860471865 0.2610747000929762
Ni 2.2638297514258303 5.399328824898674 7.177190272703062 0.6426215241317964 -0.7401902611169059 -0.8099139508652892
Ni 0.5021361226050813 0.07539336919846623 9.160623564548475 -0.770944511580627 0.5831310820756473 0.32254592002458
Ni 1.2396746752742147 1.2035388934320006 11.258555662288215 0.7790766537694583 0.8447536842522936 0.6802763583700928
Ni 4.126570437576939 6.846435567168897 1.6919905131890653 0.09871493477441064 -0.8785207534004097 0.08786025144809384
Ni 5.93125840152038 7.897425310387802 8.049105933914515 -1.2453888923811327 0.23735447365790088 -1.3951672214902617
Ni 5.346211942566698 2.743991877167813 4.923840803670167 -0.16347870941435716 -0.6230947669527785 -0.3049770579028812
Ni 0.848525214152834 7.322694303944966 6.7473365816867235 -1.1916512936483605 0.23218218542834207 -0.05919759340607869
Ni 5.175459052628576 4.387599386012101 7.14116226424529 -0.30585508963246033 0.7177072495230413 -0.2018385401394782
Ni 8.096407581780104 7.304825657936273 9.291637962364474 1.5328639368445085 -0.6231467032366365 -1.0330517667031756
Ni 4.532396097814939 0.4711490104313631 10.45514221328181 0.9651077945630346 -0.211861471593119 -0.6377405418904114
Ni 8.269234430124708 7.085076632718357 4.620402575627853 0.6103464661481747 -1.2604288174333906 0.1675186838116857
Ni 7.415832243911215 6.240549901694179 6.816038038804184 0.08802325938851936 0.13206291410723706 0.8711239467157063
Ni 2.5168164506690407 4.949977207885317 2.322634170348511 -0.04772687376231781 0.7863204798160651 1.4301941311874078
Ni 2.268050120934219 5.421979348805285 11.363085882951035 -0.8161774152764976 -0.4976318746605623 -0.4983458700084514
Ni 1.3824064852574967 3.2180408067334807 3.9100944628747567 -1.0282882838762615 0.7803907445951914 -0.056711850869747484
Ni 3.714513845532563 2.7077293031086085 2.7325126532367334 -0.4519603407653765 -0.9937177449902435 0.13696112273980282
Ni 1.3193454704787153 3.4589641321887643 8.271727708505953 -1.2810783753629422 0.14964797417885195 -0.9546056094801302
Ni 3.6280324969583018 2.4171758812885797 7.068351833638654 0.7965074476513959 0.9526142900817142 -0.1260501322542539
Ni 3.983259006030273 6.906770549282388 5.968273577953291 0.7213489600406867 -0.41034420788648684 0.3618012659807769
Ni 0.9681219728288639 7.797956816158969 11.517881066722245 -0.5377261715782868 -0.828892805960637 -0.15657632586756903
P 0.2944341693186224 5.701701092659578 8.160118859500306 -1.6572251114321135 -0.9361332617075554 -1.4833637732318519
P 8.681254795821372 1.8787436752526607 7.913995241831039 -0.672006662162133 -0.8166466416034323 1.493195671720609
P 1.7108617233706747 3.387833698457248 10.345177134803574 0.7512035815082739 -0.6081484300555913 2.046095208605225
P 4.025381191831811 6.068103430000544 3.931183631195002 -0.08131216591693093 -0.4015487210820439 -1.3559874659670066
P 6.862058179619479 3.908641786331526 10.418412319337127 -0.04714837555102847 0.8253763081669462 -0.2996728720811484
P 6.352099882884793 7.945180693258477 10.188341501997515 -1.5803355000629107 -0.31302435368738996 1.431591782865883
P 2.43386717099665 8.428693756163772 5.9171083901042705 -0.5088706807991753 0.4800326735215604 -0.3566096944775084
P 6.902160746536101 4.135074572702211 1.5643958825970306 0.5505282084389616 -0.18849168651892698 -0.7376988621536198
Ni 5.043377788872473 3.207037053616115 0.6893366800629136 0.9588646418668003 -1.0618195828644874 -0.7487924009636201
Ni 1.603749469774718 0.8673502357411114 7.243268036587518 -0.6387725826993516 0.8325324595957532 -1.6041565137419083
Ni 6.913798460738418 0.7039630679514289 9.240380397328789 -0.29272266601556035 1.241628911118068 -0.3739708114637753
Ni 2.6673640951710773 1.6521659834911284 9.174806179677523 0.7469484057763459 0.23759127225905535 1.0303101994022967
Ni 6.314270519287066 1.9035858931958172 2.610418993544689 -0.22845717116827108 -0.22434237766894913 -0.5212096619805023
Ni 4.048692846584157 6.970465525146121 10.541897976439985 0.8125141074922975 -0.16352884592600225 -2.2291456695039225
Ni 8.048552576453222 7.142803317796621 0.21185983234504552 0.15616829179587297 1.5242556263502072 0.9689307678535506
Ni 7.72662713751504 3.9908121995281194 8.164970473117569 0.387748581974158 -0.20734532889032034 -0.5429578522908713
Ni 3.1905450088204574 8.492071751485028 12.12184220747479 -0.11553740564838812 0.19172690562677303 2.2955937738248275
Ni -0.03206394035944236 4.8827411065327855 10.145885128138337 -0.10221549172850136 0.2596251121306432 1.1327087536758815
Ni 8.772463682771985 2.1577680619135067 5.818754761726261 0.21573972360160262 0.6170076802184341 -0.8902907494521441
Ni 3.7505681180924264 2.632541518433405 11.394222428809062 -0.5377693661113965 0.07768356802540814 -0.05112741480343453
Ni 1.1314756312469132 3.31326176169314 12.690438281932684 -1.1040034153213891 -0.34020657052913666 -1.1712367345477506
Ni 3.245572830994216 8.225056399090542 8.026214504795622 0.4626049649634162 -0.11818101391882227 0.21002184728121895
Ni 5.550872693962777 7.88295288447706 3.734966335791779 -0.13406451791829815 -0.1186219581109828 0.015245099084528585
Ni 2.9423854704098034 8.404730027152619 3.86583492255824 0.39658829175297505 -1.2909146447270734 -1.2557602083131276
Ni 3.363154499078793 4.574626962659611 9.457725804376048 0.9744175019997348 -0.4840402520190567 -0.8151615724174737
Ni 7.065614027410358 6.2057454381303625 11.292462618087479 0.6029763989363486 -0.7812024418632094 0.411724118953149
Ni 0.5451521935364008 9.120798129191844 0.34762350434602185 0.2884006416014388 -0.014266537221343172 0.2887104595323738
Ni 4.085779570053798 0.1446463724598344 1.7800712550147892 3.0012782878553796 1.9962286627920847 -0.1666373096479969
Ni 5.982391891315152 5.82011596674152 0.2540245841051449 0.5411472814446939 -0.9255925100772318 1.4390112152584056
Ni 7.946937671122485 9.014754552853375 11.385964632848228 0.20092785539975072 -0.4242201945376307 0.1511906360756235
Ni -0.001901883254853377 4.699200315852507 5.894083829157538 0.721295481094932 -0.21823523632994676 0.4598160893643694
Ni 8.065796317963892 8.48980760475306 2.575279436264541 -0.5223769428157261 1.1487030722216087 -0.42722298591969643
P 8.414493027860868 1.612271718073847 3.393577385886905 -0.09595434131013796 -0.18749898358835448 -0.2713927941895326
P 1.8530591947252124 3.0275264441187395 1.5993361949647655 -0.8365670346764431 0.13906197113288954 -0.3288564356236401
P 4.655257756078466 0.880948701013313 8.23385759026705 1.49911229431536 0.9307992510891517 0.4894693934544281
P 8.555214275546161 1.7773914109428317 12.465483530548624 -0.8273370314377428 -0.3870574694444044 -0.15650999140600785
P 6.329449358978183 7.685292874776226 1.5485685912818794 -0.8272215889058012 0.29082364922063464 -0.4192487094649683
P 1.8582486190348837 3.172286929573865 6.116360547787024 -0.08972070169560033 0.37905156842079235 -0.5538066220799172
P 6.9641893104051045 3.8642735669718746 5.864869091045605 0.49948975380490745 0.024179939680313196 1.8978024629026864
P 2.3994702538445876 8.75080938342744 10.070051608815177 0.4802432468704697 -0.683549629804726 0.8934624623119065
