# total energy = -340861.36503368855 ev
CRYSTAL
PRIMVEC
9.28810070850273 0.00000000000000 0.00000000000000
0.00000000000000 9.28810070850273 0.00000000000000
0.00000000000000 0.00000000000000 13.59407424250401
PRIMCOORD
 96 1
Ni 8.095406573738126 8.357396035772908 13.25482123331137 0.004352620541740891 -1.2084241422313253 0.8111388244113256
Ni 4.669685607565699 8.749809010619838 11.077798124749926 4.400958566724646 1.2123800415552797 4.4599646129452095
Ni 5.078232013672758 1.1358511469385333 5.3640993254965625 -0.6997473226105111 -1.4145957625285188 -0.40521382863845695
Ni 2.008366057212052 0.7542476639168961 5.243342868099229 -1.580235998370569 2.3047942093771727 2.859297857524114
Ni 7.105434339506306 7.69117913454872 2.7758827020720784 -0.17291311535437962 0.4306466668892648 0.32342909396048164
Ni 3.9789481199703345 7.993822614214803 6.804092122776057 0.7671958431714723 -0.41166601202170394 0.3280707064975511
Ni 3.412011729246723 6.615886405466276 11.78787065198502 0.3964278549157108 0.9682836211878549 0.8348641930527235
Ni 9.104633041131862 1.33012106532473 7.818237568405463 -0.13333586728238972 -0.4713153482532206 0.33703562900032275
Ni 4.383639964204652 1.5905315502068198 1.492112975469594 -0.6840659073195122 0.258812900641993 -0.6174650794708268
Ni 5.026608748880711 6.709584767327051 3.694869696379519 -0.7049697473517149 0.3815118570358268 1.5227731282674097
Ni 2.874184246737988 1.5523853198180213 3.386351492895339 1.5471137618953033 -0.006484836393395283 -1.3984932005397013
Ni 2.4748609248228153 4.2030792827441585 6.708607659112563 -0.9365554368466387 -1.0036995387933039 1.5997781821685546
Ni 8.170454428995368 6.998899822204257 5.097832692998174 -1.1760588385267425 1.0817127222439888 -0.22061967740172325
Ni 7.113607868296699 7.940833998590724 7.468679891102704 0.33096448310557836 1.4314362311246251 -1.2363872031031544
Ni 4.614913676569171 4.361227776737358 5.740533051558276 0.6165772775492349 0.9602800341570881 -0.017945271624511032
Ni 2.6488363427465025 5.901845072717394 5.276784675383103 0.2740160907449926 1.7006592713563486 -0.04369975488079571
Ni 2.185360107927646 7.1001865624988385 2.1783958898741953 0.0063750502884083755 -4.565949856128788 2.9310375492612617
Ni 5.402080227689374 5.20881342420018 12.964886662104258 0.11524867076337571 0.1967428707841257 0.6315284995424284
Ni 3.105049282662988 2.805294402376235 11.615103615988184 0.2403063571973732 -0.20090960056730564 -0.7409050277957433
Ni 7.632840572807292 0.5861423257608543 5.020019770103547 0.27039263505979233 0.38067547717746053 0.9056991135874144
Ni 1.4710865726563087 3.2873747032941334 2.1972507346974877 1.323057290897889 0.684765247379382 -1.4940063405473625
Ni 1.3818093468230652 8.5333683953897 8.628580717696877 -2.354006666546081 1.8450686228440805 -0.7627547766809831
Ni 7.809295913670791 0.8424326090845144 1.496490457422903 0.41741525580065525 -0.5869926219135827 -1.1263938672014473
Ni 6.608771720178276 0.6938972995209242 12.926537951115879 -2.043613836944268 1.2905402921067903 0.6471615780939952
P 2.435823036747792 5.169116080961386 3.297338049127604 1.5764220239411173 -0.8879160785723804 -1.0762660973071208
P 1.8646234077119193 8.049736981621809 6.225433219908861 1.5901319173280422 -1.297597713174204 1.1582421220602954
P 8.605286160644258 6.613750142259697 1.7857312074929235 0.8806686529813479 -0.4103606629467191 -0.6793625883065719
P 7.6915878109882385 7.962549578490654 9.588145567208258 -1.329955303569303 0.028769873043840776 -1.1126778031669355
P 4.136557904111441 7.467986069965611 9.652268758189066 -1.6245175938967638 -2.4899444902276926 -2.2859997023784886
P 5.724943903010781 3.7897216403718463 8.397644163394961 -2.895859458698232 -0.058339873391473715 -0.8250821739652952
P 8.566136815358458 4.9122072101179075 5.2521386996498 -0.46991846790569386 -2.005368934530456 0.42662648998627817
P 1.4122743177690742 8.516166832526284 12.37164079677648 0.37836765497989033 1.1296977347636996 0.587235334052008
Ni 8.623119314368752 7.228538828810698 11.290708332828668 -2.5898549879721013 -0.2978453319541064 0.2911247254008212
Ni 6.32454654459327 2.949770811847323 1.7443647925227284 1.316970204163545 -0.6671102533017802 -1.3844320944609447
Ni 4.976239377709916 2.9370275374150294 13.108562437277923 0.6894536539939868 -1.0418894195994637 0.3543093284791059
Ni 1.7259706375039854 3.345991908062506 4.473225554987714 -0.3033932583555291 0.48750275664636045 1.2313974631980469
Ni 3.074547159313386 7.875473632570277 0.3282247671598342 -0.30669429770430406 0.4931854088534345 -1.5521960615142172
Ni 2.9475602438335584 0.7711687261331885 7.8979396910227795 -0.1286513173225268 0.4020043205622238 -0.6844831973625889
Ni 7.499249817588862 4.508146956744667 8.839424323325776 0.983239471166739 -1.408590436874703 1.7278047214228889
Ni 5.881392674539615 6.9070683686240155 11.43866592251639 2.338340163653418 -0.9565673611921913 1.2787103893513978
Ni 0.9430487484942481 3.3033037963345007 12.514705414911045 -0.5649189299429949 -0.13810860608068473 0.554394119152271
Ni 3.433736597247551 0.5289044039758602 12.828184393084939 1.5270596714579057 0.965888381482801 -1.1719245046433946
Ni 8.871167336955374 3.531493859200827 7.047834181786285 0.46894119159408915 0.8250544060511533 -0.876836423719451
Ni 0.6241529498765395 8.340175896707693 4.296420981530443 0.6328773002608391 -0.6369049333629935 -3.992154706742086
Ni -0.11729756862285327 0.9729007047809778 12.586916684153985 0.5879105057421616 0.33399015730577963 0.2122481655085764
Ni 7.615741179053754 3.574070513718054 13.132623262654642 -0.6821267813152704 -0.6644555892877524 -0.5316249437765554
Ni 1.867818514420891 1.5173134508265183 0.36702952390231314 -1.8321665700704315 -0.5154501337889058 1.7277692401992628
Ni 4.4789916080253 5.1151986552474895 10.557838161939008 0.9680334528502619 -1.2935510539086563 -0.9436331696290265
Ni 9.257821689245436 8.736740652656108 6.242915283419402 -1.428314654776508 1.1287556825654044 4.05181946959257
Ni 1.3497096701189777 7.018934255841617 10.688069411062566 1.717175266733501 0.043362426146035 -0.0033689164722329077
Ni 6.702079981801327 5.251594416937166 2.0769159570809315 0.5420289127186988 0.5369594686155913 -0.4840142838771277
Ni 0.05016317533085534 4.6922464046473635 0.9103750671546534 -0.05911428966365303 0.7226674217417941 0.5996815302351608
Ni 8.375349934809076 2.539357497459732 10.930234350540283 1.554259371801149 0.8383444382918401 0.6021744718603436
Ni 5.285681747233463 3.0759125101454177 3.6851636309409277 -1.4825399917789757 0.0870945769266629 -0.004054629685347856
Ni 7.51904276060287 0.36541989601665964 10.821508770236354 0.635738423858718 -1.319191894405212 0.544370673477998
Ni 4.861076214673463 8.853910045486566 2.5992824668345675 -0.6830253818701398 0.24437409950884365 0.44794787717187373
P 9.293766639721369 2.145913543413103 5.26093360239028 -0.32106676437589227 -0.8237043197811621 0.751591303864996
P 6.032528652354695 7.16354069872528 5.650553645297132 -1.661587245055551 2.1250625284390625 -1.7415020164043236
P 0.453157154720986 0.6671438536938252 10.06272851308115 -0.7818788991049438 0.767381219709401 -0.11776192410353269
P 5.4849393758019795 1.4462223265518985 11.068078127159987 -1.5133230385981034 -2.701271686583896 -0.1942285890027042
P 3.052162836148788 3.2496835898493455 0.3902098373138847 0.35144820488122697 -0.5869149745981118 -0.06501137187437836
P 1.963606698983754 2.1825086609519064 9.603683631200813 1.3741517955808593 0.18029758074390884 -0.04829740155380714
P 6.684404725792103 0.5108093258060387 3.1980742572086442 -1.5577555578798656 0.9196278078533645 0.06888268190432653
P 2.572831813096749 9.041864055262005 2.182297821061518 0.5078489244028802 3.2925372248412197 0.4108602282909569
Ni 6.356915576223404 5.66195200271937 6.89087735113832 1.062682445085415 -2.488700590518262 2.197697735407286
Ni 5.540092118935333 -0.13520967120498084 9.090561568271129 0.522566433118713 0.9188837305984885 -2.251936699256509
Ni 2.8057959598247364 5.380346071587648 0.3967059350820672 0.3866239814514116 -0.09910240002081643 0.5368460829661786
Ni 6.544674535879981 2.856100314289244 5.562368700129513 2.0554720218344342 0.7219264298107115 1.1360288191880499
Ni 0.29120146816962483 1.5621285376602052 3.152193825201937 -0.2157919169957767 -1.3333635579199035 0.44328878113330755
Ni 8.457057358410308 3.7620430996952887 3.178689061824066 -1.0049871472564758 -0.4783090059622343 0.25486111508309656
Ni 0.02776863525526926 4.896259540875744 10.499859049702339 0.762320517357042 -0.34417172582447175 0.06860166032879798
Ni 3.1135386068839184 8.28903561316235 4.503308784986808 1.6874499717549263 -1.1929134481902357 -1.9148776732174186
Ni 2.319359539585595 6.672980361687349 8.611302063596005 0.4513707868104936 -1.586222812081623 -0.667763570615063
Ni 6.619127952679739 5.241182455830314 4.605278200697406 -0.6852727831434198 -1.6179751647925553 -1.4722784619519675
Ni 4.808923528130218 6.783759541099864 1.4128325326330546 0.6973202012262572 -0.5449298884155775 -1.4018109520590245
Ni 5.973382025835126 6.543337049350644 9.130704740353034 0.9202806109460151 -0.2298373393452493 -0.438088982099923
Ni 4.156100068401197 5.646663788640976 7.844678005232293 0.9110439228390956 -1.2702756283204832 -0.263889543833952
Ni 8.594075422860163 6.34004838499232 8.544759322331222 1.0304654940332383 1.8009268953298598 1.1404955967101518
Ni 6.086994076021584 3.275523086548064 11.011091912909333 -0.6088218019735321 3.5758668796776543 -0.2231956656590156
Ni 7.845881743108697 5.976094151297393 13.229182359592054 -2.0768533157236875 -0.2321893845171937 -0.012785324690126366
Ni 2.323316270568217 4.491874203971067 9.89319652262715 1.3766635062591195 -1.3734375431226542 0.9481462270080316
Ni 0.7363689984980021 6.594802416427423 13.259742069167224 1.1563965842111246 0.6805404106647569 -0.23498803030825335
Ni 4.127910682175241 2.4220487831158004 9.064963562195762 0.7961570062905127 0.8635916428944029 1.1371493059457383
Ni 0.49350652264283124 5.650527638614616 3.6964737514046333 -0.5944043409966215 1.6380619082401016 -0.6544928216480858
Ni 0.6196305735492188 8.34247934573044 1.2549589664264407 -1.4756736036764455 2.4310996521753423 -0.07848600932204547
Ni 0.3877048365016473 6.014491160410442 6.674011340887047 2.0367631325710214 0.6676951792709727 -1.3371618486200714
Ni 7.0017698453817925 1.952943959152651 9.276936600893878 -0.9912456293006671 0.4618403188832498 -3.294731404279061
Ni 2.816635173572905 9.190993803283078 10.524246816230672 -5.635938605067629 1.7337866500379364 -1.761043685981677
P 5.203491342385526 8.24280873499214 13.157270167198034 0.08632093198543198 -0.8736366858352309 1.0331039600973497
P 7.3613215192509855 4.9567715182273435 11.210639330225874 -0.38541736273782007 1.2709474575765274 0.9465498290551893
P 3.5264504204131186 2.5932099064673415 5.627321318520529 -0.7650633702095018 -1.2696127979255036 -0.42982905608397587
P 1.0736394471225674 4.798929531563784 8.347237639820573 -2.096084653149474 -0.08554265905851074 -0.9563773566685723
P 6.575065202018805 1.1353867418936248 7.081968881397161 0.5488387365516806 -0.7329752314257054 0.5812271801847152
P 8.870275679269147 2.6235819964043694 1.060689976850334 0.5210021739553865 -0.6501296595833835 0.19922218556255367
P 4.560281067086114 4.892535012415577 2.5183701046702187 0.7652937410527529 -0.6560529670463541 0.141906125449904
P 1.7931143188968817 5.173787995713168 12.01018784865343 0.13121804960843853 -0.3155363214759662 -0.7515604506270606
