# total energy = -340874.3978468058 ev
CRYSTAL
PRIMVEC
9.17556274034179 0.00000000000000 0.00000000000000
0.00000000000000 9.17556274034179 0.00000000000000
0.00000000000000 0.00000000000000 13.42936355058364
PRIMCOORD
 96 1
Ni 7.573555493808641 6.699252807511549 4.707059178883198 -2.5945415948144928 0.044699399789903664 0.3829406190625534
Ni 5.103879335313664 2.7660101378481956 12.98074223627799 0.009710285309228437 0.5404687673204305 0.6423201908412938
Ni 7.084250251147966 8.24940910574818 9.388951623849811 -1.253275751328377 0.2806433662535231 1.142139560071478
Ni 3.718350986592621 5.873626482388252 5.701691114580711 0.9740269514295354 1.8314181219401813 2.5374769885910173
Ni 2.1575235087056366 0.7633150774831031 2.1002854297917364 0.09915150809119698 -3.819483017974551 2.0051781586758888
Ni 0.051221662321693416 1.8361218915151314 12.715566633413736 0.5251141392412312 -1.2585393137201617 0.13460599224406494
Ni 3.3302246760079925 3.477657620652763 11.606354856027675 -1.1347183279067425 -0.020539514714248495 -0.9962636513405485
Ni 1.3243089930657086 0.46815740529340527 6.744079102493349 0.3187394017942962 -0.47439347295791207 1.8464343928433555
Ni 6.677919623773742 5.1235884444185285 0.24635652336049205 0.09980713939732488 -0.6883311103537694 -0.6173537507039432
Ni 2.0902024037231444 4.747904197123563 0.11953739832232686 0.2508712771974131 0.28451750449694874 0.10550496111305054
Ni 6.698849082744038 3.8500294897415577 9.586981374982923 1.6384771414006492 -0.2879285870610267 -1.2205083270893688
Ni 8.930483612976673 8.697424315367936 2.974603714545754 -0.6125650710660483 -0.8354082384816516 -2.214323259779109
Ni 5.088005611500155 7.247125668150041 4.050940367624635 0.4328989532585512 0.1251700436421457 -0.061166287096675306
Ni -0.0008056144224427991 2.442479790065358 7.887615743124471 0.7425389638547405 0.08047244362445495 1.8037875047071066
Ni 1.6036957077463552 4.773531544297627 7.177740061515503 -0.01229450109663689 -0.8018550851165546 -2.138175925892569
Ni 0.25219768670134723 8.746577805812425 10.496807253039549 0.12953474836874465 0.20575535869538114 -0.23294503173629558
Ni 2.056335401066694 3.7594575083755792 9.135942817388282 0.6528493725073918 -2.500422249830565 0.8560341422621193
Ni 0.0763324253046001 8.150992018104429 13.115385363799263 1.0841401007385585 2.7048092674235096 -0.27883382384861005
Ni 7.783602479669239 1.5122887501566606 6.160062782043418 -0.7711455718478396 -1.264534869181964 1.5811384555801802
Ni 8.9680942452955 6.260752656617 2.9596970950616925 1.9932376984845606 1.1759199989560327 -0.6865943301683207
Ni 3.397371445295423 6.009791835794301 11.275092261390709 -0.06340237551604565 -1.7078907561077812 0.3026119001048143
Ni 5.146004344578298 2.9604861934709192 4.1899886828932305 -0.06017384127641895 0.4965525255534545 -0.2339004536710294
Ni 2.5693502982557526 7.093260653913784 13.304444167087018 0.3241369186607837 0.7582028956442426 0.04623460548750747
Ni 1.7843441900818202 7.974821210463179 3.820506198561011 1.49764059486584 0.15774720624721864 -1.1318448630136895
P 6.468212133740368 2.1332541448404747 11.015650467781404 -1.66965048167966 1.4267683933353106 0.6119091826496043
P 2.16601090438627 2.4228991388410654 7.197601484964474 0.941041240532134 0.09299243046833662 1.2618938320146913
P 8.58506954768215 4.573559326499011 5.066899064165928 -0.09651869845404022 -1.5228821430414483 -2.156051006400777
P 4.784147670570591 0.05374861234379759 9.173517665011806 0.44676722660021123 -0.07604757508388194 0.628954311057349
P 5.692317359524132 6.924237609770062 6.285747807507392 0.0760167218459465 -0.39757276715343143 0.18222487967360873
P 0.04815151897602872 3.76199913929832 0.447200419634415 1.2215043724540513 1.2069377874937857 0.2691592768733235
P 4.467902719728752 5.238117820511136 3.8743979496860175 -0.6344171339441332 -2.3914231595213264 -1.626006262627148
P 8.611045566246336 0.2707855420200787 8.401235309908506 1.1598176940775315 0.3260426203239288 -0.7551700223551897
Ni 4.026282877448889 3.69157669405631 7.107893841623485 -0.2162719419559888 0.5402458526763471 0.3562443407182897
Ni 3.192848148299409 1.6550146310347673 5.242823966721512 0.32845431508921497 -0.668095757143501 -0.12349882658730987
Ni 4.422575439012721 6.540855065203691 8.076983762881888 -0.39583110187197634 -0.8957674562959992 -0.4168966642930239
Ni 8.127419997019514 3.906064652359532 11.765734383565619 0.013619390555647511 -0.18241025621153747 -0.33138280158991956
Ni 7.745872565032737 2.3722775583329 4.11247444508737 -1.2487254129535332 1.745292593795007 -1.2452935044538487
Ni 0.7494911744210039 2.874942420573035 5.67546368559312 -0.4017672648507532 2.4778538776117456 -0.1983904336898777
Ni 4.103073163342098 0.549965806535521 7.189785740487974 0.4881424471128884 1.891387303404962 1.6211761882283562
Ni 3.329518157664848 8.208339286216814 5.73942836966753 -0.13106764007350333 0.1161074192192452 -0.7600787725107168
Ni 6.0861692213571015 9.164699031510557 2.876287558093879 1.4060118775142494 -0.09861131931701081 -0.43093154511953524
Ni 7.221434092035691 3.5433179487507207 7.1999651099669935 -0.20255484948021246 0.49285630764879 0.8749975707384995
Ni 9.116371341726886 7.296352563097712 8.46808662607062 0.2871842526958344 1.4371345670609832 -1.0147167158394137
Ni 2.4352310953759524 1.1052332533134956 9.672337966397688 -0.2190731588502098 1.1044759840824334 -0.6634855120649992
Ni 1.4261852679219997 4.382652564843603 2.936948121968727 -0.587897136005723 0.35065527666628643 -0.7674326417726267
Ni 2.864243714233988 4.087135210588304 4.892572544667172 -0.4294642165453894 -2.1787217085254156 -0.7932619441309048
Ni 3.0989546131643615 6.168675882935753 2.3412614030688523 -1.2857780948314566 0.3635231337678901 0.524249991468723
Ni 8.8926344160225 6.025904124243158 13.004767530170065 0.21415643827488276 -2.6256370306677166 0.4120483350617871
Ni 4.199820298538419 8.47376996972963 1.4324163926860194 -2.6463166705042553 0.23944246653518117 0.6846595750394532
Ni 7.25703527607986 7.44025291602676 0.8671650159187506 -0.008274838414282523 1.0450436489577293 -0.3323711336451179
Ni 8.367929851701412 1.730043208851564 10.162858971142343 1.4582983456227918 0.43822499345715493 0.9774066665350457
Ni 7.98604292388741 4.339903617301906 2.4474612031626726 -0.12604421871698293 -0.967506119591882 -0.4802561023862761
Ni 1.3268322728626534 5.919073045421955 4.9327936246304755 0.04293973678631959 -0.5496746021894147 -0.5459069076168662
Ni 1.2773668132796336 4.794314194261555 11.156685292417414 -0.1514983971240294 -0.225623815484534 0.4383921151626386
Ni 2.7683866086387727 8.211596611045598 8.522973008213768 -0.7990083596963788 0.05125622707181496 -1.0547793881882546
Ni 2.1545689774524863 0.43424635993504423 11.902108939805743 -0.7358666940408874 0.28609899005145567 1.5201107509438982
P 1.8944142426060095 2.483274342709785 3.73835921904796 -0.48314602233956144 -0.7706318654362148 -1.7733559276901265
P 1.2133672620662108 7.260980768125993 1.512978752486589 -0.23825718797782838 0.023833869194804114 1.2655409418489754
P 8.700709166885414 4.565631640155155 8.884181887480878 0.20578698326426492 0.5141596971122564 -0.6584188961753693
P 1.8723561893992613 6.975152808290963 6.811480952429344 -0.6046589288450941 0.3416016511044504 0.678457045773167
P 7.670284277879164 0.03949896316323191 4.553520814686109 -0.6954409819256733 0.0057088774593192 0.6337216505390054
P 4.412730060023187 4.9394073703673405 13.261282319214912 -0.23056881819463518 0.7895724110944595 -1.231777472245285
P 3.3677343771349415 1.1998424823545857 0.2818393426432773 0.6006991728663976 -0.4326901796818548 -1.4549435702179458
P 1.0961769727331878 2.5781588386378145 10.915037667936167 1.051105538881093 -0.27654554203506565 0.3356549466027122
Ni 3.6219525227864247 8.182023771825403 10.712577037479619 -0.5141632966566823 0.8803408373282839 -0.46182257827143686
Ni 5.15094997298031 6.489701302047442 1.3832913464865149 -0.3208001409780668 -1.1671533085069965 -0.04580163171514693
Ni 4.419143778488877 1.6731730700098733 2.2005890131673143 0.18774400971962504 0.6937512529280762 0.27615987656087276
Ni 4.378459332599225 1.201108710034507 11.386234019661384 1.0369117638792142 -0.6728502411093509 -0.22962779443760456
Ni 0.10443258667966927 7.895782911659964 5.507288463461171 1.4589200383671908 1.313151344638087 0.3383291510007657
Ni 5.6514861046281135 0.5803690341979836 0.36041427552014416 1.588094575183039 0.5423909240438078 0.12628847351730507
Ni 5.632584445058271 0.27810121831863954 5.252761101340026 -0.3746364700722322 0.18042562168134088 0.3128847427857321
Ni 1.7186379841693729 6.042466015274014 8.995108937579738 0.9452197973898561 0.9236256161588481 1.7210154664151975
Ni 8.734585345104763 6.27521334374422 10.610701680179616 -1.1283805586141726 -0.20246151843545776 -0.40742034937147253
Ni 2.0550416466980783 2.68715535030294 1.264058576852401 -0.3160060620235332 2.1113266669102093 -1.3697467245346282
Ni 0.4620987811118679 0.9927225010584433 4.689654971178306 1.17386671597143 -1.4526614590519886 -2.1721078027533234
Ni 6.934422484586822 6.034464924426975 8.306907770648383 0.10200157594548241 -0.46954797194015263 -0.7220148757594598
Ni 4.690107326429176 2.6366622276753464 9.217055710962729 -0.6002610568877146 -1.4534016796521227 0.5475871235327666
Ni 7.350057132739599 2.779039437163329 0.43733760707537433 -0.3468202191909124 -1.7391134615674886 0.45871462877007446
Ni 5.597148421146266 4.579780358143843 11.313178187867653 -1.0472069751576352 0.12928740824462895 1.865792228544677
Ni 0.03071978458244295 1.7701679454044386 2.31512848237911 -0.5390536321404588 1.2614382325345115 -1.1223474650462155
Ni 6.408167250135976 4.615170504241359 5.472640620402102 -1.3450294242936063 1.5541727256246136 -1.0269469393570183
Ni 4.109936484389789 4.031769864061882 1.7063619985681628 0.441220328640053 0.1703983193523259 1.2789872971618683
Ni 5.433630714741332 6.635262431861025 10.18292225697507 -0.05439194448731924 0.08484049078516356 -0.09582912858618335
Ni 4.94495858592062 7.734935294058343 12.57802311046041 1.3278408283294616 -0.5641398856851252 0.1759444459815357
Ni 6.791834237152186 1.454794673037907 8.5567877101617 -1.9205659818514473 -0.3041972423140632 -1.0760861200858307
Ni 7.38038236811743 8.206889547278934 6.888363911507823 -0.6236426690364485 0.16549651117533434 -0.20101013070091187
Ni 8.72954796107377 5.922623988263474 6.579461246096948 -0.5425462186747494 -0.4882121240085592 2.529423007938289
Ni 6.963811812549057 0.19883444799926486 11.930660538875392 1.1303870475212403 -0.058309534374170545 -0.015397565501992838
P 4.133536032163398 4.652872892189166 9.46505557763825 0.2703453267616247 1.517377154062819 0.16485373538501286
P 5.354225393422198 2.2277716182525853 6.247877506758553 1.4888409942963392 0.08414500738003572 0.5931131329890237
P 6.832500331916041 6.418159438131878 2.710650296659512 -0.03574913257515134 -0.37962338176386234 -0.6741378495725229
P 1.4702004431436186 7.224324394348557 11.422627054783646 0.38933443840403914 -0.3579700651601448 -0.3223088643131094
P 3.8933106199313374 9.096717285999409 3.6311657054922883 -0.43984350289718444 0.03662279342935628 0.1766432718207732
P 7.9731145557641545 0.36390832987169563 0.9555385324143721 -0.32174682116205233 0.8465295452057936 -0.24636233358346601
P 6.959260733351659 7.262788354016895 11.50041013658242 0.3064538995587239 -0.5241335204955166 0.768916939627637
P 6.295775780198597 3.0120345058317803 2.247833986529022 -1.3505421265817192 -0.7359708237189196 0.8174218292065599
