# total energy = -340856.5845840304 ev
CRYSTAL
PRIMVEC
9.45709903414595 0.00000000000000 0.00000000000000
0.00000000000000 9.45709903414595 0.00000000000000
0.00000000000000 0.00000000000000 13.84142037469272
PRIMCOORD
 96 1
Ni 4.445801121864642 6.251955704185494 5.609374203091397 1.7171287297662814 0.8110732612807129 0.24870563700466197
Ni 7.0723117509926725 6.889666799329902 0.7660183934768428 -0.03603632479826697 -0.6748302476538572 0.41611813425578664
Ni 0.5073998375484029 2.140188773678006 11.851715820503195 0.5877822076944135 -0.5657856488186643 1.1795323988976396
Ni 6.822606510807109 3.3490235303906006 10.299594992548826 1.122156432081332 -0.06976971249497016 -0.003163228219330036
Ni 8.734037518432675 0.6799275847743262 10.154951501522232 1.3673304017836516 1.7441019159210158 -0.9587785099108971
Ni 2.961812071741997 0.39836326970854985 2.8169784930268826 0.22840832020820662 -0.054455193625086856 -1.2543409593680976
Ni 4.427369236047279 1.9760702788219129 7.122587580331959 -1.885245195062966 0.7482725239044081 -0.5415519730822802
Ni 2.342305892040598 5.4473362700002195 4.932071908980437 -0.027533429533578388 -0.15102402859077216 -0.7180893154528084
Ni 5.201489526178681 6.042689019030739 8.628159621635922 0.5690890021602844 -1.2933538502961854 -0.035513362415261415
Ni 2.1791047357808537 7.171100606430424 6.850382010368728 -0.8088400010748199 -0.4925755431835775 -1.2083421240404801
Ni 9.079987654443435 1.420238746225854 0.2821118810939064 0.26766752281914546 -1.3200925518426105 0.4465890491511341
Ni 7.444789049506102 4.176926342145063 0.6504592645039802 2.3529869670323156 0.024396940787125725 3.638538547675263
Ni 6.072828793325216 3.8998806289487256 6.388286405251356 -1.8710280230223195 -0.592827740538121 -0.07016617660244046
Ni 7.4949116738427 8.363016613154684 8.885582800259428 0.4262271976653305 0.45908023963960937 -0.26163391503055583
Ni 1.4710233674876505 6.959261590366319 11.702755163814404 0.09467033239139179 -0.09965698697270578 -0.22478486452300642
Ni 2.1311667012974183 1.5924714319651168 13.542874916947497 0.09567537661713846 -1.1158659710869299 0.7044827804129674
Ni 4.056953585100901 8.865075081226614 9.630168570427964 0.34926945206235327 0.8757113089760724 -1.5622272204979741
Ni 6.945331283640318 0.21353372819261807 13.224743783153441 0.4251074822385905 -0.020073116600791235 0.6094969736636858
Ni 8.109254277527535 8.74462946923588 5.59099243989837 0.4611152677917672 1.4901823388155822 -1.8672356458594228
Ni 0.03909753840233142 3.236701566381968 3.0691548731632303 -0.5554786104657015 -0.46132378425814746 -1.0843180210773196
Ni 4.835717310807636 1.9899438429543255 10.28085291388651 0.34596507027946866 -0.05076488925769322 -1.6203966297498544
Ni 6.320604785328768 5.700360951910716 3.294755859592357 0.646183530451442 1.3628232579419175 0.4185375423305566
Ni 5.695916115412944 2.9322113520866107 13.69245879645587 -1.5846377269826903 -2.309077410133559 -0.10804881058082683
Ni 7.67115416952889 7.871663581073138 11.758244691794589 -0.9211131341496394 2.200212788519656 2.474797093063293
P 2.6370269231397843 7.108012299458833 2.0888499664188274 -0.29347291391802366 -0.7491538980680968 0.4720771661199096
P 0.7230633044203797 4.328977578764647 7.3335300634173635 -1.3709212044587036 1.553023699621835 0.810163862092566
P 1.1699093375108154 5.130920653952326 12.92038407682334 2.000284063808381 -0.47331720917459774 0.7570623542818962
P 3.9569920493956507 0.32073278171009356 4.830614260224235 -0.2965911478320311 -0.022603596332128818 1.3858734548931617
P 0.254501880763587 8.194056083645698 10.083280877270367 1.5953147470805622 0.014580983137968438 -0.07377677677183422
P 8.371537459291906 5.256028615716256 2.4589979814654455 0.2868682641173124 0.3651100186390357 0.26243455655498027
P 4.361831540452446 2.417499285644424 1.5358026037481822 -0.19528762639483788 -1.0072427760598717 0.8509140474267345
P 6.747422574302214 0.27759800777393334 10.416375032993738 -3.3640524592723873 0.05057257074122903 1.3919016633651125
Ni 7.834818723636274 0.5617081738720515 3.395438971946075 -0.1006885135610137 0.4233997555188644 1.7654443861525335
Ni 2.5740426442564384 2.7872245683688073 10.222234977579808 -0.8464876362242648 0.7886123611740354 1.5311389837336018
Ni 3.3057478456803615 3.8286119314014444 0.31489396882982673 -0.8944597932281693 1.401400089773851 -0.8410772638419708
Ni 3.133798872909042 9.343169260606292 6.853869788454641 0.7162715455177793 1.2042198743419905 -0.21066925105723072
Ni 0.2591888189940053 2.1910868801269796 8.033781899505232 -0.37708801693651833 0.0038638538307804427 1.0869305189995022
Ni 6.887037725826963 6.059957681679536 7.014403097105827 -0.1348777578482129 0.6595293556307286 -1.6006063344968047
Ni 2.131526071056813 3.126810076798713 6.517481725173453 1.9124785768576225 -0.6210540823736659 -0.6806468543356342
Ni 8.126021713932968 5.018381176668269 4.970980305404139 0.358846297117511 -0.33549836642018993 -0.4653645299864243
Ni 8.468907749889944 1.948048894688076 5.189203808956855 -1.5608012866847247 1.5201757998538787 -0.18610390301304075
Ni 4.101279007792528 7.050768479626868 11.164365358777587 -2.5937622934463067 -0.37043065952100074 0.5441220478023017
Ni 4.824122907517698 5.5163068925071626 13.152809305841387 0.23641576389371544 -1.6029085002674202 -0.9818248502073994
Ni 5.095144448694714 4.970660655460257 10.654405484548445 -0.07591207794728216 -1.439332603153566 0.9622325298977688
Ni 5.08337981762401 7.777461418617131 13.159342269783222 0.38632933302912825 1.0188394797585358 -0.17206053754609724
Ni 6.018053276314355 8.517744208771864 6.680824737917168 -1.2096762694708716 -1.460654247449478 0.2938832619825648
Ni 7.311254812594266 2.0566920472123815 1.9011189869507317 -1.1295972046300935 0.7495349355565994 -1.122718732342705
Ni 3.150367710236913 5.14236374365936 7.311813727141113 -0.08336519179121771 -0.40297208379213173 1.1724886046769807
Ni 0.06365573290747734 9.136020965612179 12.164615287168383 0.8321012855956056 1.021143959521996 1.3656782108922092
Ni 1.356261471954708 5.059141273062747 1.8538921263069403 -1.2377203200922813 3.3444241435184985 -0.08040276672878412
Ni 2.149712072301959 9.31788097806364 11.027971295148884 0.48287837050047155 0.5666251140008242 -0.11070347459485451
Ni 6.179561611865372 1.2125892249883736 5.747041192236272 0.4244744766402819 0.426212285266995 -0.6773239606099883
Ni 2.195087232974976 2.0069760781298367 4.387356250468385 0.8734543946210956 0.4099012068117973 -1.0390403801864427
Ni 5.373741126115807 4.313666535594656 1.8069007474265415 -0.5324420403612121 -0.373174540814725 -0.32386746704948094
Ni 5.172626460239947 1.2228501773289788 3.4312047743948626 1.5398905046739866 0.6307165451640944 -1.7064787062516027
Ni 1.1967864126739487 9.154604165012444 8.283771798368633 -0.4324333264760424 0.4571506267170643 0.4536420993431735
P 1.10178039680877 8.64630401164577 5.808427221400205 -1.1207916905233215 -1.0511790724315058 -0.9092963440203695
P 7.762112547051416 5.916020635943121 8.87975533589788 -0.8847790756052957 -0.4341569940353685 -0.2198987400752987
P 9.419809590346627 3.0400317370038814 10.132279052544014 -0.9624868120004199 0.6622143586620596 -1.2446491860016304
P 6.801450980497492 6.98348122072972 5.033294075973246 0.0285029925356993 0.35970838800749017 0.06794114392666363
P 2.9797994739095826 8.786354189721363 13.061719474643715 0.03199737884220296 -0.06432411599936665 -0.3942460167730436
P 2.912871584771829 4.99067187679917 11.164628266127881 0.0002483685653802174 0.19804204921152346 0.0689839833688812
P 2.808852953624995 1.3466341452425088 8.851588312440498 0.8190948460336086 -2.266553934949051 -1.7321252031751135
P 8.637546738035262 7.815573527310808 13.629162433307787 1.1359138908767406 0.6155609204695786 0.7414953530815745
Ni 8.135771982931274 7.89015220948409 2.805863564652769 -1.447075737434095 -2.1744163962818424 -0.11929044493291714
Ni 7.920556782548648 3.996503808731179 7.601154614658207 1.671818692975572 -0.14798832708824192 0.9416354224727074
Ni 4.8362374512488655 6.6459100743722095 1.2601972067191018 -1.2946088057492091 0.1489692029442725 2.7764985655386956
Ni 6.17512623246653 7.254152849246272 10.474840710007642 -1.106988723201958 -0.9205441490200469 -1.6049710392234036
Ni 3.1465659564664774 7.781962997708494 4.0237837563087915 -2.9535987223912294 -0.6226083142346631 1.3339870504365157
Ni 2.7401755011849267 6.479512418673641 -0.00028655009762242804 -0.25272915634175835 0.3099439149898533 -0.15149814001371328
Ni 0.4157501460939899 3.563415963166193 0.39437804821884387 0.33980907798040183 -0.041625131739954115 -0.7822807625290527
Ni 1.3403357173541741 8.35552659080099 0.8730462735036593 -0.44852123317684045 1.1123666996844197 -0.6515746195600262
Ni 6.14965826504418 3.4664712420200705 4.112230328355128 -0.2720039454109702 -0.744153359529712 -0.5693515117930518
Ni 4.775702560988761 0.5193753619252768 0.33779717102197176 -0.4807896062922429 0.43885259973882484 1.1522357679652158
Ni 0.6918331266191076 6.956074548026426 3.7937398248016776 0.4904638961572134 -1.0788595690659097 0.26531702030909793
Ni 0.8784084485977819 1.2607164014504377 5.959977231776423 0.21855431023226232 -1.7191403608796714 1.0824179758411294
Ni 0.5606697844093802 9.129325339568723 3.1346112377072526 0.8378438445063378 1.37389339971315 0.8888733002793272
Ni 8.60540205876732 5.495539103253735 12.913048205182227 -0.6301987249874115 1.249884466258641 -0.37484267254576736
Ni 8.861594868819846 7.551427297056945 7.21908970924809 1.6899028041707926 -1.3811642223429506 0.8307198318670468
Ni 7.693018982258364 2.5154842876730035 12.550721210951902 0.25838532618627114 0.0741848108435303 -0.7184868080015433
Ni 8.67719089675583 6.434458799364293 10.634321443547762 1.6103438734995428 -2.206055106233046 -1.0995538641904676
Ni 1.4416969037012761 4.628304217043442 9.394490099377501 -0.6192671656765721 0.5935368507900036 -0.11659078661356695
Ni 2.251602856189221 7.050503680856788 9.170370094641036 -0.003561492099013221 -0.0801932218211393 1.281703924762083
Ni 3.80476112789637 2.669247259199177 12.259041582869065 0.1979543745937236 -0.05546923671189801 -0.6377654815910759
Ni 2.5824689194043455 3.4698852547343177 2.417265695300817 1.0280532850473196 -2.693555805996877 2.0660024890521127
Ni 5.235809338200852 8.024187672639293 3.835831480725701 3.034627809850103 0.7960482486267902 -0.7905597147083933
Ni 6.09251847330046 1.0514591733946137 8.195836855374488 -0.6559056428352124 -0.3830506622778564 2.1322659881660377
Ni 4.791372973918145 0.22989640076378387 11.787173957425843 0.2894445094849209 -0.12193148210019 -0.20023931397315836
P 4.164528085445954 4.142474130737852 5.033432149617645 0.27808691838025656 -0.5139318973721665 0.2543276111771297
P 6.632168909624837 4.488689065518692 12.705067685482145 -0.5906140207162538 1.112107532485762 -4.308285210158625
P 7.970669949786314 0.8123770924387286 7.590081297519392 2.2513761987673484 -0.3209307530186602 -1.8568676723615376
P 4.599166895235696 3.8060094649553187 8.272532036288625 0.8577896915006452 0.0892509611480334 0.7458546584915348
P 4.080407190450855 7.526129557415361 7.842050567189141 -0.5678754414681575 1.0066542505462532 -0.9882592929788335
P 0.8019449666074646 3.955308685785856 4.87033880428572 -0.3739070481053754 -0.22969361467853344 0.46077305396100005
P 1.2396459850312043 1.1963892145188286 1.7813079462982966 -0.5959593441885671 1.042761280681456 -0.41011126594007435
P 6.405397134347998 9.294039631657496 1.9534952379626884 -0.09137134992514587 -0.12752594546883197 -0.6618186658855376
