# total energy = -340856.66337663325 ev
CRYSTAL
PRIMVEC
9.42904504167234 0.00000000000000 0.00000000000000
0.00000000000000 9.42904504167234 0.00000000000000
0.00000000000000 0.00000000000000 13.80036052096546
PRIMCOORD
 96 1
Ni 8.039618756599296 0.04126527311091283 1.9129090447926702 -0.3903106862743794 -0.5495069662632988 0.08914914546284647
Ni 6.50881327959612 5.740921273179973 7.138636721064873 -0.8152654449851894 0.09373882171605791 0.9543019621967824
Ni 4.573831783056504 5.541214097307307 10.754304024390551 -1.6539538968800098 -0.08518064773340168 -0.3974403553406252
Ni 8.055120106794513 5.72451473465219 2.9570862171121663 0.6193155024160044 -0.40896815347456666 0.19438336941301362
Ni 8.910211922581313 6.945708085736818 9.544233174942345 -1.3440611468430659 -0.6962117986534267 0.7847659908447517
Ni 7.841740815482028 7.917192034619566 6.20643606000652 1.9777172342514584 0.9522047133481212 0.29044466861466106
Ni 0.8116135457836628 4.140925463006182 0.1953981022478399 -1.1592155417171583 0.9327283497910646 0.7532648349126769
Ni 1.8217858097430464 6.419416502709967 0.39838564292154904 3.2542149322222533 -0.5945508938768147 -1.0291665727161565
Ni 1.8405401805084258 2.188641668651347 10.287671895715992 -1.184517767927373 -0.4795405643764903 -0.9270397840467196
Ni 7.280043167988611 1.1760659410880945 3.930756761560773 -2.535709869388265 0.3147986719789933 -0.08754760530368148
Ni 4.990482429301139 8.95393440485334 12.334127335411276 -2.3442650137782852 0.7248957968516807 -0.3266424586914568
Ni 5.635645984293368 5.444877543204805 12.80575497219619 -0.3754196280951599 -1.025364682471563 2.241143722406063
Ni 7.851415015786341 5.859265218618019 5.345376601556367 -0.5412120732443583 -0.8355445069491998 -1.9710058836695539
Ni 1.106536162292767 -0.022465642928905245 11.985806150516803 -0.14201102645888444 -1.0730054242779778 -1.3804363430379902
Ni 1.0292934245803553 5.74627697081433 11.094123982194995 -2.6711902938174834 -2.8688752167999043 4.07218029263711
Ni 9.205633335577842 1.7871812141126082 8.194695433153829 0.06808486859337952 -1.3451147849185607 -0.3319980665764153
Ni 6.086307196325192 4.141378057172466 5.3948781455891295 1.28452133960622 -1.4102205162789583 0.9897507899226953
Ni 1.6493097162084478 2.2999326883314732 12.896037136420135 -0.9221143217206441 -1.9142325834342517 -1.797544609121188
Ni 8.67861571607591 2.2557293247577688 1.4957662023922025 0.5819877124998235 0.23874826868163396 -0.4895642671610795
Ni 3.6224599874379866 7.913024396671704 10.311256766301936 0.6656120714896988 -0.8711221469434933 -0.25783562433038815
Ni 3.4185380283918043 8.86261410276048 5.731579918168781 0.018240691377742778 0.8719603265740724 1.4528157252416656
Ni 1.6566549423654264 6.255256826980831 9.299042171167198 2.57618468957386 0.21113770605321705 -4.484869089496373
Ni 7.04793779304614 4.243984926287025 11.395013298462938 0.8978978723754408 -1.5467527790114588 -0.08817058359966107
Ni 4.5055466382184575 3.7071610998489475 7.073347183864915 2.1164822429692194 -0.24414912798223112 1.9695382979850917
P 7.346385929529691 1.7082978225474184 9.962563134124794 1.4283830461205982 0.9756182071760553 -1.1041725939094016
P 7.5795096413463 3.573919263104064 3.0081058374110055 0.06893718929134579 -1.0171248110602742 1.3830616964759792
P 6.291417215057869 7.429182374824209 13.147189182527045 -0.20319891082211453 1.2107283648844698 0.8029233784800688
P 9.437059819270887 6.1071548151096335 1.064888069949539 -3.6377263361866126 -0.9073132521520697 1.8434578267135349
P 7.209655346086371 8.295985064663599 4.139225406169079 0.11205304664421346 -0.08424142374858395 -0.5926732172381276
P 3.2867199774616878 4.274799045774837 9.18833575228519 0.0988648300887136 0.36514344298013246 0.11617606767365153
P 4.551334081374154 6.961935472407113 6.79710539156917 -0.9216569224682514 -1.358555483804499 -0.7239923112008048
P 3.982753230935174 1.4552788255045899 13.476741853088441 -0.7509809239745067 -0.4550883448713969 -0.3556434739094972
Ni 7.046466862005718 7.199302254532632 1.3915865685498086 1.6192936264936626 0.500706399820828 -1.0431741998491582
Ni 3.3637552761812195 4.876617280300274 1.9822285558815782 0.324079583060287 0.46819300057415497 0.38737860022924897
Ni 5.7085042160199055 6.38358613121251 4.500021217771744 0.25094918162320007 0.6454032006419917 0.6065954837461747
Ni 2.330265926517609 0.7647879647590525 4.308583314478887 -0.6676131610801276 0.4068099694809832 -0.6968823423578901
Ni 0.10316695439533445 3.906557117232293 8.729859747648865 0.397068059602871 1.9367240796685488 0.013799881997569782
Ni 4.433131571613071 2.35794960302196 4.0114891888761335 -0.9747615156027146 0.22649747633873898 0.11934520943025251
Ni 3.8514537774872575 3.0278455433925644 11.089459433568734 -0.5452646460471772 1.168207975023756 0.929431681317664
Ni 9.362721227458795 7.7124780357823886 3.46240006053177 -0.6092190374119508 1.0130262155108682 0.14667835002756674
Ni 7.631359960521173 9.180797230703025 9.09739072618854 -0.9716119142301397 0.07431310889127847 -0.43936347793697234
Ni 8.41687485228699 5.541402678209925 12.82682794515926 0.5477169642424116 1.2131058639777108 0.7867503682646322
Ni 2.7842555914806457 2.959956418450015 5.9125157509948325 -1.0744107892659367 -1.6861014281468316 -0.7164440665399016
Ni 0.5271977142639315 8.271771276767423 0.9001560511809565 -0.07835102640607798 0.5533489657172083 0.4904937209538843
Ni 5.210707207378664 4.4061362154032775 3.4302309872586454 0.2918875717087747 0.4505601179837402 -1.8827885059923573
Ni 3.3059175133482195 6.886597401811146 4.9208640174815805 -0.04824700793184594 -1.5030576521163532 -1.1603080034503888
Ni 9.325108766431597 1.442757053570742 3.748108614138949 3.219455417253881 0.24626437455302108 0.3501199729881067
Ni 5.041861296219465 2.840528132821914 1.4545301593211957 -0.06304550639725917 -1.203301219182463 0.9778959474666384
Ni 0.5764512744097509 3.9201349422208027 2.824575131364928 -1.1681236428400656 -0.4998034283905844 -0.39729765911517384
Ni 0.217820371569143 8.656702615191676 8.262841971028452 2.2283668823563687 0.581982570293501 -1.41948960028571
Ni 2.254758133109285 7.328612179457926 11.97767831361396 0.3065883682540591 -0.21400448607805078 0.5368054595362304
Ni 8.272544458468158 2.5535079990370257 5.864891529847633 2.0518434239429113 2.704542129805052 -2.29476742126879
Ni 5.611130466953003 3.6909054260432597 9.69588522230533 -0.011114364745606665 -0.036399107454324404 -1.7058732114571202
Ni 0.26545967918855073 4.641126878155807 5.141158570493075 1.0587579132200282 -0.5071238733113976 0.34350246767158904
Ni 1.5407719777065474 6.020096441415945 2.9778414312543244 -0.31791562034142024 2.5126725279528275 -0.8161853856962976
Ni 6.812664258939684 6.601698803180712 11.182046056422676 0.8647283276020076 0.6462346954043515 -1.0958455621009449
P 9.430742359033179 3.7627736080310523 12.007431665524544 0.14247922434455462 -0.49971472533152006 -0.732134480691965
P 5.234260962115676 0.8073563319070572 2.659757308285654 1.4558198021753121 1.299107464950511 0.8771498411948119
P 1.9032339015838438 9.14715439767594 9.755171286470437 -0.6038107219121859 0.5603238543731447 -0.010881422799194162
P 5.4670923735332275 6.0934638415795535 2.103120229313997 -1.2626661914043416 -1.1932541193591062 1.0440458038208342
P 2.0387387091601457 2.5467096574976393 7.857428860770836 -1.5409855375103785 0.7331937751944146 1.208849659804518
P 9.17928858348208 7.528489078142949 11.852439850376191 0.13070460030712971 -0.39565215309195084 -1.0366543964527692
P 7.162396971890252 5.498877684669523 9.339946311849596 -0.2599701541748878 -1.5270478443833637 -0.7663682050638544
P 2.3179233064412483 2.891435547483695 3.4459360048286882 0.5713068357472095 -1.4159108817955164 0.38132853738042716
Ni 5.9458521400551625 8.455703660136077 7.22288806802309 -1.2685547889746347 1.367642790817748 0.8972404412970999
Ni 2.883411430077291 5.238249448206051 6.938517495919987 -0.9143493330632446 1.5429999968372459 0.1509443243927723
Ni 5.377092137758695 6.845920501116401 8.95713745148431 -0.06321931297096209 0.17354920627648174 0.13860045811543872
Ni 5.437126868107197 1.3771214704144799 8.737173857956911 1.3566801211586572 0.1522059647140153 -1.0254420726767177
Ni 7.068313959574035 8.902357527987265 11.565323540330967 2.0113259234448395 0.9496186977885 -0.2783967363111915
Ni 3.1140458739793404 3.6178963295946263 0.1548635801345726 1.6647520159367781 0.9529122809381072 -1.3405271655478783
Ni 5.620936673889148 9.225613482210239 0.7989993692075319 -0.1480240654221838 0.04670357470412602 -0.02965844629638118
Ni 7.199924571511272 3.3810387159061763 7.705707038473881 -0.4542594212121983 0.05481694783987978 0.9669690161414894
Ni 2.9046173525767065 7.918295232899883 7.984791687876597 -0.031968839597112685 -1.650621490072667 -0.27827692290387557
Ni 7.451038901437657 0.8365203684969607 6.638166578129018 -0.8146540366534356 -2.2557365326185734 1.3643888026568245
Ni 3.1220039880698276 0.6793014128886867 7.7506411530452315 0.1926854128853004 1.6378515920015082 -0.16066720810749102
Ni 1.2207784730988678 7.565592370733078 6.139490782481575 -0.47188510471376155 0.3007720186825981 -0.19102370891216136
Ni 4.08471892498083 7.081646629389142 0.6791684633523409 0.783914955698366 0.030079078773567552 -0.39697832810254213
Ni 3.8314924889451216 0.80982202720879 10.193870811849191 -0.7753462401927486 0.06696721004916853 1.2402466860585608
Ni 1.8585779438438559 2.1642958741233382 1.4632246818364074 -0.8918670928003285 -0.22274520838515832 0.7924335346923385
Ni 5.903185710837796 1.8783035062577187 11.459363702767856 -0.4522583316217695 -0.1571270561647165 0.5514952003379212
Ni 2.702741496323932 9.016760132560592 13.470546027532919 1.113942785922288 0.4678944954971297 0.9254480140795673
Ni 5.03279055480353 8.091704801902441 2.998362805077236 -0.5802907844133749 0.08914606013905292 0.2853574838997408
Ni 3.3151391194862496 0.3414521255166037 1.8193153999187484 -0.15485420097013977 -0.13634122976761678 0.38792033166533196
Ni 8.79180197382735 1.370228838423785 11.774053369489401 -1.2591630633470896 2.077190130237816 -0.9978731619195137
Ni 2.5812293917219 4.705197239820337 4.452548804251154 0.94813105749938 0.045050355371419194 0.3310958664771201
Ni 7.383753235383486 4.328648322517462 1.0373203707002987 -0.8668263477816169 0.29429540981931895 -1.2323662548692196
Ni 6.98936456469293 1.4750043879184527 13.526975091023361 0.8091873571119097 -0.535834868092845 0.7035317293536076
Ni 5.289005998145737 0.3919918074182792 4.888750575574728 0.8945289559032078 -0.8514771190190561 0.80655274770254
P 5.502196708555603 1.8168638481847117 6.60983418331966 -0.20521799813467234 0.23198935269124563 -0.9013305522060735
P 3.429871740639158 5.492560224431814 12.670994116280717 -0.7604497826968902 0.2505917982837813 0.5620056129509418
P 2.5966741676463294 8.119001887556426 3.000184496596528 -0.5893994315828623 -0.837620415641622 0.8984105503458011
P 9.245405047940018 6.0460734607516 6.861290787584298 1.1028214791981459 0.057224785950424024 1.1881975307718053
P 5.5813346843393274 8.859313936964663 9.839008698347406 -0.14556223414525254 -0.4795318226257418 0.6403396700761553
P 0.35413513412219016 0.44081728891515537 6.0599181277173155 -0.39567297902755727 -0.13465972830013584 -0.14403679863966162
P 9.187190123301782 0.6110096677190477 13.758559039770093 -0.174103536118055 1.1280224039438056 0.8723976712218072
P 5.818937192593119 3.2682579070953666 13.381713107545595 1.1003336797792858 0.9632866821938959 -1.3043257759266569
