# total energy = -340887.2123367318 ev
CRYSTAL
PRIMVEC
9.13619116594557 0.00000000000000 0.00000000000000

0.00000000000000 9.13619116594557 0.00000000000000

0.00000000000000 0.00000000000000 13.37173927172034

PRIMCOORD
 96 1
Ni 6.590181285365028 2.2731026069471816 11.454592724763547 -0.6086040295357712 -0.7106153756732665 0.13795408278069143
Ni 4.958923508627652 0.35625115229674287 5.721432754962465 -0.28004558476852415 -1.9989764007405506 1.204024470501733
Ni 3.2670471042381912 1.6810500179889005 4.796589838718412 -1.4037721895504536 1.2037655604133914 0.43981650631399094
Ni 3.3366009267423866 4.41026782718217 4.800815327081501 1.0744843228163494 0.29315384001570804 -0.35499889834696285
Ni 3.8729136140721243 2.9134034208686383 2.3083637363252114 -0.8275368061533749 0.4943398341728518 0.9744969490874185
Ni 4.787848331116676 5.138394845718474 2.345041888935923 0.6263256151852503 -0.07758380922275025 0.06092640317172733
Ni 5.170289288692616 4.563390389269431 11.483435679925208 1.4698364281693783 1.3840253459408292 0.09525757235342949
Ni 5.865663062295576 8.197721510122776 12.2730236829289 -0.8616448035806773 -0.8759190541115044 -0.010973725402684327
Ni 2.075980148737471 6.837022895297822 0.031693446770925365 0.3928961876133685 -0.19105996146673548 0.685491069801813
Ni 2.8070947017488668 1.914424882306144 0.11192930385700803 0.6354612589379315 -0.6520749562352125 0.9088433156433509
Ni 8.053068197143801 0.042169917054067516 6.853577673490071 0.19342691903701528 -0.29415888424145464 0.6757077651628041
Ni -0.209095436587715 2.662815972603161 1.5040929606765052 1.2230910002148807 -0.8834433875130075 -1.130934178273962
Ni 7.229330939213513 0.5629949333068169 4.65843327119888 0.1983400400679165 0.545980184056963 -0.21807248549983735
Ni 1.1110065132828997 7.792878612079177 2.574474486812793 0.7077663362602457 -0.3252836306707172 0.0612364782129784
Ni 8.451278220481234 3.8817483108226245 3.3929584348862694 -1.8216679845319528 0.6845523600376274 1.2647811808648153
Ni 7.690525863686362 3.682460575332802 12.906590210423476 -0.39276506135214295 1.0273883977698113 0.2225420912354167
Ni 8.341918013548984 7.1908493024884805 9.101674525518826 0.8693095192147868 -0.2345316594971251 -0.04786494200207886
Ni 6.922391464518785 0.733817038325561 13.660835771948747 -1.1149802260478667 -0.15299709315674298 -0.4055866385968434
Ni 1.7593289029509322 6.253247695435665 9.056986674209911 2.037964351967974 0.9216011295296516 1.1659924554296757
Ni 0.13784867788096744 5.181819161804437 1.3848976440731966 -0.9237929949746477 -0.7590737282849702 -1.7463873695210825
Ni 6.2825291877679845 2.1147815521494397 6.588911354808338 -0.18332582604727138 0.9462775492304089 0.39924501264953177
Ni 3.601596148302113 4.563262482594657 0.16562635316558016 -0.15971487149655073 0.43576701883496566 0.48863121382384883
Ni 5.9520183401505165 5.749633435892939 4.859249491452259 -0.7212414879285449 1.6169163845107382 0.02213051335045221
Ni 5.5142120647793025 2.865968316909386 9.229615917819398 -0.6002345745251533 0.3399404613519436 -0.2194372270578479
P 0.36350437437556604 5.711782196350724 12.650721130108916 -0.026019049771580996 -0.6371427604054123 -1.2246179783823683
P 4.378117570858478 6.459058671338991 12.407235243150744 -0.956968453285352 -0.3159880643014042 -0.1986074347966902
P 2.8698420619168443 8.836048906776282 1.4970599208021154 -0.44540119949062 -0.6153868567855595 -0.48782620142405025
P 6.4376525756963625 7.761906924401623 5.758258913868272 -0.3244595921075251 0.9613056472081251 -0.7379647142204968
P 4.630979930696731 1.055421926902297 12.503672307835235 1.4991668017023794 -0.5990130434132264 0.19936231068484375
P 4.080222925308523 6.056965766803045 8.105092409870144 -0.5128967712394328 0.7984560867373346 0.8773033360535407
P 5.190361500441167 1.5035703705481407 3.9206876707195293 0.5913974358494976 -0.00010850055340626476 -1.036637427171905
P 0.17801411461749644 5.945860547379228 3.3414102177139102 0.12242461968652464 0.7523510648491559 2.2101896972267094
Ni 0.7285829144699648 0.3650246365671723 4.84444703470442 -0.8174655379603017 -1.071506214024632 0.433704222768666
Ni 1.7172658793322122 6.5713515956 4.888159140808627 1.0635512208436135 1.124081674128503 -1.5955410041587554
Ni 6.152493780477532 5.970107998440062 9.125717325900021 -0.5143234763836304 -0.9947479860269708 0.6409773036601542
Ni 8.844783105425174 2.5646475997136844 10.133103901090733 0.3954071269606803 -0.9605564277469263 0.8099496891992308
Ni 2.265090167391661 5.384176657488849 6.897771256862893 0.8063735418121983 -0.800810445902124 -0.3185172584811611
Ni 9.540650233345122 9.306398294686566 9.066159410029458 -0.1741917249564871 -0.9588417590486649 0.46368328562925953
Ni 1.657396419346662 0.9115241769235986 11.057398645871466 -2.059236631083189 2.377099800920119 0.7892044862320795
Ni 4.266966670479384 7.082283944178044 1.1561255928096263 0.30798550571190186 1.3838502538155457 0.14868843847906005
Ni 5.826669798871446 8.174296316256921 7.975266221354858 -0.20122327515298247 0.7210345141240614 -0.41875660031989814
Ni 5.8651879803607 3.7017470746505947 3.863229251553479 -0.20386842608531344 -1.4816401056725257 0.05101582892623473
Ni 0.7872710649520615 7.345177841795045 6.994087723825455 0.10925594351505054 3.1002179370460867 -0.6674969472172375
Ni 5.254515834031665 4.58454067156251 7.125839821415204 1.2444316706741858 -0.18215828810173143 -0.5938916630262611
Ni 0.8906105219788522 7.238046865480294 11.155587118381263 -0.6008922627138102 0.4290070744033128 -0.025490945182252873
Ni 5.018509746690488 0.4845205338562012 10.336768785715162 -0.4323507940645651 -0.3635799551477545 0.07285709317104226
Ni 8.455974222683672 7.316755151421925 4.953052592255501 -0.4729891364112177 0.4820126800660666 -0.9135278656032138
Ni 7.275715381201403 6.268112278282681 6.979285267077616 0.9175318445562842 -1.1329951745680487 0.17897911904280142
Ni 2.1446934416645766 5.389841095943152 2.5651272497440893 1.4714143141794593 -0.2669049336215081 -0.22515484626791546
Ni 2.688223719928022 5.269462642598178 11.333899072827164 -1.2163164004952083 -0.1359499078664691 0.32242276418315435
Ni 1.5358302611644963 3.1542699618512486 3.696149330390997 -0.1284001205436692 0.7339921027259939 0.12010419908346412
Ni 1.7520382224887823 1.1406991342127086 2.671994190137341 0.09197658760931257 -0.4791790672720134 -1.0324670978442991
Ni 1.2859462996102788 3.5013447238520223 8.016411057772519 -1.54351241769729 0.10966732002085629 1.3809400221472863
Ni 3.5077766023549715 3.149875453953637 7.243791702415883 0.46735045006820153 -1.5424122426545759 -0.524598118836761
Ni 3.913268169963499 6.904393168139794 6.095761688500381 0.9358301286448399 0.5133492853958191 -1.2633881571720305
Ni 1.2761431666079144 9.34513574476115 13.34843194138383 -0.5282868805422579 -1.0554859273369757 0.6524343964571603
P 0.2332588346908408 5.5923082259202275 7.796967057576436 -2.075266687962858 -2.440820993228164 1.0796321855658761
P 8.72244950719436 1.807348723137725 8.076825034744965 -0.46680306220516377 0.7239740563683597 -0.5462792033546204
P 2.0771495811925527 3.135750902582103 10.330804680194245 -1.7610390579959865 0.4451996250027752 0.07425551618046565
P 3.7644578900543517 6.369980808549563 3.7726091997139135 0.43411611349510393 0.42405435838372774 0.4326444140455839
P 6.979547475760905 4.182740125140334 10.297054676816765 1.2456385464980935 0.18211997866462826 0.6455631232586238
P 6.61001595614614 7.9235900975077245 10.02826976320729 -1.0151046953064518 0.7125563014497213 1.3056393525317578
P 2.362600734525153 8.827506568139553 5.946613369522185 2.017124275294171 -1.7230504945673553 -0.5880966536110388
P 6.953829097940162 4.090227054514105 1.5742013499777594 -0.37567828107318524 0.3179852972370911 0.5943328643287378
Ni 5.348207473304032 2.875488227989036 0.35850322339188073 0.4922904078429909 0.334140823951031 -0.4473035587196555
Ni 1.5473966790405387 1.274315928396849 7.04006012359675 -0.04796547213568513 0.7126108088367404 0.2008836324253766
Ni 6.9840698903332905 1.2363002374156382 9.301462010659375 1.4934008457528796 -2.1651989914486323 -1.2410221307720046
Ni 2.9752280257400283 1.4265340075696331 9.210721361097878 0.2921724499390452 0.37882428290133463 -1.010222684623802
Ni 6.731563841946194 2.0370691110328383 2.3593500777476684 0.5732487899649289 -0.41467111739661483 0.8062236464978955
Ni 4.129567493198338 7.107043021937977 10.230584318793744 0.45405347584897937 -0.3460730566122427 -0.8576277120014844
Ni 8.702450384974252 7.6688822270762955 13.386180855586225 -1.1587977374534495 -0.6525048446837795 0.0641017155759154
Ni 7.65935317980559 3.896896115592355 8.205648069482377 0.3550845160822336 0.16247675051240404 -0.7080321883271226
Ni 3.0049023742877266 8.521151809672366 11.838080689834426 2.0304312768157224 -0.9813749071541743 1.4299791869631244
Ni 0.1613515293707932 4.812050101222234 10.108580537060027 0.019749414712785344 0.8315168738470453 0.5509699239620706
Ni 8.539561234648847 2.5101319476865553 6.031831191590738 1.6743226903443487 0.0904102715634572 -1.0060284440367964
Ni 3.8039170992223035 2.8314426509113098 11.616149818433083 -0.539526200901503 -0.786910033770948 -1.273868230767748
Ni 0.7995766006844798 3.3542155030970546 12.493536617478457 1.897673907744622 0.34126869324506387 -0.5010013053534275
Ni 3.3287438024348064 8.36256580533402 7.890355375305766 -0.24493485710832014 0.2954863448036266 0.5177996078576889
Ni 5.827090063659991 8.226573601475495 3.4237939933171 -0.559248876141411 -0.5216413502012822 -0.37834245816890966
Ni 3.293295381140142 8.576727259861913 3.90588521397169 -0.08818421044641588 -0.7125478168092889 -0.40120496458938
Ni 3.7823100073764584 4.212560652744918 9.402606040975572 -1.2779884235837087 1.7107899320324471 -0.38460797946264735
Ni 7.532104310787012 5.989732536826902 11.687434949142263 0.24929981894523515 0.29232285947398046 -1.5036580047045134
Ni 8.614953083237397 0.09695417309822342 1.8532699602391094 -0.7104497966296797 0.693091250746574 0.396336323643169
Ni 4.751440609761202 0.876123263822422 1.709817142764805 -0.2778593757504828 -1.9895389094767346 -0.17387393660575215
Ni 6.234280962804808 5.743996406011803 0.2224214848610133 -0.36442404831560465 0.1409519890667508 0.8013997427466909
Ni 7.999658024234367 9.018315918330034 11.348701529575001 0.8776900299689981 0.605764246094131 -0.11548084137883982
Ni 0.08904314526341678 5.081266243049521 5.592208641437725 -0.8263175890342932 -1.7685916735322638 0.1320534010255403
Ni 7.253075899766305 6.346893653752756 2.6754979194070585 0.28166486553950204 -1.3905379502483664 0.20178480408340732
P 8.812102950020273 1.5885278111716157 3.5407966240671302 -0.4097723945434169 1.2386009229250217 -1.1643726604380658
P 1.9619148034117275 3.4942824481662553 1.2403411747194089 -0.5798403271395176 0.7973016614179173 0.9864379234993785
P 4.7272022948914225 1.2775775486036003 7.894393571752219 0.21083174477702402 -0.8675231167383252 -0.007968105807141116
P 8.741379695060996 1.4914831897819447 12.890958187527815 -0.1741377317901001 0.2885651922037611 -0.915437938141733
P 6.6095043294470415 7.719898717929234 1.2319760781891527 -0.028168492014416006 1.8322282765463025 -0.5539984263757491
P 1.8002590388787922 3.222626943327197 5.855030363145389 -0.2830514614743835 0.20079287248378322 0.1253839594251647
P 7.094206673505244 4.076349180301065 5.652367718679728 -0.22699832723455743 0.48560451118238307 0.5524048566363842
P 2.2257223201342615 8.375941189039018 9.783218846721342 0.49789284163143277 -0.10765980267252424 0.12044872690707643
