# total energy = -381169.19913491147 ev
CRYSTAL
PRIMVEC
9.22269868735059 0.00000000000000 0.00000000000000
0.00000000000000 9.22269868735059 0.00000000000000
0.00000000000000 0.00000000000000 13.49835177360589
PRIMCOORD
 96 1
Ni 4.126124783546989 0.9759367673477133 5.000491046425021 1.2707677374655533 -0.39953451886549257 0.6932478309290964
Ni 7.721188123143306 7.770870801733183 11.419552145509556 -1.9592870525707289 1.3232717209015403 0.03060615492163116
Ni 8.96350410075859 8.616011254293143 4.357767620946374 -0.6907988551679717 0.982713680570256 1.0697794611415123
Ni 1.2018098843599025 3.4640917935308204 9.991048323941715 -1.9371321137402446 1.5083399835612152 0.31101092280178694
Ni 8.421098737248693 5.758690039397288 4.402730122275753 1.4511419370836687 -0.40953302483910115 -0.02536881778209179
Ni 1.6069077077090266 6.070352700913474 9.335568061443297 -0.11981315020560657 -0.1594788442263447 1.0884009328974416
Ni 6.6411363087190916 4.058264165565865 6.052215341397073 0.01326817786381586 -2.037050067683821 1.6838946503034997
Ni 4.0709545991540725 4.9446116364921835 11.47045406488458 0.5576763894479686 1.931257143016706 0.524745957268535
Ni 6.083190697682938 2.024345502090869 1.303921761250824 -1.2293428946618634 2.0074867522044073 0.48920251294628647
Ni 7.285701507153818 6.885445600689729 0.9481543093963223 0.10520568470507688 -1.074039264859131 -1.501837149445691
Ni 8.355230222214557 1.8678455256677 0.8822064791522588 1.796454975601435 -0.2512060348290125 0.2724400045071243
Ni 1.611205485363172 4.321645998714128 13.357199667261808 -1.0888261933603185 -0.1152988072750208 0.854717994553857
Ni 5.7603685705841 4.411899329451186 0.25995006691412614 -0.5220090179533461 0.4947090445868125 -0.17196000741249093
Ni 2.4467358857436907 6.582230931300576 13.105617354994907 -0.006544485986737116 0.5096903484869931 -2.2230241299872167
Ni 1.337199103164318 6.794583571829982 4.547216611204738 1.369868337714157 -0.616465691672035 2.138508112421007
Ni 9.046001141780762 0.9162963408325558 9.723956199054692 -0.13393621987054996 -1.6090004720977709 0.8366662792584688
Ni 8.510033222053256 5.7130376801955265 9.72365922815241 -0.3792703692998178 -0.6841011314328218 2.87304426057593
Ni 1.7267382335895287 4.316499732767747 7.839356718694887 0.2794868840515767 -0.3903291982171407 -0.040523928255975374
Ni 3.0903234781025817 7.947992732737188 5.875656917291497 -0.4477956678647256 3.125371810603895 -0.05309867959719242
Ni 7.104752156135928 2.5923991910432096 12.690934380753179 -0.5526311137145773 1.8964130387543274 -0.364448730905953
Ni 0.7684721571974868 2.1181403491781245 4.497718386591434 0.8554949819291975 -0.02818057619927405 0.8802408214153099
Ni 7.135970991670869 7.250480020327246 3.2826776184919666 -0.6223828284874184 -0.097416013457329 0.1586000411658172
Ni 6.641606666359352 8.955517243572988 9.69066963444237 -0.5541997437532779 0.38260920386506364 0.8219765384567779
Ni 3.825271125057967 6.147851039170524 4.365285965031481 0.9237330882709899 0.7866691214047354 -2.3392575332613648
P 1.8998667360007333 0.480900107291588 6.647560840723122 0.3089967205852356 -0.6148626088509733 -1.5918581559905294
Ni 3.2079590016618678 7.280370787230865 8.185522418798893 0.24018500112816052 0.8792671446481309 -0.5622172147411156
P 8.503669559861494 3.5287060215242625 8.792300375592923 0.5234529494887243 -0.11606268202423882 0.613306577217763
Ni 0.7014757060966071 7.78789590377085 10.870128308191067 1.6502548507618675 0.5598656837898035 -0.5815778786559145
P 6.61770143099552 0.7255395718802912 12.459653995417758 -0.8617995839909868 -3.590013603491682 -0.4698421061418037
P 5.333532846095874 6.435377897852162 12.74237675027956 0.46759290509631085 -0.07808954521457519 0.6092398633475572
P 2.428797736521988 8.968355240342454 12.087166712856817 -0.39745963861433486 -0.6145275941090578 0.9104078319169934
Ni 8.813340118430695 0.5999337919932957 12.13095516462531 -1.3313241588923717 2.688039247054022 -1.4035760143792473
Ni 8.745885299198033 6.050542343829558 12.191725371746976 1.4026486174689714 -1.8218057956613982 0.658294454782363
Ni 2.739860922614313 5.887540364732199 6.234942828749125 0.3513854699640916 -3.1516361436170626 2.024491257182204
Ni 5.976908316381707 9.039969496746833 0.9873221890516677 2.110898835344171 -1.0533776227447214 -2.4531851712204715
Ni 8.23929167523974 8.793372975466692 1.995609417080597 0.6440356308705036 1.7442500114631057 -0.916923521548324
Ni 4.215160718038666 0.9819315215863285 13.051758638375421 0.45217785609282124 -0.3784882397181546 -3.554721098837975
Ni 2.1343907445141856 8.598903147966018 1.22888588358102 -1.951409449594865 0.6216415794460197 0.787841801556598
Ni 3.87802496235778 0.8823263742370311 1.6810305381947954 -0.5563458435620032 1.1447965380783511 3.622547571563645
Ni 7.11611452109281 1.2707218900074904 7.741412579404629 0.18288591029637535 1.6225527568609086 0.8788804507326735
Ni 8.38195760341995 4.311150567447137 0.3129215599062951 -0.8951403642349616 0.05089910084271233 -0.25089416001554854
Ni 7.540450894198475 7.247630206389197 6.052296501146765 0.001036411684314344 0.07035386713321432 -0.35436923518276386
Ni 5.884865782071893 6.384625386198165 10.45721332531479 1.07067420504164 0.07476639437861317 -1.0198373248954307
Ni 6.196371657707993 5.600373191304877 4.667014857639339 -1.0484747861264652 0.7973849651603429 -3.0546297068933264
Ni 2.047263908680036 1.209068148338041 10.544925802524556 -0.9113851082285981 -0.825947607289384 1.1690991193794573
Ni 2.626845971168175 6.300394477796208 1.8634066407214762 -0.24016006142749605 -1.0003918145763095 1.7769559863365592
Ni 4.3786053866798005 3.6017682416447383 7.662447832033823 1.7963199926854676 -2.2424647552103316 -1.0520306217985236
Ni 6.423259271591332 4.2914047692550215 9.0586629850026 0.47864530625573054 0.3634460006730515 -0.8274707288021298
Ni 2.9218063251056963 3.0735473889332883 11.897541569050828 0.4249475596219585 -1.20744558036814 -0.7453661488908905
Ni 4.041036164153969 0.9739354417018988 7.67377238392551 -0.8165342843952841 0.14047402098906775 -0.5336849116293777
Ni 1.6893770806347135 1.6326113693444426 13.315894888287868 -0.40133377685776045 -0.8878520581036645 0.16499591738983196
Ni 0.3596391408227642 8.219140078299164 13.165968851589753 0.8590204785839529 -2.1436004393422503 2.335367197068023
Ni 8.250441918123565 3.344307381144462 4.278437654701956 -1.4128553827986443 1.838405609001608 0.283750287313621
Ni 8.358827074757725 5.496165917240089 7.557201159811048 1.0080020228233995 -1.2269815935185384 -2.26278906858998
Ni 2.117586987248406 0.37117212570797675 3.9733480106409407 0.7809962393896743 -2.091627902929701 -0.018357933681897417
Ni 8.576030854870995 7.8673402314807435 8.84352601169683 -0.5411508809891197 -0.3401196672422852 -0.21438732333876626
P 7.664173398984662 1.8885689299356512 2.9633877850444965 0.030704371062392283 -0.750677790911791 -0.7397935398991194
Ni 2.242600669870603 4.498352908270845 3.9244843077070475 -0.2113631918004618 -1.239467127580059 -0.31688615063564135
P 6.561867212286942 6.296013695852604 8.103438554684244 -1.0567110579933285 1.6183554309501094 0.6529959253875851
Ni 4.421297259557568 1.2352698357102037 10.292966281875563 0.8439345307851077 -0.16376230209304699 0.4117750267957424
P 4.711489478200684 3.4905978299643277 10.029100257038797 -0.1990013278009992 -1.1108510343708418 0.6282380017166148
P 4.561980307489622 8.63004820191033 8.99607129486228 0.4278027696825665 -0.3312478186739521 2.087268340409425
P 1.723565625192477 5.1565031420801555 11.45278429619879 0.09425612767210864 0.4928087422403062 -1.876407799276994
Ni 4.116025928329629 8.034105071700187 0.5017876755986889 0.4606480983473615 -1.9475990747098393 -1.9636412157743666
Ni 0.9428088331552433 7.020733369807029 7.13039679249884 -0.44286249222916635 0.5599710990194162 -0.45929646941547353
Ni 5.126630820574196 5.863127880932792 6.530502658110508 -0.8480305552313524 1.5854028872834889 2.1572599391072136
Ni 5.010885950274781 6.4163514701686815 1.988752340501504 2.032728300380015 0.15403041951726376 -0.1450842660675695
Ni 5.236851294275256 8.028220989847515 4.985251458880579 1.027747837991759 -0.32481003346840837 -0.8914269199391164
Ni 1.0075521789322865 1.3452781873382054 2.24078010912183 -0.8896392319110743 -0.3658031880513184 -0.34245834267779085
Ni 1.5303408620336685 9.003954857820998 8.675445092354538 1.235350277198208 -2.2775451438532324 0.3837068078046166
Ni 2.9192700829278206 2.665913323406288 9.04238399930017 1.325224730862853 -0.7924237645003256 -0.692996891260555
Ni 2.551164504580366 2.6037892240965785 6.183351973771603 -1.7159984728165802 -1.1662835043075332 0.7151549154148329
Ni 8.853117618478613 9.17812552519984 6.894363950457023 0.8119628629745177 -0.2867456224965191 -0.9694850976951239
Ni 6.90292261497 4.685186341141406 2.4687403228789395 0.058771561612253616 -0.12206749345742203 0.1676670364640919
Ni 8.629900638729072 3.0817832589872625 6.738229192907467 0.1139788029120166 -0.28667903092464175 -1.0332212024015044
Ni 0.21701932613669608 4.4823423031043275 2.3318265919581505 0.569264094285568 0.701672821767998 0.6944775895711395
Ni 0.8756159385693135 4.7560627816394945 5.839683780510393 -1.8086340341661302 -0.5904235019720024 -1.4427537130199735
Ni 6.892095166545177 4.402621294429576 11.42802872800296 -0.013376678417222123 0.8832487550036981 0.06802830432383124
Ni 4.273254497960261 4.34385425749349 2.413937201899403 0.3925370045017369 -1.1146089587513772 0.2961584311699867
Ni 4.165090686097987 3.925973773567873 5.551359158380076 0.7125331615212696 1.2083909750005448 -3.0742024868189315
Ni 0.8051646644872258 1.743827894518996 7.950408157560409 0.7088235738801663 2.7791714843851687 -0.1538213888302512
Ni 0.5932869929474958 7.372560884721937 2.7110086315987996 -0.5884463236409737 -0.7566378651499679 -3.2647209739599
Ni 4.015876641749442 5.285316576619751 8.834793038175992 -0.1322835147584754 1.8843483942803096 1.8155718989365444
Ni 6.032558081113712 8.51075259256189 7.404602384992393 -0.5392618914965229 -1.413880995849681 -0.5226101418724547
Ni 7.322619970564858 2.1390666528203055 10.008137062601302 -2.0474861754154805 1.5393981384186004 1.3810580357823894
Ni 2.270702233201465 3.2249656583018775 1.7489815386244392 0.17341448047083036 -0.68163004418451 1.1514801207461136
Ni 6.251707850679825 0.2471360491616156 3.0668793776801824 -0.9013287524338607 0.6586538950043108 2.943652409811795
Ni 9.19120331213885 2.94840458852749 11.768753958067952 0.09887691427357165 0.15396922726202517 0.9156395126295779
P 0.5846462464149442 6.17971546362347 0.7572776453592852 -0.8404967087481526 -0.1675662492201695 0.641236985079444
Ni 4.2047851818564475 7.707990441119525 11.32143185267167 -1.2293642348181022 1.1904613871053176 -0.12525257605362297
P 3.2707010217930965 2.3610846817221236 3.7060539086495696 -0.9699604946696457 1.7009076399217287 -0.7060670941809517
Ni 7.026036421633497 0.6385990345624803 5.48514940348928 -0.3822842164254771 0.14787982653483564 -1.0154533368951222
P 5.46539899394775 1.959399256939596 6.365026228917425 1.3248580915520538 1.3463612557311524 -0.09925203822480326
P 3.9402689567522624 2.8735439421354303 0.43419728269324476 0.5898961687136228 1.5969006035104434 0.15585847386493804
P 3.9138551473070415 8.048640045054121 2.7728855625799023 -0.4603722189781555 0.4796773470646707 1.0568390989307606
Ni 5.660984768006689 2.975537768481345 3.9690825124326956 0.47567516788381303 -1.078646167503523 -0.46425998406833596
