# total energy = -381164.5330159234 ev
CRYSTAL
PRIMVEC
9.23757309089987 0.00000000000000 0.00000000000000

0.00000000000000 9.23757309089987 0.00000000000000

0.00000000000000 0.00000000000000 13.52012196673229

PRIMCOORD
 96 1
Ni 2.401611926078866 2.417694540570211 -0.32444111309796914 -0.6213657000768137 0.5307312283176924 0.7909451230722702
Ni 8.229818396691876 2.6694184032291117 1.8953587498586963 -0.6645000693724427 -1.9073250576811407 0.42011851366443126
Ni 6.541494902872449 8.022748961632724 4.0313627411474195 -1.22632467666083 1.71347879171852 2.580819103022078
Ni 9.012434813878107 0.6363671623746437 9.620634768839189 0.28919794069175353 -0.6009940783989971 -1.0190374547019547
Ni 0.1263552177245326 4.2784096206259825 3.000804323664584 0.9774704298934456 2.164401435248002 -0.4949404438713283
Ni 2.805044449157845 9.08844156404168 5.236964852058136 1.1732020858042376 -0.7950547743652694 2.086891159575664
Ni 9.600240055298702 7.40157760674703 9.693886874751577 0.26460173940962817 2.1828341880318924 -0.34926122453223724
Ni 3.4966338225774396 7.480448004522504 7.522460486260951 1.2958578476649618 0.3411424520798448 -0.4491928053225684
Ni 1.087798114458234 -0.1550018551737626 3.7899202971725314 -0.1588877476095651 0.9197399079511966 0.4525648071185948
Ni 5.566635355198352 4.2390945101864865 9.638846643893576 0.3029142618365816 -0.6845796137311371 -0.6080514994664109
Ni 9.53206676698961 0.9690860645855904 -0.23780284023589326 0.4178587710959771 1.185983810949938 0.9730342484989629
Ni 2.3424822216796133 2.1501005275976217 7.50896716346514 0.6666428267470583 0.464062266235233 -1.055948468795691
Ni 6.8640062869829155 6.763464543086421 6.346615369067046 -1.6278651702127578 0.4544432550882303 1.644752689996716
Ni 8.374589639832806 5.980478622982527 1.3610843198774438 0.2813596755942574 -1.8488987952234481 0.5204373025908521
Ni 6.640780336848884 1.3004285684282373 8.48463315125704 3.83309238122787 -0.23390688142893262 -1.7239025581550051
Ni 8.568689522481936 7.857959897927323 3.0147983229138307 -0.27480259120202993 -1.4123342201878515 -1.0116807572265674
Ni 3.5272563768788805 4.023655834042233 6.227002655832595 -0.4696127637398171 0.3366587052768783 0.32931794864109093
Ni 2.584691384208655 4.69467313252086 3.7121519418489903 1.249512170520887 0.877639893457353 -1.3504644792662486
Ni 8.008984977949723 0.7918798553320774 4.162480851480646 -3.804176212414151 -3.4902154629554216 -0.3636714864202963
Ni 8.725589698895199 8.149460749672802 5.3910272460637385 -0.08557171252423326 0.2859326396769205 0.4025378244681906
Ni 8.80552241755896 8.504931794038937 11.876872238264038 -0.46262810489186784 -0.5454101704861058 -0.4582112067710947
Ni 0.9286901581119253 7.073181888672757 0.47857001762874957 -0.0011860498883011833 -0.16235205200908168 -1.2854945021527668
Ni 4.183087105441499 4.74267156152547 13.34314295371302 2.075800706089457 -0.6719925210947458 -1.0460795464214114
Ni 3.8770001260212164 0.9775661565459894 12.195284911260313 0.9141981521973611 -1.7586754428598164 0.18985462830472463
P 7.079010797198913 8.874277672963371 9.72859243629321 -0.2974210999324942 -0.5064633569092633 0.20134051745713713
Ni 3.329313663886039 0.9016083655190043 3.271923394471692 0.1453413763836981 0.384273478941364 -0.48844917972002977
P 5.621294074293864 2.2979201698092817 12.5361134787567 0.5246089174700383 0.14876454313263412 0.0661629689803183
Ni 5.13566562718043 6.0748311930081424 4.1467973001403795 -1.466836207890474 0.2468349023445104 1.0776750618395055
P 1.7282667592189531 6.250086426856387 2.2136633432515533 0.7326497297654866 -0.10742891760864079 0.4585081691862232
P 6.57452846371165 3.949367272445797 7.625957329741468 0.1821881128984024 0.15582839195795098 0.6851539981773683
P 5.3823272998673275 0.6828229166980057 3.97625415224965 0.7176802529398478 -0.018447665182226295 -0.3404420835787105
Ni 3.765835173241869 3.0319839036144036 2.0643195015045275 0.6633623562235736 0.14685704169727612 -0.04158527964095418
Ni 4.8239252531198815 2.386055853245193 8.16592395216934 -0.0854189889964529 3.563342007737766 -0.6788733073749792
Ni 1.3149407955195083 4.545246152617359 10.198376598297193 -2.2237610081532413 1.659907543360283 -3.0661922149199454
Ni 8.25851029824852 3.641118700957178 9.242355233122924 -0.5418769605218667 -1.2629852653066571 -0.7581563586770234
Ni 4.795676755064435 -0.14348260171557364 8.264931335200234 1.1525260455121247 0.056688196720663664 -0.023983250288474825
Ni 2.14653482444216 6.425637263038764 8.869821467776339 -0.9865538802519526 -0.6962133413153236 -0.9581809855362143
Ni 4.432104359228508 1.5030639684754172 6.235858717011718 -1.1084336831786006 -1.9664902551873875 -0.8164373538061037
Ni 2.790827824400706 6.41598399931478 5.459533086998725 0.9188258807773595 -0.20097516369791837 0.23046494562691922
Ni 6.685333151146275 9.186008809450978 6.496675122717046 -0.49146122707347617 -0.1872976662108258 -0.8902156732398346
Ni 1.2100943426322228 4.328015387322434 5.521009134925147 -0.41329711986722373 0.6964072024936845 -0.09228460576803461
Ni 8.838417414804038 1.8861738310828524 7.309126129232798 0.2405822365665792 -0.41393963854722904 0.012890739919739089
Ni 1.3443439901926562 6.984621276881531 11.58468965363547 1.598347620369615 -1.379623617328708 0.9009142906042613
Ni 3.5211041532997673 1.3185619241126199 9.440303488659529 -2.249816310479396 -1.4876904256316639 1.3806659425502932
Ni 8.254575092175394 3.8896371258053404 6.05002461463074 0.16214199288080464 1.0478155552759116 0.6817668268726904
Ni 7.16580703255829 0.8783684795124992 0.17661223331336753 -1.6460927489643777 2.2528263009503138 -0.42153647705788044
Ni 0.8885002495148582 4.618176790991379 7.801299396775364 0.52970664370792 -1.5754881992729384 0.047819947696756356
Ni 2.166460269277215 4.613964457730004 11.98761595771725 1.204652333893719 0.27515071857006806 4.793213264099275
Ni 6.103911072628334 1.8968894156951213 2.1295543178608907 -0.2782404132389853 0.8092686039718063 1.3821659241345872
Ni 1.7779371889259956 0.8566260040798293 10.993130262571405 -0.4048682723735801 -0.7301863558266586 0.9675012344958757
Ni 5.787043845585192 1.755748538720246 10.385508579676468 -1.4399013311728426 0.21537128451859036 1.875681205523615
Ni 7.57050510313027 5.781214937059035 4.551589593956364 1.43115032445309 -0.2936271801077008 -2.0086997986759023
Ni 7.880638139498978 6.380899697282541 10.690265348593158 -1.6617690220490542 -0.14727304618877218 2.2174060124694908
Ni 0.8549142818137487 6.309142230672107 4.154016463394249 -0.6443313077340517 0.913997863261097 0.05932152057845268
Ni 9.19514476909023 6.114257154322938 6.392922398466047 -0.5688774003701106 0.054385773839732136 -0.014791299376561625
Ni 6.312292243045197 8.055459207418968 11.558581501230595 -0.3826395428823668 0.7946071453048895 0.18477849933339788
P 5.386308693805163 5.58858382850762 11.221200395956016 2.614150370184356 0.6536770106150097 2.0616380414358297
Ni 4.434644691787451 5.350873364001142 7.952278288933054 -0.0768538730352612 0.07382305662873737 -0.4687887251766249
P 1.8628212466864598 8.834777811065042 8.839523152285148 0.5722000369854404 0.41867201102589185 0.6722282912546358
Ni 2.4593467569639347 2.7092508177533383 4.754323836034019 -0.8867788796441437 -3.6265875459609735 -0.6557508624249029
P 5.649459434192837 8.06332961956522 0.8410911776639219 -0.6517450836996195 -0.37403586037375586 -0.8255729975587847
P 1.8407526849289508 8.792848467483068 12.804569357284741 0.9588954951047356 -0.25776826142756254 -0.2672905990957009
P -0.31824454916873646 5.247163132585675 12.140812791138222 0.9331651802181671 -0.51474256619892 0.9191716941525524
Ni 6.7487860396822015 6.132242708840255 13.043416043263036 -0.423416981910045 -0.24768182372583794 -0.23843459409595708
Ni 8.40070425853874 5.828030956727121 8.691747850423608 -0.5474603681469152 -0.6564424891752888 -2.5819817558716114
Ni 4.197414581073937 7.01305452639581 12.298984057588251 0.2056424872666007 0.1859699485383378 2.2613068276174992
Ni 7.826330448175247 1.3637244182241564 11.429802344366184 -0.749170096018013 0.6110524910762638 0.5894061164510817
Ni 6.955282745218975 3.6652102911888997 0.17173294728560856 -2.2119059085868678 -0.1061698483905591 0.4920253271070623
Ni 7.840353083900613 8.127484563644709 0.6624004904386919 0.24841330257522382 -1.6132096250831118 -0.18566373015182863
Ni 2.3645692585830056 4.529569991335446 0.9673567909309209 -2.2649827338071895 0.31470636937550317 1.1608296802818139
Ni 0.44838162925556463 2.807289179382656 11.556757080574627 -0.6690090129863898 0.6857273541823351 0.905620180720363
Ni 7.006652888347274 3.464348505146509 4.1104280517119625 1.110014140291843 -0.15792692635819253 -1.888960182020708
Ni 1.125515124778832 2.462552194774674 9.395118824372933 0.3264300855703346 -0.25526837782384426 -0.7093257103275654
Ni 6.589077641094688 2.362694031275858 6.084393004760003 -0.03586920309278339 -1.9814239936790843 0.9599874426173338
Ni 6.38037315562487 6.649435942695175 2.375715314094353 0.4283884669827073 -1.133079506751739 -2.400239729371692
Ni 1.8919473141713592 8.971844918372668 1.5684419672123753 0.6734169122460982 -0.25097489265481293 -0.9249759595391555
Ni 4.044597411900866 6.197931090028051 2.0125780079439757 0.5390158369239879 -1.8308632778779759 -2.174430280238913
Ni 3.4782602899965753 8.273613730008055 10.554226383153933 -0.6393711355152989 0.5329513758974628 -1.3111703096523162
Ni -0.057369946753875425 3.875503639204675 0.3367390939551359 2.391781057081378 0.8892857052263975 -1.3227492727391672
Ni 5.70716655235908 4.492518086266644 5.650193821241694 0.46686322601913793 0.8892291409568492 1.9636075343229538
Ni 4.764010355020592 2.6972881607939523 4.389645702716981 0.09107747283381089 1.1184080207824934 -1.6991045252747188
Ni 3.271283230666838 7.7309432699801715 3.3038041062077794 -1.237781769457836 0.6233809307346295 0.931457453498441
Ni 1.3665880658360554 7.798349839735107 6.899926589366371 -0.4956184437749593 1.407106910350641 0.13090514635371003
Ni 6.308089147356762 6.977545296008257 8.80580416353368 -0.8809152217745151 0.2952878556395753 0.4351370985604506
Ni 3.583716422698007 5.843808731311391 10.349045108004045 -0.24918000553791925 -1.2708153028740372 0.0751453749845867
Ni 4.465211820651241 0.7295142291313788 1.2236643372834495 -0.8490163161833894 -1.153736263770142 -1.4461334281254836
Ni 1.2242001165140628 1.9225975811916247 2.14979384017596 0.9178666021878837 1.1582763177323405 -0.12661371806720775
Ni 8.377952116383552 8.115309442507666 7.899564078941752 -0.9048863878781319 0.6596424841698252 -0.7706858586026017
P 2.779705786579006 3.971241845171532 8.691478113293712 1.5052580022017819 0.5483846797333976 0.07468617595998106
Ni 7.216216468100662 3.981116810646115 11.267845520524682 0.048270919191245897 -0.18664614866975598 1.4228274064096915
P 8.880374471104835 0.3884815112729819 1.889923361939852 0.13983330208127528 1.4370872587628154 0.14858610857324087
Ni -0.19338674201803902 2.4252970631011563 4.079629059767337 4.3650469404297025 2.398496264318024 2.469772643265508
P 4.838853170993525 7.927056943530574 5.92488229023344 0.361415600506584 -0.3817450560925555 -0.41862290295551124
P 1.258563887856856 1.1161667009619216 6.079065696444577 -1.236106181527626 -0.6941713711846303 -1.7690174482157726
P 5.909081421716815 4.16543410355008 2.494070793651451 -1.400248492667911 0.5493370163443377 -1.294796753390299
Ni 3.7379654156770283 2.9686511035267187 11.088635681700133 -0.14378508764017173 1.449281229725846 0.007031710035800792
