# total energy = -340895.4339299662 ev
CRYSTAL
PRIMVEC
9.07071459688118 0.00000000000000 0.00000000000000
0.00000000000000 9.07071459688118 0.00000000000000
0.00000000000000 0.00000000000000 13.27590769442498
PRIMCOORD
 96 1
Ni 6.360230715365091 2.0846315769281416 11.440088371863848 -0.49182195284700453 -0.7674015314243752 0.23320394182463708
Ni 4.73792437925346 0.42123490471223557 6.0514236870056255 -0.7215397358952541 -1.1468475070701087 -0.12527597309239072
Ni 2.7661052769674526 1.5873387322083246 4.773485207876682 0.03565631575102892 0.19967444260862385 0.4657260270909011
Ni 3.480269831602747 4.0778666358459805 4.576603538293789 -1.0352032658285397 1.0544330605924292 0.8818757859155715
Ni 5.03533496207619 4.5325271230183155 2.556926439910703 0.848661246836816 0.22447016149606502 -0.6745176015094448
Ni 7.261134066772727 6.215135568273704 2.528263889567237 0.6504603034499249 -1.0017259600067006 -0.4608884964929418
Ni 4.986661508757086 4.554133564651955 11.503414657179164 -0.08362538743113986 0.04641072605405556 -0.4761094272077542
Ni 5.547449354079536 7.732067415528081 12.228013254556346 0.36403144086287625 0.9509345883864461 0.587561349932859
Ni 1.7081515769263904 6.812215341797745 0.330944106783855 0.7124066632457344 -1.9660153724334979 0.32263642285585725
Ni 2.7242620715703176 1.4296443628545008 0.41794949196676795 1.0545790992519903 0.05148582658411779 0.07488132268992265
Ni 0.4144209840761359 9.174755465649238 5.051004621153483 -0.7424024382768762 0.1820824405584735 -0.45048478466111447
Ni 8.507305090028737 2.338792993626108 1.5690267740345252 0.15780968405403792 0.06019415299139311 -0.5911007305446853
Ni 6.9075213377022955 0.7107693862459281 5.005176650932815 -0.0909391474837337 -0.07808697411141391 -0.896480937423256
Ni 0.9339298224353773 7.584151276267063 2.572910852776697 0.27319822282938755 -0.3388168892704616 -0.05022470048350705
Ni 7.698179226635019 4.003350717281605 3.849242908390393 0.9548681191128974 -0.7063637994857641 -1.3690612684318293
Ni 7.588750128453567 3.819587114823215 12.525114526018998 1.2177022250991416 0.1890563007731454 0.6244811057773438
Ni 7.8222847406700495 8.66586117724788 7.110084902767688 -0.04187889962197303 0.5492871369430089 -0.17830189047011874
Ni 6.821458399742613 0.664184918446651 0.35425130736220706 0.18901464890193256 0.3464129564501647 0.22236777044108155
Ni 1.7848535376543704 6.330651115798637 9.30587989846517 0.9079938231588621 1.0802245677342361 -0.7864827164255423
Ni 0.2611050485495824 4.682992133017811 1.5823289766607767 -1.5783683490342106 0.6482059601981095 -1.2446165329914822
Ni 6.444651854023476 2.08341610120232 7.044196140642336 -0.16159177680428946 0.4050991574374636 0.040832717745645807
Ni 3.32643051585694 4.253212615367335 0.43031468979841203 0.6476380035097814 0.005014165385139752 -0.034009781286541425
Ni 6.130487661756023 5.599905295291683 4.622803407803702 -1.6028565639835621 1.3732925329043575 0.7005677616292774
Ni 5.269096342151968 3.017554550068249 9.199552984598876 0.10845170244620031 -0.31999332880605535 0.10968711751519819
P 0.08119831384208358 5.6447327657171416 12.558424003335139 0.3938372113703991 -0.6855486625126258 0.5326649550052954
P 3.889921434062188 6.156166854142603 12.674787662653834 0.4032186525852991 0.3977704849865343 -0.24972867895253767
P 2.715336488628462 8.5381364481785 1.5234899737451915 -2.1336099037884413 0.09933019976090635 -0.7224463068699235
P 6.1920959537693205 7.711739944620867 5.795822747936854 0.7182854906240146 -0.4413090316991174 0.34151114827317314
P 4.778098573206183 0.8757366543830647 12.832213538862252 -0.05848205539629282 0.8255704264556233 -1.4368602303536737
P 4.011877188791101 5.999524687655908 8.18523395604338 -0.04823929462236208 1.3024576123696665 -0.14868998114095683
P 4.846700386000141 1.0999511075825175 3.9302924625167788 -0.1338238626624018 0.2304286930723451 0.16853221267786458
P 0.19371508319569702 5.755041723192658 3.5158986905837586 0.43585597900434614 -0.4882092957950818 0.6719053606975783
Ni 1.2698909413382775 1.0594957214842688 2.7223844336953538 0.8260003149041905 0.07126789430705145 -0.5147165980569909
Ni 1.9757557923233708 6.472326603571853 4.730842872543392 -0.06233639614537651 0.32912665856589124 -0.03775227904810917
Ni 5.969627613086439 5.498032102181944 9.162473718389814 -0.1843342127071277 0.9521280944739151 0.33387522899447014
Ni 8.58945855009417 2.346720797987065 10.260218828237107 0.27137659623961646 -0.07763780238913726 0.870491969558662
Ni 2.2958794439331 5.289324035201092 6.950388626752007 -0.05202318714482653 -0.5844315460546258 0.2569766187642026
Ni 0.5353726107240905 0.05712917325649997 9.214209444880838 1.1450857871839957 0.9684540853274481 -0.3361925642737371
Ni 1.4646301081865511 1.126219896403264 11.316250443902785 0.18958929045847994 -0.7883192554136487 0.15722192987136796
Ni 4.219333497188646 6.920701085684528 1.448640252891934 0.3291425994054912 -0.0952611718978553 0.5154568186571251
Ni 5.5107220315881 7.778019654535643 7.972965633671594 -0.14846680938655718 0.2914533123848336 0.22626376306137808
Ni 5.507411220842391 3.111608787389491 4.824066232428177 -0.30713189946235486 -1.386718062281644 -0.20045322975617735
Ni 0.7774418580930036 7.3500996333313875 6.806265860241277 -0.04603508788219168 -0.014555529216671708 0.4444861438755184
Ni 5.068878463823125 4.489695209754655 6.958526871686391 0.2996834136041097 0.4312812151494702 -0.1763599362523995
Ni 8.302678844515196 7.3336000038890745 9.199181992381071 -0.613828254049188 -1.5695867461868387 -0.5106542550621592
Ni 4.733561365640622 0.38020987775143755 10.498985428503246 -0.5029913392002627 -0.3443439897362779 -0.15718799130963898
Ni 8.181648302652206 7.142579829933242 4.904969748053176 -0.3483163441204646 -0.012756528334719965 -0.11257009548994806
Ni 7.213866574181254 5.973682222410637 7.128538364085687 0.3481535932903552 0.18110876379129454 -0.6416835856985594
Ni 2.297221909660127 5.290339955210734 2.5251571698948942 0.6715358931733015 0.013893727262956719 0.10033652953823365
Ni 2.244421281301852 5.236459911842214 11.684112358179885 -0.4239592275667602 -0.38132622338758204 -0.7631057322624987
Ni 1.0948624368199351 3.402388678006432 3.8120312097515017 0.09030125678941868 0.03547505297815826 -0.06769508935412857
Ni 3.6498468367836345 2.618062147705229 2.635599466871676 -0.3433818829333247 -0.4262804195007691 -0.3561823771321027
Ni 1.1670018282188974 3.3472205931971164 8.45185399893102 -0.17391713113886176 0.08212360607463276 -0.888874842941224
Ni 3.8321954078000235 2.5068551895069042 7.007966800369911 -0.661971389413318 1.0376285874405806 -0.6819028382299225
Ni 4.027106918221361 6.855709417210548 6.0779364780429725 0.6244569374076276 0.3066732146583815 -0.8637939887131962
Ni 0.6537699242049448 7.297661833547985 11.261898723386931 0.41131377088860777 0.8479899318014041 0.27329798163204544
P 0.1730864645713389 5.606318290352548 8.016603933442909 -0.0017820316010872536 -0.5104786487162435 0.10079264323904577
P 8.475276397581894 1.6232134075488116 8.091652302940908 0.9609960863875062 0.2820237915408175 -0.7706634900050985
P 1.8662994819988041 3.213445697641742 10.570489869896184 -1.1027715997968168 0.26792103359084823 0.34564265394304344
P 3.971213176262301 6.071963412629139 3.6839844703219216 0.3292762967698781 0.9020967409481367 0.676291662690732
P 6.851155918595902 3.9996498658179087 10.432127914082987 0.728127673525417 -0.023979393633732898 0.13200943516148234
P 6.376793839808006 7.763343238682063 10.011056282229443 -0.7577665794377724 -0.09186525884242888 1.1203144937765868
P 2.2769942166110027 8.600488538770286 5.7496364844985 1.6638346463288314 -0.6542984462490925 0.6286254669630206
P 7.050620927631885 4.163884220233803 1.401896140519713 -0.7661411766547127 -0.3740394599181816 0.9882909175477174
Ni 5.341916037128815 2.8110506666797446 0.6167505247107358 -0.31749138831980805 0.12083413527095319 -1.1631485582229775
Ni 1.5768167035370309 1.222360398030021 7.037133682432449 -0.7000774522564202 0.33573567924197667 0.49292058522782206
Ni 6.784504309391881 0.7952268077618011 9.133412963685425 -0.5010614691674015 -0.6701330992885038 0.6202593543865125
Ni 2.9514925372983956 1.813934247930376 9.268308999537155 -0.22147482631316698 -1.379278061063831 -0.518495605483449
Ni 6.281587621761545 2.185380001455776 2.6667446717387047 0.9744951493152055 -0.3663184371248401 0.4169180044492626
Ni 4.106412173974049 6.934125742954799 10.443652256692365 0.09363134960391617 -0.6704801982152775 -0.9742796908702899
Ni 8.07033249588142 7.481107961003362 0.1057445740036241 0.11631902100941902 -0.5495015669466601 0.2384052835199184
Ni 7.887557601289556 3.802125989657491 8.444685413362983 -1.1904891550194594 0.41238026447990916 -1.075639262356399
Ni 3.0863287064352716 8.376868217362185 12.329706847521523 0.5127988122089878 0.06753259563433532 0.2079001729525258
Ni 0.18236580537369504 4.9583608799170555 10.339594835561895 -0.7345893699903606 -1.3427676248426228 0.07474016912636805
Ni 8.566346369874813 2.4015532663646244 5.834111140371679 0.891126357979562 0.6522665034207282 1.0064287647990087
Ni 3.748354794861433 2.576454780881761 11.435866861395208 0.12696107410429747 -0.5392027561238134 1.0743701658359883
Ni 1.1917104541676933 3.0845327049896545 12.750938123948009 -1.0147848500731877 0.8744314138223843 -0.3863532442885282
Ni 3.0301809844738012 8.337446892702323 7.909613043284599 -0.058559188491131405 0.13192124632305022 0.7255959082424988
Ni 5.696063938347184 7.928375815962677 3.5728918031246812 -0.7522528487083948 -0.2059235088421292 0.5842117167343358
Ni 3.085974948574771 8.559833596955857 3.6440107391568155 0.9707156276681153 -0.8636849739391577 0.7399048686660031
Ni 3.209799270464276 4.389191694515059 9.301750909283125 1.0291503747662405 -0.42043681623579854 0.3808821938716279
Ni 7.341990414682995 6.202273295294485 11.365624156371391 -0.5353162765852135 -0.6337180509945796 -0.44165150264020064
Ni 0.8736413193631777 8.917700491066665 0.2567311500794982 -0.99025986834863 1.4455207342421492 0.13840016917917455
Ni 4.654863847750845 0.34498829384572016 1.851219419355679 0.7437849204466996 0.29680454939441786 -0.9466665571387115
Ni 5.959468412990018 5.6513906700660455 0.1337839662697466 0.4776873132178355 0.0688957945304491 1.2855582655111666
Ni 7.890315098458584 8.849443365418836 11.30067784146927 0.0069018693261558555 0.7527788964151939 0.05635729574380616
Ni 0.14660088567710655 4.9049071601240115 5.700874138178552 0.0002445119106382886 -0.12910820235428733 0.4584150952517847
Ni 8.03108351479462 8.73687580006474 2.9315324303232395 -0.5647736626143822 0.8664244843575079 -0.5516810910964821
P 8.59478305943042 1.7076980412078 3.7998564969216653 -1.1633349632021706 0.003629883443103426 -0.9102635930296452
P 1.7973166992012297 3.147773725589876 1.5597864373039676 0.268334466979183 -0.4161325324334898 1.189040852608707
P 4.711691873290201 1.0267323011733105 8.191805688605752 0.8931708992134165 -0.8979312967165374 0.9968125818654833
P 8.651039629964353 1.5015660571085396 12.632649659039616 -0.40816879750172286 0.06821728040618573 -0.5209281261843415
P 6.475338080743292 7.903304361439009 1.4682094120776652 -0.8403804948852625 -0.10912610280540562 0.03030585007239297
P 1.9745675287406643 3.270001601749944 6.099655396534822 -1.0668347766908917 -0.0403236393197112 -0.7127583901581982
P 7.011743845834331 4.072750752940283 5.920948717338713 0.7920915779718875 0.13953942498994032 1.6623845441458658
P 2.391203581266395 8.300764923782744 10.231516366750407 -0.37856948657805123 1.0508682260593063 -0.3516886030268072
