# total energy = -340893.0035850809 ev
CRYSTAL
PRIMVEC
9.05567678696514 0.00000000000000 0.00000000000000
0.00000000000000 9.05567678696514 0.00000000000000
0.00000000000000 0.00000000000000 13.25389833956436
PRIMCOORD
 96 1
Ni 6.436449024614857 1.7516667194431987 11.350916797994843 -0.532597849212786 1.475292566187943 0.7105454416672795
Ni 4.614836258008149 0.2996623046727644 6.037707655128437 -0.5682287110425183 -0.2433914238806002 -1.7372136734416148
Ni 2.959241213132231 1.8948913028116707 4.811390627284262 -0.6151392595511276 -1.1286818919046755 -0.6335241898162186
Ni 3.135020954392057 4.364872412869053 4.826221109086396 1.0332476847640655 0.0762020983838752 0.3783946515630838
Ni 5.169025563330844 4.598988823707767 2.5660609347337324 -0.4376166704491947 0.2389958659160658 1.3852954709025045
Ni 7.362527806745407 6.125513307964639 2.350446177048794 0.5230575138225185 -0.2742585457731019 1.668012688965921
Ni 5.00412168983945 4.536423153089863 11.56247551806656 -0.27396132624765723 -0.12471058750722391 -0.3316540529734353
Ni 5.542590340336167 7.82022887637064 12.67727460352279 0.02373822415720428 0.6659666266156402 -0.8359026616195668
Ni 1.6780350118452572 6.4197594123773705 0.5149764138898324 0.06094774332796599 0.5465167732867233 -0.11757166246959751
Ni 3.0174963816204317 1.8873750911149185 0.059331888452952154 -0.8788884211524736 -0.7047404049497282 0.7604603242198517
Ni 0.6589308848037961 -0.012135512403394617 4.680534287211482 0.007474454000174224 -0.06443441632498581 1.0923380631683188
Ni 8.854142657157725 2.1676935646968007 1.4207514631947344 -0.25626827984326833 0.4359752781910299 0.13589102960407562
Ni 6.9411490565366485 0.6405170717144277 4.596041200927897 -0.3068495923352457 0.175339208297369 0.585647677849914
Ni 0.7787447326560709 7.502745905435179 2.6009053677057357 0.7877600404760692 -1.5750431413157195 0.666940046272503
Ni 7.602765855062441 3.829781529797503 3.872776071838274 0.4628520479772158 -0.050540946172345225 -1.3277765507504296
Ni 7.652825636098158 3.7809261537686143 12.703344991298428 0.2565940386138032 0.08662946436478629 -1.1316389176504704
Ni 7.99752091564656 8.766021866770865 6.866672454298578 0.8784631606895968 1.1802533362240641 0.8434372794337152
Ni 7.050804246218542 0.7353743800304625 0.34737304316132855 -1.4793525951899296 -0.5789566389829836 0.37970437151344283
Ni 2.048484636050963 6.42865208693907 9.102327061816807 -0.22501754935910281 -0.047780866928704806 1.0403737542858857
Ni 0.13471043609463296 4.6522452586337915 1.3191739371676636 -0.5689841011513039 0.41167526799308457 0.9403884374394837
Ni 6.285536171691515 1.895896482930152 6.736214564002493 0.5463835901429687 0.809226180769645 0.7014218820994566
Ni 3.210355129217697 4.4954733828576785 0.710899602496954 1.726301140294169 0.5495038809395053 -2.131099221551446
Ni 6.1078456826389 5.829519457940495 4.853273132220984 -0.5381092659493184 -0.7721814693115218 -0.4524547639032917
Ni 5.280346997533463 2.876535717437728 9.327788962392166 1.8799934597457237 -0.6048921279018228 -0.7845045096532489
P 0.05427700969496777 5.687517390932338 12.46457577374912 0.317525326881537 -0.51770190593756 -0.3148776048460448
P 3.9396178330142577 6.14462984156927 12.565981241918074 0.16316400638741577 0.06625398603222783 0.7529804709030387
P 2.406057087928017 8.523882126337785 1.6809518453242014 -0.005116752401275059 -0.5112944597493194 -1.9814471336075357
P 6.479671769709554 7.7913231562067455 5.8880571635430785 -1.6558873664572966 -0.26263021750555415 -1.9984256704434034
P 4.858153236417826 0.9949109810546622 12.738268208658095 0.513184991903813 0.30504647768823595 -1.041296266100155
P 4.25669329849628 6.003696344416796 8.217032331034043 -1.151175445021501 0.18675387789221384 -0.7049851739706826
P 4.659707136270084 1.0757419516633484 3.7810855336792923 1.5670624371030881 0.18497673138713303 0.2107582112266112
P 0.328184064142753 5.557975935122651 3.6172801137768342 -0.9190631935991462 -0.09581987261480272 -0.4226615918012592
Ni 1.6374655800362818 1.105082344310911 2.8212381329738156 -0.07303501350980325 1.2155738659022293 -1.0440987685459568
Ni 1.836862526242047 6.523944973306447 4.959171121622175 0.4114572384450075 -0.25815264135017474 -1.0548192402872543
Ni 6.20803769012428 5.833938628191115 9.244143487451732 0.2964875323746313 -0.8415894275916989 -0.5533381670839309
Ni 8.682818308855492 2.1995786025091673 10.204772393060134 0.35851411058907284 0.4037110188406854 0.37471128917422564
Ni 2.250453394451762 5.168011327535619 7.085493827118238 0.31230007392685577 -0.12922827287191938 -0.6093396221502152
Ni 0.7181468605944369 -0.16463763659514677 9.043545758509834 -0.02937022563200103 0.4880090068588176 0.6953887885314991
Ni 1.5034868426224892 1.0090740594808314 11.39426994483464 0.09088618275861121 0.6753676082145659 0.2298561083983267
Ni 4.083856652177954 7.020766566461763 1.4560731303310979 0.012515358858191349 -0.6433925979698661 1.1537270077987611
Ni 5.51014385056573 8.02936067507521 7.80495557197577 0.880264989785026 -0.422267441686634 1.8988779553550523
Ni 5.2879809330278755 3.080677838256865 4.730475438881865 -0.09755099637329652 -0.25834213165316156 -0.2793729841815317
Ni 0.807732859478328 7.303693074945651 7.0397816764868715 -0.021112356498582993 0.06338052113917471 0.1554391269393323
Ni 4.785852713301117 4.53653182121078 6.708075859658736 1.332880447635898 -0.09178144087937097 0.3627687721003688
Ni 8.295959798391335 7.0850890383678236 9.316880494187457 -0.5701961191815342 0.468906738811728 0.2077983572673389
Ni 4.450358001323679 0.17701221886455853 10.570646183807565 -0.4581191612779207 0.7062123615095643 -0.0629999978713044
Ni 8.332961293563539 7.0611096063521614 4.902113113599409 -0.04422297437411739 0.27956170315357015 -0.65996824294036
Ni 7.269553173624258 6.113043641089424 7.059808305604181 -0.007405034214819505 -0.479228175342394 0.7571145476760702
Ni 2.3877012311698045 5.112753588049376 2.6886594031845026 -0.9688199533072993 1.6212895738777693 0.1658227841665015
Ni 2.1925876200635135 5.502754418343382 11.454681269955367 -0.0676953464644447 -0.3479203942336266 -0.438880881873599
Ni 1.100717508120749 3.4613784885357317 3.66449097890918 -1.4119503544858716 -1.0826707152818837 1.013147571580081
Ni 3.767677698693496 2.731101548943946 2.484324396450739 -0.04071239011769763 -0.6912392851394998 0.7890389071884928
Ni 1.1040681085156865 3.3742809896208374 8.285687944261666 -0.6725139408158547 0.007805354977031719 -0.13809806455772344
Ni 3.4071440405214566 2.6444115554824905 6.954320538359451 1.3976984725525476 0.2028320144009991 1.1482479869620612
Ni 4.079790653320313 6.876699805156186 6.162691388833333 0.16488484573326442 -0.4339307369571752 -0.9572854703051383
Ni 0.7002981217338363 7.670167257061147 11.487445613979485 1.0184836390810137 -1.3481741405701748 -0.20352698358549462
P 0.18127382033984957 5.481464522320413 8.156143771748956 0.10068542823722015 0.0027415673008791496 -0.6411464822481668
P 8.566353250262807 1.556779500255485 8.008575180246831 -0.4424362033250251 -0.020105769610939565 0.6319740717202793
P 1.8901280168448134 3.3718359569002074 10.433150221546763 -0.6270133852808943 -0.48610536207820154 1.0185579439623749
P 3.988527543103605 6.091545464501365 3.681402455226873 1.0056687467045324 1.2867538284811646 1.1351538727822645
P 6.836700880982024 4.069702629428528 10.483634713821731 0.4905505423337487 -0.6099482022684916 -0.10014369680113722
P 6.169804622915018 8.066570450812506 10.094566618232262 1.9647267355290614 -1.3585806806154797 0.296096981804432
P 2.4795257933445836 8.38173516850174 5.938289908004589 -1.0943437807444378 0.8615869537595484 0.12279717253459496
P 6.864420307492575 3.9928833236170242 1.438856477707164 1.7007772849914515 -1.0058602938900483 1.5486276274366684
Ni 5.118078325974304 3.0743116975064835 13.703072686812732 1.006699501961892 -0.7542565094019849 -0.8137220117574696
Ni 1.384640141046375 1.0551946211333116 7.092081831948826 0.8644084823687436 -0.2760220654314278 -1.2842845410050654
Ni 6.740873709686805 0.9612148078936807 9.078443619974621 -0.07838316519559403 -0.9232502350973002 -0.29884574819416276
Ni 2.6547893610300544 1.7340262611476889 9.089165541238422 0.5594406804372429 -1.2811256836611098 0.900326022200959
Ni 6.278019959994763 2.0098078406812907 2.5249209952899436 1.039254295969462 0.37792748211867816 0.05269604484213505
Ni 4.342079274506734 6.721802454465889 10.277404353945641 -1.1420182040022655 0.8841977491805288 1.2875151321272214
Ni 8.018819867346272 7.2125024101428865 13.546279077412436 0.25206684016741104 0.6530414339135399 -0.10215044281852084
Ni 7.699933266515634 3.623520380620487 8.403303073800721 -0.7858355697598466 0.5144831418899461 -0.8982007483278401
Ni 3.1003105454358515 8.178842731073148 12.761383729112469 -0.4690260379984115 1.3559537845155938 -0.8644725028374596
Ni 0.017950162440122982 4.860942384854694 10.268908318025288 -0.17128534994296954 -0.4843852940633012 0.9695843422771496
Ni 8.710220786680038 2.2576436017857633 5.896315035165089 -0.5599371604576873 0.6046144487604039 -0.7677432310345099
Ni 3.916507745965931 2.4831027856580983 11.127230715628803 -1.104257440313724 -0.22550220230500517 0.9800374192896736
Ni 1.3380486842032546 3.514906593764047 12.745823359764842 -1.3083222986805596 -0.4434134796366299 -1.1669944143316289
Ni 3.082878367705432 8.386516565822083 8.08092822628865 0.3736890185572984 0.4384851890970771 0.09112580957324307
Ni 5.637847003996572 7.88608175764628 3.6014154736906416 -0.7937571385997685 0.049974532145913936 0.07628000280966217
Ni 3.1110143553461653 8.495637470576135 3.775969076319455 0.7614705106519207 -0.765761681828107 0.41359228251013924
Ni 3.4824872710238393 4.087623813703074 9.193314879460527 -0.9070389154447606 2.083443824457012 -0.33350653280114173
Ni 6.965635606449923 6.073207719096639 11.673768879671275 0.9411481984236437 0.007055621295200752 -1.3945069621984434
Ni 0.6221095975987795 -0.13631510201350583 0.35018754749307623 0.5009347137815502 0.7606073913206771 0.3206330192725833
Ni 4.537020827754906 0.41800822732498677 1.6196132189049839 -0.21595903870126032 -0.4644309624285615 0.03359480523630989
Ni 5.8831924539967 5.56939514349567 0.5117553096723206 -0.7371910692792658 1.223735318667099 -1.3156915945614374
Ni 7.906411751934484 8.949136706192581 11.192148145496883 -0.21790150713961182 -0.25446336542404563 0.014625720332974811
Ni -0.15888184845724837 4.8215954694060335 5.880317276630772 1.5911783563146855 -0.30078076043334656 -0.07330137979731247
Ni 8.059796804608686 8.757482363602145 2.454237816039547 -1.264500416399603 1.4809554209006752 0.1859072136212024
P 8.643625339911464 1.6462948648607796 3.596975475383512 -0.7668325462947826 -0.29418202416990624 0.26350207858754615
P 1.882340134845769 3.1050738314027084 1.6500312370849723 -1.051063629899564 -0.6169778554217632 -0.6832431543079007
P 4.606550313788236 1.1104342492660682 8.07261783174153 0.2958869226761549 0.29179038400927815 0.7360852378095968
P 8.53703096896873 1.7500276419527023 12.499340516765786 1.345130468647845 -0.9008078469333841 -1.3588341913871824
P 6.2632682625802945 7.915684764919392 1.4796387179196016 0.27777992866279905 -0.5837453186208785 0.39000523921881863
P 1.6599327140358504 3.2242284259880876 5.99396964202706 -1.246611451934324 0.4039334192641366 -0.15329045602744568
P 6.952024924305081 3.92810806787381 5.935824952795125 -1.3691774822947194 0.01584133790763078 1.0560351149722265
P 2.488934641480638 8.325173411564494 10.278093490945789 -0.867766343097383 -0.18969881945315073 0.4695577421321655
