# total energy = -381176.22027644963 ev
CRYSTAL
PRIMVEC
9.14979149153407 0.00000000000000 0.00000000000000
0.00000000000000 9.14979149153407 0.00000000000000
0.00000000000000 0.00000000000000 13.39164472296523
PRIMCOORD
 96 1
Ni 8.94143238811435 0.9092715039762771 4.81283696072291 -0.1272408101282454 0.21772384391116695 0.6358320120137889
Ni 5.753946993968632 4.019832771538071 8.263850072992009 0.40038452557061366 2.2960385746717296 -0.2937493075078618
Ni 7.855681536825601 2.599428298376758 1.3621578158413252 1.1770235164328569 -1.5261914099203393 1.4937728843803177
Ni 7.923609588466939 4.065160838325677 7.429081660784961 -1.185275986249636 0.6270213557006943 -0.062004466727254494
Ni 1.6271714600943605 8.696474171715927 4.226242001625863 -0.7502581868758692 0.12704257807451022 -0.048008152448162485
Ni 4.49513698740722 3.4832798517778785 3.5272656441614187 0.047886796378949784 -1.9337541984069473 -0.9711946241870629
Ni 6.977896295148378 6.653270844692692 2.2869986049297926 1.7573590380412378 -1.2682285159834674 -0.6239753697855189
Ni 0.6347823357092642 0.9080207274865989 0.822463772680207 -0.10752996196287933 0.3943599166430886 -2.6020186199178283
Ni 3.9890437233466516 2.663998376560072 7.023261876080882 -0.15013648377949626 -0.6202241302732028 0.3552030439379689
Ni 3.3044837772731133 7.748098289088688 10.991848495728759 -1.0389881867922688 0.44938820916282607 0.6238707258868545
Ni 4.177767321562468 1.8677286268107403 10.219927255977106 -0.17458690351237674 0.038881250446229816 -1.084674890196106
Ni 5.851438021748596 1.8840335551546066 8.027581413522974 0.5082204488096861 -1.5126018441613627 1.8902205367903704
Ni 8.08079385559336 8.554423659629213 9.21791072104015 -1.5496110743958602 -0.7692000180856946 0.637396014066799
Ni 8.961049540959047 1.6093110672059054 11.781835083697096 0.6654377506953637 0.34623092234634567 0.5492830231779507
Ni 6.317812041173516 5.844950819618517 6.1326632664728224 1.7537132137585345 -2.580857155348865 2.0972912718630656
Ni 3.2114029489666307 4.159449439102076 11.343955344770754 0.01335173871655765 0.38632239105059274 -0.634152567428837
Ni 0.7076521897066748 4.079992650247903 11.150392421862978 -0.9252765214987096 -0.30470734918126235 -0.2918317787701748
Ni 0.2558647677934215 4.057044973319499 0.23074859029403147 0.8321887031030893 -1.0684514863587082 -1.1523949192508993
Ni 0.27979238738491685 5.140270482171151 5.737382211547906 0.8615949241793484 0.5944827596430406 1.720172915909244
Ni 6.297737398756882 6.6036972746775024 13.073111295220654 -0.5379436869057317 1.7886521917275648 0.5782282454573913
Ni 4.9784106716195256 1.2153301976444357 5.063755351264539 -1.319568046797708 -0.1180941106319708 -0.499029012118405
Ni 1.8548182710906531 6.279263969842031 7.531433972756337 -0.40812534585829713 -0.8888121080240887 0.893901606731854
Ni 7.188478745111388 2.875001716929264 12.679263097635044 -0.47473697234025986 1.4575426984036899 -1.725294039185893
Ni 5.192726236489549 4.627360623488708 12.575155855665715 0.08541024724570452 0.34196469087082393 -1.1761100034796519
P 1.292975327793734 7.9893874391201685 0.19030285221814677 0.40550744861947585 -0.46104559089609637 -0.6051222416347578
Ni 0.4067375087853856 2.7050168915800223 6.682724938313197 -0.5821018694801846 -1.508383949425273 0.3111268795543609
P 7.945303743968234 1.4446148213082661 8.41220296142174 -1.4138298308967714 0.3457501260551851 -1.6179715652481295
Ni 5.573311811384676 3.65539657853235 5.7481094270307045 1.2011993423481118 -0.19348631152004098 -0.8965742684680108
P 3.069572031874447 1.248104750578066 3.475279274143829 0.9953907618172921 0.20155623301236902 -0.005719161871964344
P 0.5249454943409846 7.370111254962167 5.949545745471532 -0.8018358018428449 0.856891348056092 -0.21450790807703055
P 5.09711091595453 8.29113841097896 11.872456448064842 1.234908561675099 -0.01770461636861467 0.32737059510673294
Ni 0.7604071422051203 3.330460035167747 4.417368335073498 0.3390387754732806 -0.019254734464553936 -1.157870854763806
Ni 6.428021279053354 8.223338456417766 3.9818044083603064 -3.400855487033349 1.6656133354958087 0.059025329494272534
Ni 3.8679279340718153 -0.014918734940894497 13.359062407222998 -0.1278668737480185 0.04156393948471552 0.18706832380883912
Ni 1.930514495663496 2.608230397740843 8.458242881983281 2.561783426546865 -1.4681091610656265 0.09260445100129858
Ni 2.247929910465441 1.5455827698349576 5.489475932347915 0.33518392050356466 -0.11962417412325205 -0.059063381821059566
Ni 1.8819657022894474 3.676450248632932 2.26147343175309 0.5302764001684609 0.6005623901782173 0.6605071461629657
Ni 8.403891290878772 7.787213647489377 4.068220528582797 2.489465493708745 0.2371996932475915 2.294464031095758
Ni 4.039330977094064 5.504615177262484 6.998058775562824 0.22801211321105247 -0.28820780886434233 -0.968139639410823
Ni 4.016721842448893 8.085844540467553 3.8273852082066795 -0.456798128473652 0.21614750056298263 0.475799095056187
Ni 6.8033274242883195 7.535301589597499 10.862432015660682 1.0233805621619987 0.3579839491172157 0.5208453366625482
Ni 5.092691566689609 7.821781559545005 1.7462569106489363 -0.8992605570509222 1.5120989363830153 -0.7029737999676087
Ni 0.4985282164990033 1.1124041937498501 9.530940640805499 1.7660437102994295 0.20372058765353945 2.002593428667848
Ni 5.2783042358162495 3.3282823848053225 1.0027439433563383 -0.8983053922265045 -2.375456608889741 0.8038870279449187
Ni 5.15375727475188 1.1537063523044024 2.390756324866161 -0.18218219936113142 -0.5160427730675823 0.9843517303943111
Ni 6.96749298228251 1.9838486299600149 3.7697881860788436 0.3854595288296652 0.1748635542125311 -0.1688823969284317
Ni 7.886452285434144 2.9328832975708456 9.90608117481542 2.9704841852926585 0.293537705717688 -0.4669825252058215
Ni 7.719743085419978 8.763011455058574 13.117959912936868 1.1285541080775594 -0.6874811036486482 -0.23826053041193804
Ni 3.1628816049668984 1.928931581744591 1.2892138485332607 -0.6513529904675235 0.44652194335862455 0.004824675082152982
Ni 6.665970755209687 4.145313011329195 2.543180870486139 -0.28091256075450977 0.04009789646215029 4.267497486718302
Ni 9.20798411230824 8.086320329622367 2.072329858110234 -0.25571369289137896 0.12442262395315991 -1.4321463698177723
Ni 6.150114663683964 1.1250217561438969 0.3093498736486799 -0.9074443784132953 -0.3389063636604744 0.6830814319190558
Ni 8.941249392285576 4.709818543934793 2.370187593711834 -1.3025817966523567 -0.5051045288885236 0.6497905310764099
Ni 5.122922477603266 5.991768373044824 10.432867607193883 0.6130165567811701 -0.38488720126596293 0.6992104762704345
Ni 2.4497651598129977 8.822238055041653 2.0192994968894817 0.5567379367940992 -1.0489661239405872 -0.6867100298105786
Ni 1.2680055469573641 7.894769445851975 9.316674484809242 1.1759467384289102 0.4919769903676301 -0.9111434245314372
P 6.931067662564816 4.74571317574904 0.676745109205695 1.8629843267822368 0.9112174723024824 -2.625022022791537
Ni 5.2129381257777645 -0.24936567093447184 7.207409663598177 -1.035195809629372 0.2045204578470155 -1.6924875341788335
P 2.8586967885853976 0.5480807419938836 9.158344663794692 -0.44026362115373857 -0.6458855395950489 0.09588646418668002
Ni 5.239948310104977 5.644204395452173 4.051254070317909 -0.967749860171572 0.7206133674262428 -0.11200008191909099
P 3.1674656504777166 6.176383714904638 2.85140257485042 -0.07000779664770523 0.4311668010587929 0.03493100754923016
P 2.0525910130394016 5.781853857856843 9.966463393457216 0.3640514954675343 -0.2860059161170171 -1.3021961311781638
P 1.880016796712992 2.860462698333078 12.448805470708766 -0.32931280643476835 -1.0972614686118651 0.9597488442439664
Ni 0.7299520614012152 4.360580154508848 8.727964093931558 -0.8485728008880677 1.9698851398015498 0.5969525613397719
Ni 6.35366092403057 0.9615241329247348 11.370443990985958 0.024403625655345068 -0.4342269280413554 -0.7221868825609498
Ni 6.165202669766476 6.991117743777383 8.291999406353346 0.3905672823698757 -1.47267081229438 0.7582062380783523
Ni 3.711567148174884 7.140863230464092 8.8434536764507 -0.22691476638181565 -0.19105019127472259 -1.1303119713089307
Ni 2.383657916667973 0.8683600415161596 11.616260457821335 -0.6021009383099308 0.4614227717298569 -0.5147001429967587
Ni 7.216312410668088 7.981838861183194 6.327016731360907 1.1834304484004652 1.3485150688493615 -0.4745636799871891
Ni 5.9524883183982364 3.2513143392224926 10.507526245417573 -3.10628316940356 1.6053973281275449 1.8082211149984277
Ni 2.8931000043951265 4.770646357419654 4.558354726415884 -0.6280932486086344 0.10988020736261077 0.6274818402768806
Ni 5.314985749694229 8.860465883672783 9.386565166714195 -0.3639923600948247 0.8984928256469623 2.200078319824321
Ni 8.738032524430766 6.330200858781595 13.399277570554625 -0.6327117212172523 0.8075675621202996 -0.3428573778884224
Ni 1.4522548971596287 5.912988668757119 1.416662208462861 1.6264207244567475 1.2067251572623476 -0.6136901858094269
Ni 4.232345827494658 2.3609755836912925 12.567053715346695 0.03446563787703741 -0.5361860807846766 -0.4924935249927325
Ni 0.5142969670645584 8.436711592769596 11.5414819573298 -0.13272291628873917 0.19562444090896633 1.0277743203543201
Ni 8.615965156846299 6.603404481351462 7.7285186503888905 -0.43384897587664634 -0.2368235408550954 0.7514218681666672
Ni 0.8933755713097232 1.6501831855628364 2.8718514437368996 0.3149781349796511 -0.49838495077650297 0.567766426694119
Ni 3.578593229195418 6.690794139383037 13.55582592717605 -0.5728381847900715 0.996906170020554 -0.842389297785175
Ni 4.938380334074961 5.555588665367803 1.6408375885872892 -1.0078624119217419 -0.4439986627161386 0.043431588821073584
Ni 7.4942007264546 5.184509723777544 11.597458551393833 -0.7718677947258448 -1.6973026961792896 -0.17372738372555885
Ni 7.032438201914813 1.4639300310354837 6.1175706854945915 1.0449893986810261 -0.10216921187159823 0.6337283354072247
Ni 2.6222753275993362 8.739185398152049 7.154660200974595 0.036629478297575624 0.7544441999327588 0.5247194749059738
Ni 0.866302253421583 6.288020320248922 3.6929738569921846 1.5497535135109954 -0.500514595524996 0.20657271239035394
Ni 3.0814942101191485 4.393812197014416 0.26829933435869324 -0.6499411977216613 -0.8462847761848392 0.7860466573293882
Ni 1.7074334305951433 6.109407241572932 12.00538187314968 0.24776281347541848 0.41302124049801775 1.9182671585149416
Ni 0.1709528732834619 9.266725773345065 7.439540787378604 0.7106714257221826 -0.6196078368454426 -2.6634402175584198
Ni 3.845693940875634 4.553155814920382 9.236659558677307 -1.8939820607153317 -0.435585756062095 -1.1807770699380182
P 2.297512630272069 3.624433684303594 6.401474074172942 -0.6774769412480849 1.4214770630293843 -0.3514446053368012
Ni 9.021456464037726 6.437107021952039 10.545076074503088 -0.11696153968942435 -0.3359274835378086 -1.5636981486165458
P 5.126984985002075 7.340694675486561 5.68747192920777 -2.2433924092309234 1.9375445186873148 -0.7662321937066223
Ni 7.605873930964638 5.498594614495781 4.295477558463799 0.7154055979730582 -0.7604754937285032 -0.37568907970646265
P 7.894394304402986 3.4073182832533115 5.261563777399899 -0.943128462078466 0.07556600746177308 -0.21069984718485002
P 7.420453407458212 5.2419795638043825 9.36007652049899 -0.3020665691243056 0.24970116814871185 -0.1061518506684301
P 7.050399242509094 8.797615966279956 1.8473236769231667 0.023904060311107218 0.8882246109517347 -0.056026394766948664
Ni 2.5586568277256534 7.027296019126231 5.480061711936576 1.7342288797816776 -0.8199278834578654 -0.4311642299556316
