# total energy = -381171.5994182925 ev
CRYSTAL
PRIMVEC
9.21666980139019 0.00000000000000 0.00000000000000

0.00000000000000 9.21666980139019 0.00000000000000

0.00000000000000 0.00000000000000 13.48952788959106

PRIMCOORD
 96 1
Ni 1.2598819103869696 0.8675605305478599 12.386070712274751 -0.4478656018707125 -0.8541140424212709 1.3149742567794385
Ni 6.595882173016794 0.43473925977834676 10.255171098455667 0.888973059081985 -0.04524164544661886 0.1269155655783427
Ni 6.789588924572091 2.5122798848048236 9.434818351200677 0.30262449851030465 -0.3079191712503407 -2.5850418828541737
Ni 4.5445832505657675 8.359197027375474 0.6724768085076045 0.5393631929610775 -0.4758718572756514 -0.4297552654232469
Ni 1.9091502223873944 4.279880490672912 4.7417987883568316 -0.07983223893729477 -1.3127906188645586 0.986194697140321
Ni 7.479889851023874 6.958069650576317 1.1563713339313748 -0.9706168973067218 0.2560952446005138 -1.1638738664247763
Ni 5.973047270326004 8.395741123579345 2.540253399656871 -2.1612937428569547 -0.7086847343094569 0.5974086750405839
Ni 4.183418823366553 3.14580612459435 9.363364274368458 1.0566897178370898 1.1625687744601074 1.8618784953125675
Ni 3.7316453142555472 5.422581659789764 3.7143953948469304 0.10349050178618305 0.061791836495816155 0.8715702902245055
Ni 1.9039981039061928 2.28122718676325 9.042705268101594 0.4416964969455231 -1.959681202685354 0.11638149881623827
Ni 1.5417645429971052 2.85681743948152 0.4295392146135993 -1.074547571954117 -1.3270748966977146 -3.1738147365966305
Ni 5.668943246556339 3.424877672881111 7.482816143721156 -1.0525484419752067 0.6014622762846673 1.206092151664039
Ni 4.903858260432877 4.828124883760189 11.974303080586829 -0.49597248468026844 0.9208840488579688 -0.3831303664758563
Ni 7.583881537648912 3.9937858399126704 10.857977255759161 0.7430020195340882 0.004323052855386103 0.07217703638488214
Ni 4.693340302956808 8.492202790885704 10.660180146096604 -1.8664146926200245 -0.26490230136918247 -0.17211118827837457
Ni 3.8147612435283103 1.5838939411680746 13.275395487154471 -0.050377938231919696 0.8996392805465796 1.4403145074508614
Ni 1.486427656841231 6.815589150395828 9.10843947958599 -2.3191831311089928 -2.1782056881209457 -1.4256718178370222
Ni 2.4005461954531144 5.559209574575686 1.6350796391952667 0.8264032067695638 0.1299723501267955 0.0312972674513848
Ni 6.776501253296051 0.29309194655796594 0.5195473696470828 0.6916606889476347 0.22708523052140892 0.8369223611333328
Ni 6.111417135725427 7.595300991670752 9.146817693102488 -0.47650100621921804 -0.32423924856660286 -1.7769176768994557
Ni 7.685108223300138 1.982431964863303 12.216858182679456 1.226671004256655 -1.168467913553362 0.738480734624967
Ni 2.0323402324405944 1.8909565159797168 6.37109035884692 -1.3518359056924782 -0.32178487348883933 -0.08457978092460917
Ni 1.998671737249487 8.711817601565611 10.0913401824224 1.1570406455530267 1.5762579875594274 0.8465789103864904
Ni 0.7727560204918051 1.069732793417976 2.074257647203572 -0.43340777457416974 -0.08638546667478027 0.08596380575632936
P 6.463226642963247 0.8332376517929506 7.822010794849459 1.2213256807843416 -0.28255523856425535 1.2453420983035972
Ni 4.803663841811874 1.4374226229153844 6.668237640166476 -0.19484976752647087 0.33800519200244367 0.8654693195330901
P 6.979341724734839 1.891362049455876 4.008656015149827 1.2695876011145233 -1.080404030734894 0.616957543706789
Ni 9.228651583590397 0.7809708383849981 10.299282080657868 -1.3949615332373588 -0.9485486046527728 -0.32806016497458984
P 3.371688270814897 3.827388081308715 0.44270614925088797 1.9972365352313086 1.4334090385802798 -0.17173117923113648
P 4.779396349931724 4.392904513812399 5.724874607921582 -2.483287647032807 0.8268513500505759 1.1724603225422066
P 8.994889184594488 9.22164691445674 0.3845618654396043 0.08188243659810414 -0.3235730757375137 0.24623043599129207
Ni 8.584406356692394 4.089547040305664 4.0535623959654945 -0.29854698600682134 -0.8862433188556479 0.4209685203695524
Ni 6.025315005400947 3.8551118244061278 4.139180651119557 0.5065368904596761 -0.9111552516059792 -1.2351849552649372
Ni 5.7607412788868695 2.7438579330314217 11.421704732632788 -2.7384606369293674 -0.9835701150332801 0.6300022927058891
Ni 3.8986513730737413 2.4043342467872355 4.877328076089159 0.04595358391197892 1.6680080609802306 -1.0583912739092287
Ni 0.6817791934504964 7.1034073184297455 13.313435448885173 -1.1610469384989424 1.6392862675655058 -0.9568602098422619
Ni 3.4761223575957443 1.4219847008116056 10.985925832488292 -0.5762911763356785 0.4419695481012518 0.5271910763749179
Ni -0.025871192444959792 3.4467949139335206 6.526772817010365 1.2140134633936446 0.14907513239451745 0.5540272227311556
Ni 8.320569963771332 8.247168404586558 8.661774770607595 0.18407993060447653 0.533071960635727 0.8935285396631515
Ni 6.8936912112360815 4.674953046480963 6.001153505224794 2.0714329160390648 1.457864857629799 0.41823980858447973
Ni 2.324877335469816 8.745310980028378 1.1274678570851355 -2.087160611186967 -0.9453946324048234 -1.114987939357351
Ni 1.2465361723533743 3.455781167098407 2.398842954853247 -0.1590409853579777 -0.4995118652920946 2.384047950103178
Ni 0.7129647177671213 2.65904613649472 11.209663259620152 -0.5401021280096311 2.044316519438247 -0.005890397342505985
Ni 0.8887514980111487 8.03095454510444 7.020598304265075 -0.5121827758915437 -0.7504345645527334 -1.0437750666579508
Ni 2.723267892446441 3.545828032145524 11.818795739151724 1.1041337702516663 0.5619256516426258 0.04223679718202403
Ni 5.449411385905646 8.403280359567937 6.6945558411022015 -0.42321592164283245 0.05468556446833808 1.4571164094995486
Ni 1.7745407583123545 6.901783447419435 4.823558023818444 -0.2632069159446306 -0.01897319866839313 -1.5734889094547224
Ni 0.13289147680331218 5.706722376528512 5.907901082382039 -0.3494286033480369 -0.02551151400754316 -0.26732582320901055
Ni 7.143656515938523 5.070053252298754 8.436674197995647 1.1114002220060926 -0.4798228715035995 0.9591667464882514
Ni 0.38132128429829765 5.206810200463454 10.993075203339574 -0.12667645298434313 0.6845323054329695 1.129936590247383
Ni 2.645387031684093 6.1631871706250845 12.921456929166817 1.586289146543184 -0.4564937098593558 -1.346934354625803
Ni 7.259583790100512 2.2927664574939555 6.242643160275514 0.013826364360131026 -0.9754842527013524 -0.7107760696208468
Ni 5.968936635544938 3.2790423048523976 0.37120045906715754 -1.2564322946794877 0.13933527939893423 -0.37007996104980134
Ni 7.758611165853952 8.339040170276391 11.999677494523494 3.59330178732465 0.7322121280074358 -0.5121758339130082
Ni 5.847129125978642 7.520470848649509 12.39501456875804 -1.738098647149729 -1.9239829779527962 1.0450235943530712
Ni 9.068456643837688 3.4145273525691446 9.073123965481482 -0.3941331453442632 0.17999367635024485 -0.44413364563210606
P 5.500056987075953 0.5665781928776281 12.346965303502142 -0.31375891786056936 0.12466765008443047 -1.3310282249185075
Ni 3.216055582668979 6.283455496315958 10.491561170043688 1.5649806148733951 -0.15036299796800554 0.7742406658333957
P 0.1192729253403009 5.289317829521979 8.070042442204215 0.6049111540652163 0.578093776762056 -0.3717681473855017
Ni 0.1249844956852035 5.1385884097696195 0.9622323205571716 -1.1284240102575984 -0.5765305460399942 0.06084027121582425
P 5.3007557168836446 5.241833546131728 9.562524529511101 -0.9197512208051063 0.16221115555584323 0.7761078009491215
P 0.6307289804710209 7.342819536082141 11.118689197579815 -0.41881959234734967 0.8365351529972432 0.2587550508208641
P 0.9581834374645207 5.367816207168478 3.1675574655883314 -1.1981631266249493 1.7799196969505733 0.9926242548157485
Ni 5.7207962314852105 1.8459883834756348 2.28880881943344 2.0331185938398986 -0.7785089541914463 0.14505289860900178
Ni 4.032127186749519 7.011802836167381 5.3517275881688615 0.9859093046894183 0.45241928267966597 0.3684509100868106
Ni 3.3859556758397624 7.610149046900118 2.8923974720125223 0.7790627698123873 -0.009065195526061807 0.11423617033846134
Ni 6.4739917134212845 7.132264711926421 5.03392759290892 -1.4051533861686962 -0.6394076451801891 -1.6992436219557447
Ni 3.975914716951938 0.8784168460380338 8.90751331048807 0.7637202259180459 -1.1449155801547186 -1.5779580009696694
Ni 1.8052783524712215 9.11314827624439 4.018490201946682 -0.69772977795985 0.2940241584358033 -0.9164926046584926
Ni 0.09298421774829564 1.460528814386533 4.851764720419284 -0.724400859493133 0.40516189235459904 -0.5570562393654664
Ni 5.128634406263899 0.39295364339512123 4.500538628386938 1.3291559475964592 -0.3315463237509774 -1.047690856772589
Ni 7.957350219181586 6.374894078519893 3.4599968719164775 0.4124926216880574 0.18427584866536653 0.9632334603584574
Ni 4.4268034257513245 3.653432653376342 2.529650542589297 -1.7179283428494414 -0.23046443140628697 -2.353928247899662
Ni 0.34920856298845476 7.319031311037453 2.1396278002264153 2.4041138676151177 0.6173984878989496 0.5296691056017652
Ni 8.013295405551698 8.949414135245204 2.9751825228354196 1.5543326482412456 1.309802739880828 0.818467753972571
Ni 7.015498720802376 6.206984786050254 10.711764004264028 0.08210123747712957 0.436489498823287 0.06976508450927986
Ni 3.2554476298758757 9.229665417280792 5.770739522408171 -0.656456887352992 -1.5387846732043176 1.1850268463533076
Ni 7.485788519768003 -0.10183775086643898 5.749911691739443 -0.21259654998693064 1.1994450786611666 0.7053929509320626
Ni 3.0632984955358253 8.73570720997934 12.347976372191564 0.07515205985280606 -1.7605556906016648 -0.12709374302741983
Ni 4.774198148100959 5.8435622747224265 0.8542783875366623 0.6595368118298963 -0.290814393249254 0.427321973391406
Ni 5.3000828999800165 6.088873161118953 7.377274213216802 -1.3470230576848672 -0.6912958494090481 -0.5152495877423254
Ni 7.132826928791096 5.114376217908946 12.794723109532182 0.31093738925137415 1.0426003296235593 1.955882397764554
Ni 2.5332385921863123 5.764722880289158 6.677181496649764 0.10687021689169336 -0.3525974879943218 1.4484906155037507
Ni 3.200341160467819 3.4838367103126777 7.401717743492284 0.4520055921810151 1.222737473530204 -1.345984589118024
Ni 3.778982130927194 0.7517217364170324 2.2010725735334384 -0.5836715279601496 1.056388127436271 2.1054640374818447
Ni 7.589586656324875 6.830216005547289 6.929246358758319 0.6299436715538119 0.8071813824254744 1.2045350915895643
Ni 8.036742613809617 2.548188030784718 1.2850001009000616 1.0344216504675088 -0.17321470575519846 -0.10504473364718038
Ni 3.5999759678826595 7.5697062993231725 8.431966323004238 0.5663559194998375 0.6878963368091959 -0.68459735434295
P 9.03818909984437 8.04517586677974 4.944896404886182 0.9360676985769427 -0.48857336400271983 -1.2354649483992013
Ni 9.26054126148835 1.2785456669601951 7.979973457149309 -0.586375300044558 -0.5764030193231944 -1.3312979336401267
P 8.902842302176312 3.8236092466445064 12.78888158414151 -0.2197637571593312 -0.656626837271953 -0.05120017702289892
Ni 7.090780480649341 4.608814223187401 2.189795977895245 -1.093721830889723 0.34485255394158026 -1.1910581401490519
P 2.1288664164363422 0.19769388295953313 7.921860510015728 0.49826153782476124 0.9337436784294564 -0.05289119157207665
P 5.573956246436013 6.307557088137678 3.0019726172706758 0.8629550377516687 -0.2025908449244704 -0.5222874684257134
P 2.3290524869402702 2.003289288875752 3.5355514451928594 -0.6844788264872147 -0.4999384113065519 0.04575329497571475
Ni 2.0298978149137277 4.396701781816434 9.694100787517872 0.7607146063225028 0.7187531742890525 -1.3383779804153597
