# total energy = -381170.0209166633 ev
CRYSTAL
PRIMVEC
9.24792616503331 0.00000000000000 0.00000000000000
0.00000000000000 9.24792616503331 0.00000000000000
0.00000000000000 0.00000000000000 13.53527473722708
PRIMCOORD
 96 1
Ni 2.0108228536690262 5.298488394855586 7.733067877568932 -0.31521081981574745 -0.24438438392148878 0.08247867542120633
Ni 4.9347212140931935 1.1422576161654276 4.229962645444511 -1.3301975014870961 -1.5008105079533893 -0.18729689487987744
Ni 6.379469251399008 8.77357241031012 6.8942190016248555 1.6718824563339723 -0.40823590329423237 0.3984525986552235
Ni 3.1677754247151313 7.494759914492029 0.6456430494015117 -1.2252545835251027 1.3116225666983863 -1.0249111398739121
Ni 8.473560433416441 0.284741800997533 6.116685726593219 0.2518436684130114 1.4677679756761237 -0.43001083307747884
Ni 0.07393809551070081 6.436112799947875 8.102499413186212 -1.8629048796945529 -1.8814970408744436 -0.3297666061427353
Ni 7.2512435193265175 5.849109926382038 5.381719731498819 0.060721486249772846 1.288604251426342 -0.11409733076775189
Ni 5.980199281595129 4.303679715516792 8.720994250159961 0.3900090958735606 -1.9699087939506335 -1.9666036408368002
Ni 1.628957481149876 6.643340332336936 12.28679487379984 -0.9042297281307395 0.5041660762346543 0.128403720088095
Ni 7.350140843111266 3.041957387489445 12.896491233697768 1.0527574726622193 0.011216437541109715 1.3956863272185254
Ni 4.299795586473442 2.020597911761459 11.054232182169136 -1.3239839164772165 -0.053989309732261855 1.328453522212796
Ni 6.173083280302674 1.7408203975983803 6.122749591863993 0.08881695893440833 -0.3510710240474664 0.08164255267315618
Ni 7.926101692682434 3.231734082962309 5.3409114071426425 -0.32456886399187973 -0.6410400385772895 0.33309464207470374
Ni 2.74768837282415 9.329770441391668 5.340289021703077 -0.7767212661634042 -0.13159934420725725 -0.40264632502159686
Ni 5.356611611611445 8.35156178975005 9.017592817458636 -0.10215609924547568 0.7834107623684379 1.2965985824857282
Ni 5.75569662288945 8.214230084288717 0.1287866215659616 0.5636670598137647 -1.9663568149333166 0.2800874937500531
Ni 8.767052622273066 5.707810860540711 2.701275805133996 -0.05174242267961412 1.553065608603364 0.08424708017553878
Ni 3.717851328590254 7.055307704942056 2.8288860904753994 -0.9166167889411826 0.6485885403485089 1.780919341859681
Ni 3.6836524971561797 4.357659861293076 12.151617935164936 0.6022060964292274 -1.3506046043885385 0.3298995321761738
Ni 0.8290192550865106 4.436923837556313 9.566136339946896 0.8791535018884021 0.15732168867402582 -0.1448775493734021
Ni 2.9475175641782574 2.604447242461147 0.6710942673543829 0.2984246014963441 -0.1653101061961411 -0.5744291834262752
Ni 5.19841658443154 3.4196426973238463 1.2301249382596882 -0.944444095566096 1.0633604449890461 -0.9247407035998978
Ni 1.560957479112355 0.5472478880145117 1.5989488851194733 0.2600470301594102 1.362982152117285 -0.4385841765687866
Ni 5.114824578662854 5.9819656355172235 9.658108816522926 -3.1908482950401496 1.0593330689972078 0.21483623795072676
P 6.910050526647027 0.42569037043232955 10.229622338339457 0.4868759216956389 -0.3200753469969004 -1.0468076828366875
Ni 5.194828389029588 0.1211358121431898 11.536439404560108 -0.5819874553895074 -1.9903606340470819 -0.28836464615718077
P 5.08380703387381 0.8936844549025261 0.14009036187474191 1.4648716279649352 2.7161246924363285 -1.2482397315663665
Ni 7.205290573573159 0.7953679008890224 12.568247187414705 0.3885631074556534 -1.4253465732871193 1.0939285475838902
P 7.612855933262482 4.586250103420566 7.174521798001416 0.16780767580701422 -0.3277259215636227 0.32256880284271544
P 1.6597808194867532 5.343720002358038 3.0026250321697416 1.396990904962562 0.5895683530605588 -0.16796888397522686
P 8.729524537373262 6.227562814098816 10.347745176096163 -0.10700597113860925 0.28739482604474376 -0.3796210677710171
Ni 8.750378611165539 1.9044994450704438 10.962394725316994 1.8462585293871234 -0.5726538366934073 -0.00860548228082389
Ni 2.8942402608002946 4.99885558293995 0.8413393424949679 -1.5080008550542416 0.17430562482653206 0.1717517480564268
Ni 8.841424445526942 8.664530111381191 8.49691792085642 -2.596651442068644 1.7658256807513524 -0.2965096438618184
Ni 0.39680909661712793 3.858299585212562 4.029599848743257 1.2706798057374376 -1.5420777421332925 -0.6914493442677768
Ni 7.836202601181449 6.938450908294957 13.041846440011511 0.18725832833245817 0.22439559950438773 0.4511545570346295
Ni 0.2516749157418061 5.15824359261174 5.735816355735899 0.5381776572934086 1.6517458334850974 2.143002914967567
Ni 6.28981060598166 7.130761535572293 11.135809064798426 0.37761535019489806 2.3101071369496537 1.1379108667021114
Ni 8.451652096026685 9.142509181870688 1.1179050518562472 -1.471581178774627 -0.12247784152196325 0.4868309273903164
Ni 1.132991194019148 3.457633178538335 1.8921904551735391 -0.40970760274375245 -0.47916106954988447 -1.0765010961360622
Ni 5.7937795833668755 4.03153174054601 5.885543981601298 -1.0218597546420982 0.4469130081494561 -0.0804773287204614
Ni 4.9014841669936615 1.8054356586124098 8.726923095706846 1.2909966629179186 0.11509363324275017 -1.0149645701841616
Ni 8.379166849736722 8.075400214767805 3.6409751668960473 -1.1317978118258378 -1.4419391875384782 0.34600286549593956
Ni 3.941327467477333 4.494085269977627 7.205015910162238 2.0203895763090043 -0.49810341498034216 0.09308164774803324
Ni 1.7663169303900905 7.343334369359108 6.755888520123802 0.9085468674488547 1.3092178139116357 -1.2074136986889399
Ni 7.220346197579292 1.1210058815425223 3.8956547338906744 0.9136705618286651 0.15858898542222366 0.23537112467928495
Ni 6.647252205159168 1.7114119919844382 1.568738684295868 0.20370901768931368 -0.8411096597418031 -0.18898893787031967
Ni 1.560966727038649 7.116575216637768 4.392264676691443 -0.9493302200138038 0.6037726695853989 -1.0220934679194593
Ni 8.965633343577526 4.382693997770101 11.642271748272494 0.6304352664782498 0.12826848006181138 0.4793916975034519
Ni 5.451199401743331 7.80462093288849 5.038546757799849 -0.35788804696929977 -0.2637067383991845 -1.0794308681883475
Ni 7.399145604541542 1.4873532337408566 8.11393724842625 -0.24656159407846567 -0.5688401193742719 0.8393816213071028
Ni 3.1225900568441496 0.4298269678634982 9.091765810297197 0.11849725960766042 0.4739592136339708 0.608995608547235
Ni 5.709641949946861 5.460401088405556 3.2714086115548784 0.3291510840459234 0.6097294013894661 0.27226105572709886
Ni 2.7563074401298713 5.690850163718078 10.360738512538799 -0.41114742051407255 -0.21758166190634787 -1.0375900208931614
Ni 5.112336886489851 6.534048339398078 7.088423604207139 0.3748205610585803 0.10512006696980607 -0.06334401147428446
Ni 0.05009509194030284 2.9730418407488486 7.429282746747427 0.10144776032454142 0.14701670720359195 -0.5002387161557902
P 3.3900400852577364 6.879356659278263 8.439595574517599 0.48335145348214825 0.31288499989604823 0.28841298289661293
Ni 3.5470513778720476 6.187278847163491 5.088681615823215 0.9539934298174282 -0.725512604500073 0.8770482826199412
P 8.92807751489884 7.517916721931435 6.025105362092041 -0.0682635602630889 -1.3108844029807811 -0.8915994409612386
Ni 2.492612069791524 1.9989300204553377 3.640217761732594 -0.2919783316503682 -0.8327911125737787 0.9354892003656533
P 5.734287673519552 4.575430029656946 12.911407214016865 -1.2205075557584206 0.2528721096775258 -1.1461692500561615
P 1.1255373654264316 1.6326843954462342 9.423691456037778 -0.21916366168148704 1.555403255597605 -0.9857154435110572
P 7.012332591455267 6.876915206736727 1.6693866405280116 0.19184954724756637 0.47009330292066137 0.3193464392506758
Ni 1.5923171971742665 0.5093656075376592 11.092117237023876 -0.4479581615845188 -0.8066075121998753 1.2130698685334527
Ni 6.012927692748507 8.584563292719633 2.737576690214627 0.4052616511572568 -0.6631492117715031 0.06681628629360105
Ni 4.019148767238756 0.28308549739833266 1.7622385948945722 -0.43073536994832917 -0.16871270411978687 1.8874427169349173
Ni 3.8202073768088427 1.9335194377800509 6.298843055592709 -0.012272903830082088 0.5358474664983353 0.5084554476386276
Ni 0.4484874335389109 0.6297144211532558 3.7807409265578804 -0.17532840966409158 1.1204379067283283 1.1873925183720069
Ni 4.81259309945869 6.107691193479973 1.1125264579238356 3.2341541569166368 -1.063891892012484 -0.9152942134750172
Ni 8.031148887452487 3.4795137721492115 9.35763906727771 -0.33623293059336934 0.13058144446570413 -0.3110492322388901
Ni 6.869877534827227 4.990652672317445 10.899347912602373 -0.6598000927936121 -0.797067433919924 0.44581257599642576
Ni 3.043400063991261 8.030677243211509 10.791512468054771 1.300756827628476 0.09158038061215842 0.014090673765111215
Ni 0.862334909559538 7.5297170758821865 1.4027282346051646 0.010642310205194577 -1.887416491682672 1.4461406272143351
Ni 8.517071926628265 8.373618093960507 11.106599489599798 0.7782796117894597 -0.20225994394761293 -0.1988761150770446
Ni 3.8271340736028185 3.602853365128188 9.740091683116509 -0.16483830876604513 2.2104054127819412 -1.4548067875297654
Ni 7.305556590449374 4.798924664396613 0.701181470758282 -0.021413432678769575 2.167256388198293 1.3754409467059279
Ni 7.602572239223896 3.818542750075978 2.7628337017153304 0.28042533670544606 -1.6187459815203091 0.2815393957052313
Ni 0.2632265004752574 5.442894763931595 0.3783502357349177 0.8932693724644939 -0.9655178855172599 0.0613434361044879
Ni 4.173940557542581 8.810924784610343 7.065440657782054 -1.5983327079712797 0.03440444562179881 -0.16745260646044063
Ni 6.593669720213514 2.451662252163054 10.997126237305583 -2.457618010180845 0.1703319848907647 -2.6913947937898164
Ni 0.41944154663568156 1.4591563064713884 13.387334169661793 -1.0741405663236856 1.1286577235349595 -1.306041473066183
Ni 3.0897691664278355 0.534232356548769 13.014315363435188 -0.3959969380258793 -0.11862401499351181 -0.9376373570569078
Ni 2.080062077829902 2.925831177019549 11.264340443598682 -1.4852003122199582 -0.1847792706643463 0.05835195757633177
Ni 2.677524356033905 3.9067587189915107 5.337460081049836 -1.0651751296002816 -0.26745000749170067 0.23288538214295376
Ni 5.6626347405960225 3.085616847521967 3.4764813771175094 -0.3936081260787286 -0.10756184364207926 1.481120742833946
Ni 2.3920871109790864 3.003818939454257 7.910339527107465 -0.3764077030400421 -1.0580184639508423 0.747874517135041
Ni 4.009993320208 6.5508795652525995 12.206056778085388 1.9912980582596869 0.5471821747848641 0.5506927590412838
Ni 7.049194825661925 6.758190328978303 8.623730110158679 0.8535111187299494 -0.5905286600912991 0.035984902735041256
P 1.2041447389228177 2.1174606917615946 5.634938126139043 0.18365569858286435 0.025580419572265624 -0.4079499966226974
Ni 3.5043629501003632 3.8339035556498016 3.048075815525352 0.35827011289906685 2.1784183183523838 -0.9128177269100667
P 0.963042052519961 3.476711650482222 13.1510764718442 1.3046867588105016 1.1097757990287918 0.08214108957612949
Ni 1.4672020023469006 0.7796917410285843 7.478604712049577 -0.33617173833813074 -0.6837645740290095 -1.278148346200341
P 2.389608666732377 9.022489594431146 3.268904273114547 1.4917872214088566 -1.9891712417246712 0.7697083251806809
P 1.15313317748681 8.674240433989569 13.216370530648188 -0.042009511662566355 -0.8412901511837253 -1.5020142984535034
P 8.770566834264669 1.9708718120802746 2.2680650210396354 -0.22631338535239087 -0.8787927761148736 -0.13831557988516824
Ni 1.521413346280526 7.876745510052997 9.005925633646514 1.7103808695194866 -0.031794775913093626 1.898821133975188
