# total energy = -340884.93313557334 ev
CRYSTAL
PRIMVEC
9.12920325659187 0.00000000000000 0.00000000000000

0.00000000000000 9.12920325659187 0.00000000000000

0.00000000000000 0.00000000000000 13.36151176003196

PRIMCOORD
 96 1
Ni 6.867287963619711 1.7337908974835783 11.447247657426088 -0.26795702903510626 0.4711335712597176 0.783658873823502
Ni 4.697084633003211 0.5689483803703306 6.087330830541216 -0.08800577588702263 -0.31002001964342735 -0.43854226758725756
Ni 2.8766393380780446 1.9257780422577673 4.890486804284294 0.7716965592553032 -1.001458822388243 -0.19282193846316467
Ni 3.2114072219995617 4.718739103160338 4.758127963590328 -0.1406483417834029 -0.3949358437512166 0.4771638366141976
Ni 3.702047122558003 3.267579209721654 2.9564879144816323 0.5167966205144713 -0.42365223784930267 -0.37291794471922873
Ni 5.2702799187348806 4.969509187791921 2.5282652896024875 0.6021770429635048 -0.27554898244975123 -0.6002795688304758
Ni 5.5344973197836005 2.997729090255165 0.5054273840156559 -0.4875109841764766 0.7772668542542291 -0.7003507605224648
Ni 5.675424830667059 8.470987714501662 12.557496626062676 0.7997215837133195 -1.124711594403018 0.8415706585386216
Ni 2.411807695164712 5.674922724487194 11.481293195181978 -0.6588027618773493 0.7246538560442035 -0.6968422331485741
Ni 0.7337122409925162 0.7149663349973036 0.694641076836331 1.2786365986906687 -0.40101341740386426 -0.7500429855412696
Ni 8.011971374071505 0.046872981270974605 7.031522330452219 -0.8307041481377628 0.3249766409532597 0.468347009653516
Ni 9.07373423121926 2.990380081622582 1.250891648378016 -0.5986772573403625 -0.622643795458289 1.6063589207098656
Ni 0.14498909341841143 9.19794617091482 5.021082795826769 0.3071617242590258 0.6359839642106209 -1.066411316000228
Ni 2.037199968171651 6.781418677659367 0.21059519980002017 1.3201825404532552 1.8727894857981167 0.12338955470295525
Ni 7.925088746548159 4.068511600233966 4.019422961329291 -0.5310366753732532 0.6769524362031826 -0.5141676675320563
Ni 7.60194233838972 3.916273006498617 12.70447314703303 0.5634526298101136 -0.12906783603465513 -0.04575226653445024
Ni 8.306945060937831 7.727952731129527 9.19465783189686 -0.38244902413811555 -0.8789087328674475 -0.4740227198820546
Ni 7.201836746662741 1.0980514401471555 0.40870438828726535 0.6390024393219704 -0.18418920248883117 -0.22621979719732008
Ni 1.6624461739262657 7.068513862103433 9.113272810582883 1.3129669965414228 -0.0784520707603165 -0.2609417740595377
Ni 9.528697205397409 5.455219318584406 1.0702174122963697 -1.2147755383706498 -0.42437986004394657 1.287098613415093
Ni 6.5412749856344 2.21089218959218 7.063029036778643 -0.32751869064882305 0.47478248086621455 0.2635838396680751
Ni 3.811488011362234 4.876783870175591 0.442494308351588 -0.1682049112454329 -0.723049230561245 1.2288723827833483
Ni 6.269681188343288 5.858492743846177 4.642296632496896 -0.39814303783460464 0.3023100525936793 0.7345760002539219
Ni 5.18735023622757 2.7701928279464685 10.24766487018808 0.1741467306511646 -0.4922202167266878 -0.6735004730988401
P 0.31459964805679375 6.071477056142031 12.290078526347394 -0.047875740635356254 -0.4079176007228652 -0.1995042355793467
P 4.320386318461254 6.5835249383693 12.698233336597788 -0.8812414947656824 0.5863668154041256 -1.6592100030726262
P 2.490017579581283 8.760173486494624 1.4885257224239796 -0.2541707738842913 -0.14677913727148914 -1.5805129061810392
P 6.464717487009753 8.25332925013142 5.761524172549815 -0.18588278814117018 -0.4775556727359776 1.0269235423182508
P 4.836514954550343 1.3412077692513171 12.5212865542114 0.12646202298069187 1.7922314244383908 0.8862230071406737
P 4.006834702939889 6.318905852376688 8.351291991663915 -2.536802588231812 1.2124923987634277 -1.2081387497804226
P 4.886999448635044 1.5394392890623843 3.7415437075865836 -0.9104525691119997 -0.36047174853607594 -0.3233571030719657
P 0.5127599600823526 5.879718141449599 3.590251812230364 -0.42607447413755006 -0.8175928075667855 0.49291647146276407
Ni 0.9775824737924147 7.879944836376578 2.882519457904438 0.22759430894734353 -0.0246566222064156 -0.31782614595140746
Ni 1.9967028224646466 6.754779662516663 5.165707634034694 -0.47071319589284744 0.9311887732180868 -0.9195591593989582
Ni 5.74855887806535 5.831342493320335 9.314096111202385 2.5614800363738337 1.0858007762704331 1.9487031064072957
Ni 8.894308870144988 2.9199300199857574 10.641789007932367 0.08792041526206794 0.24252753321840811 -1.2459385942370154
Ni 2.5664837861732277 5.069209216706754 7.158857370586545 -0.2426460610741434 0.7675552833934199 0.2832340097988348
Ni 0.7207971571260375 0.5319559357987903 9.296311510311535 0.26397310468669377 -1.25954358661496 1.1605090637176014
Ni 1.7700977388895198 1.8278855955904527 11.63277223920524 0.18646591433814982 -0.6990860348774284 -1.3780711852399234
Ni 4.616017307963039 7.348643464452267 1.3619657516473018 -1.3583130287763896 0.8639487691235057 1.0113855945836518
Ni 5.434167375843118 7.955854161569036 7.969687643284505 0.06833555115160489 1.5568721268336476 0.7080738401983353
Ni 6.8047894380313085 1.4526023075553902 4.6880731964551074 -1.5425238285317757 -1.519648723705815 2.7912806089438766
Ni 0.8521472208586364 7.920049426342959 6.948053112031635 -0.2755412691402674 -0.6111067413529669 0.7502072790332758
Ni 5.166928208511933 4.81180220129767 7.3076916844224025 -0.6294374213413547 -0.8237387725635232 -0.9754220320048491
Ni 1.2201454046840077 8.012272637779425 11.397904313750173 -1.3809803884669183 -0.8197219380946462 0.617641200037375
Ni 4.830380129952709 0.32534015570428937 10.600743197108818 -0.6550960024497234 2.142107656846808 -1.634074127236947
Ni 8.401998325388085 6.902964890000002 5.130967363909935 -0.02197599005045893 1.3844140967388159 -0.748070435195931
Ni 7.212654852538034 6.555553059549133 7.283774084774571 0.2986048358279503 -0.12103365287626897 -1.0509967812173706
Ni 2.543039992175124 5.913459676736589 2.4338264205323235 0.5470790735480966 1.4616099264945281 1.7247037139000618
Ni 3.8246066764616398 4.454676898567213 9.503762612505268 -1.399753041088731 0.0011369418179206225 -0.5805319538899034
Ni 1.0820662052208785 3.339809465996184 3.977628555837579 0.298416373966228 0.5524897030407065 -0.9153338084637009
Ni 2.047442934240916 1.5336696325955614 2.62305198131725 -0.6280130301900023 -0.6113558812492955 -0.2238880637403499
Ni 0.6641586671168342 3.7561193935279276 8.210943272267793 1.3435024461261185 -0.24337059794499374 0.1663999968262102
Ni 5.266043968417466 3.448611310571495 5.142846283205236 0.2525368378252941 -0.3071411554337356 -0.7529601591880645
Ni 4.270276121710634 6.935455724438963 6.064964282529007 0.3075013669866317 0.4094502353173078 -0.17168412804328495
Ni 8.705389137669616 7.823617652198891 0.011336644621045548 -0.5975032916369194 -0.21889446718050043 0.24351946481803224
P 0.20693712804961514 5.957836733833466 7.779620369958058 0.037652520245451286 0.9080164488666814 1.2906667903823255
P 8.633715762794575 1.9127141523779831 8.32150979183525 -1.7160696923741479 0.8495485345377755 -0.8392790342909675
P 1.8786987409928841 3.7351952596324245 10.274040964276601 -0.03203131740393193 -0.21730295432366445 0.24601086378131828
P 4.304921448121384 6.348831380696698 3.849558614839995 -0.44723182494145564 1.3240430518499262 -0.12070763699541791
P 7.0320061782255445 4.1260620976498705 10.38893655203483 -0.12064027409259223 -0.43150258713165685 1.0062102210302992
P 6.194173548094723 7.868661141134499 10.28432866344189 1.8963215074817859 -0.6287378241711687 -0.21515891139746815
P 2.266598587947487 9.112295985832963 5.723376883764582 0.6625827977450718 -1.239245498487556 -0.46779345114289106
P 7.279571912509257 4.405233133655325 1.4713299551440622 -0.2899728711845651 -0.6701408125979877 0.02848833724767997
Ni 3.0253723177576015 2.183678034643447 0.29820907650531586 0.4095690202833592 0.5922808668957155 0.9551527402328517
Ni 1.2430870925022455 1.4132645706637126 7.104182572200781 1.0283990984225126 0.19009734044315002 -0.45019579266578597
Ni 6.905165027988142 0.9319364574409669 9.144057396930627 -0.6868858932668106 -0.7782482443308919 0.5667824655142948
Ni 3.0166539286344753 1.881464889583782 9.06289969277808 -1.6768755386731895 0.17249891063509645 2.112579051260071
Ni 6.5589126063526 2.538840558670791 2.6523667659384764 0.4289937046668741 0.5270375815161891 -0.9836575325407639
Ni 3.929008245060671 7.328121015500656 10.426067760496078 0.0837328595432816 -1.5171606671766387 0.04813002273800743
Ni 7.312829600022921 6.084504429208733 11.545722547262047 1.5203136109833235 1.9307930588960938 -0.9894743963328573
Ni 7.499010571517206 4.380922065346543 8.323727275309604 0.5773162751660832 -0.5067317800793015 0.378496981468903
Ni 3.019137071923994 -0.05030464878027645 12.619279422114689 0.8936792063084028 -0.6787504086438698 0.49270384123132566
Ni 9.375691758587356 5.460651194530229 10.096025152187263 -0.5008285272209891 -0.8857954326849518 0.1801356012447478
Ni 8.594250217057112 2.70529332189798 6.0180520456839695 0.10059441118531064 -0.9695414048543559 -0.25404916070476247
Ni 3.524319793292006 3.776084961080051 11.80532331021698 -0.6242409647420798 -3.1625970135039405 -0.007871175217960637
Ni 1.1398905787348923 3.798789289613261 12.841080718928989 0.5816177307549144 0.9772300317478653 -1.0656127313583326
Ni 2.9395030317972584 -0.3197229569320802 7.857343667840322 1.079506201510973 -0.11105083063194422 0.24367913032434804
Ni 6.646087368380595 8.286240027920813 3.6398224730677096 -0.8806984777780188 -0.2827203033872099 -0.3644996387485464
Ni 3.6831405425852335 8.59952689654734 3.1365477551831877 0.4002806530028977 -0.00878057440610746 3.081664342413615
Ni 3.803956418664245 2.7750404348829925 7.050962968816301 -0.6800912389424804 1.4937988525222468 -1.4031692658591317
Ni 5.4344777687543075 4.830800073303142 11.607319107567346 -0.8746417300609775 0.22356667584518916 0.958902179972955
Ni 8.388432329328435 0.2502369391605984 2.383640451394561 -0.03941758256567404 0.5243613202356067 0.7737578126597061
Ni 5.103516762596501 0.7898440602202184 1.5171192999868535 -0.6485582013312057 -0.6321733322152789 0.3636306058800318
Ni 6.217754280141881 6.221314669417294 0.33270285814177786 1.927895939853957 -1.492263903934959 -0.21867695185305563
Ni 8.049309815446989 8.888237949970247 11.156328249732098 0.1715972247564335 -0.10145470230307689 0.8378890959219762
Ni 0.1809736739489117 4.9087178232150634 5.893963350232559 0.6525102440004181 0.7389180792727016 0.11022807762033274
Ni 7.524417144218422 6.236542180472136 2.5227202115361136 0.8226506817056671 0.780201768512837 0.336516266161743
P 8.557806437602116 1.811343479264688 3.827912360965812 2.377349197926764 1.6388005861783388 -1.3104537432012657
P 2.116395806541413 4.038093094937361 1.7621699387696004 -1.4559247031842928 -2.7121806201869165 -1.9655764851238666
P 4.8762635055891845 1.470760292859996 8.224023594713463 1.5217750260201985 -1.6240879625585127 0.8441574454291914
P 8.90918947147556 1.781235366879273 12.51143888264374 -0.9845489340067819 0.5127687303020009 -0.22252872149897804
P 6.939655157943295 8.156979638816784 1.3151146804641758 -1.3246462326515638 -0.3537017768020941 -0.15220365072117015
P 1.7218407704027694 3.321505413439254 6.08781193955356 0.47775570456192556 0.2897836379918945 0.5119860864997053
P 6.956142499049439 4.439275932650235 6.248403754281224 0.6715634039771273 -0.7095517102954425 -2.207570771546624
P 2.5993945639626213 -0.11461349537717705 10.253276591438327 0.3432641264085379 1.72279981200913 -0.8577367267755227
