# total energy = -340853.85150488047 ev
CRYSTAL
PRIMVEC
9.32360015802415 0.00000000000000 0.00000000000000

0.00000000000000 9.32360015802415 0.00000000000000

0.00000000000000 0.00000000000000 13.64603127521184

PRIMCOORD
 96 1
Ni 0.5010894350522157 5.789312409458274 12.163294735799028 -0.5821224383054749 -0.06470078261249503 1.6295626125198388
Ni 4.4719995812897 2.080635978345242 8.153626383438612 0.7290887518871056 -0.6631263289533675 -0.3865630463064891
Ni 7.011356690558261 1.4188934525874672 7.324684667259398 -0.5716199961122542 -0.16697309572086083 -2.6578920340466805
Ni 0.575931838754404 8.976678381357576 13.67373288952641 -1.1302312386696662 0.3740232619682655 1.6299629332820507
Ni 1.2928849955868849 4.8933983405242785 1.1698386463768378 -0.5865449928532027 -0.05054788815088068 1.7332210073424539
Ni 1.195201636060795 3.1308369837532033 3.2468141792749154 -0.609433467415602 0.08811119111663536 -1.069496896904087
Ni 3.0344775754586397 3.6535459830002357 7.231605301522942 -0.8569371136923629 0.5789689802781577 0.4092861989356177
Ni 1.0493805285884232 2.1640915239325316 0.41831078284104517 0.5479956718250949 -1.3415790038511606 1.2523290711443915
Ni 4.8861072851506595 8.684914959609946 0.008562794443901945 0.6244703071440664 4.534020611520359 0.9729290903796664
Ni 3.9556026593929743 0.3699119740885463 9.847153939445818 3.110953835406352 0.8688914578407616 3.0529266081592907
Ni 0.3354053296668552 0.9394925763717111 9.054824136618425 0.42661054914667823 1.2230933142077256 2.5686765541222734
Ni 7.376646023656731 4.794997063781094 5.216631710101288 0.5299375287718034 -0.47761557943963545 -1.2450394794615138
Ni 2.6959469749973644 6.958622407702524 11.937029605611079 -1.2974329054615654 1.7468272852719786 -1.0193264466972833
Ni 2.691341116487687 0.45200440932337627 0.13846198981713265 0.4625849103587582 0.5913848374440073 1.7078290496319104
Ni 5.172742726776179 5.000666361078602 8.536806773003113 -1.1008188469458204 0.8639582822052024 -0.6690429515481188
Ni 0.7015347191453285 3.3368605778591496 9.257809169412017 4.606751206415866 1.3147289735378518 1.46967162045674
Ni -0.04737228036805466 2.7359265727493804 5.606389899622424 1.2681868641122545 -0.4421209860774514 0.34219840414818486
Ni 5.306060886350825 4.943633898520515 12.725210406339672 -1.142844813668619 1.1283391638532763 -1.4437600427973007
Ni 2.991160128827141 7.728285606030165 5.424161065643091 1.2190435696183843 1.2008527576419707 -0.27533918043179034
Ni 7.215785949026243 4.322299856124969 10.79837746961687 -0.18026775594723793 0.9349600673350607 0.7714649028604714
Ni 8.880738535073005 9.135216879532782 7.491138902023097 0.8575976300944972 -1.3594466281602007 -2.081078152438313
Ni 1.4719540614509752 7.270757895935265 7.253861667612923 -0.7680628191574579 -0.8326885255576434 1.0214118684714024
Ni 2.993901267292415 6.145240847933836 9.183969985093718 -0.394944585501965 0.42600325457998245 -0.03593450911308005
Ni 6.681590274305683 5.002008959510574 0.6851839214359744 1.0376553269134579 0.5184266999187265 2.4304987853665496
P 2.631455632261661 4.891869270087867 3.293142216418104 2.2104558064039024 -2.1220862194195584 -0.007816924941257505
P 3.030962578174939 2.249747439172217 1.5416190699498766 0.6210926489210852 0.44799210014624785 -0.1414492404181435
P 5.123038613992598 6.821034039226194 0.4255626790937313 0.48195483024493774 -4.779862296713665 1.5256021130757724
P 1.4999062149165872 6.983525743895536 0.34531165490275006 0.8543055896067867 0.11130639828617604 0.03942555298547404
P 4.119157254487626 7.029630946993418 7.147354452836715 0.5471307527216384 -0.07207213537590168 0.548783457833713
P 7.751482723382547 9.017599662732017 5.614045507764723 -0.050141910961713644 1.1762097622823098 -1.1826814860495825
P 1.3033647222364337 7.842564973951448 9.688395404305371 0.3675854767627218 0.12355667640843883 -1.073893483309886
P 1.9120746099313668 1.3905683551129744 4.258735279251334 -0.7203873674583658 0.01892383348769644 1.180921308825366
Ni 6.186376572113383 0.7993803093152813 11.929729226637239 -1.3201707133787133 1.1676806417653762 0.5999486678536183
Ni 6.0385602141935 9.091060308881302 4.16212133667071 1.985484022681071 2.866791851908314 0.8913868107298004
Ni 0.305433684393154 5.1560255115781 4.973337024107822 2.3313971566766813 -0.9861630725714371 -2.097530898677697
Ni 9.083303073496582 4.709807328552508 7.0061457303941745 -3.1285939170856185 -0.3210086574444471 1.1566539516375693
Ni 7.98363104531059 7.072230476407822 8.416626498501316 2.727445002545154 1.059435141792711 1.628077286223564
Ni 0.5403166182663149 8.412731098328555 4.792062926791224 -1.7441451104541255 0.12218447865126053 1.2445635682663598
Ni 4.745796425409501 -0.05580361204882614 6.861524570270377 -2.4224710299660663 0.09965390164891225 -0.48923799416991226
Ni 4.153048541294663 0.40586004710456147 2.1404347530892034 -1.026590070238232 -0.9452763616594042 -0.9309833420754998
Ni 3.5067272503041074 2.916161088641223 12.067008051586198 -0.1959622838643593 -0.2426815422977692 1.0769623520431968
Ni 6.352010330057545 0.9452172669080307 1.992210953839617 1.383665391498249 -0.1317194147248893 0.43110020948691563
Ni 1.7106568743350974 -0.016374106709909186 6.522652726040975 0.6222226487604704 3.302801325771389 -2.293543833274334
Ni 8.616097466371226 3.7343443025242493 0.2287852993279607 -0.5909433790312145 1.4257227256796154 0.19818397410602642
Ni 4.854248543192022 7.65293226903581 9.496355345812407 0.08325720545844371 -1.2727554573195434 -1.6907702943774108
Ni 7.830574824065931 8.170233580154072 12.642011259758489 -1.2562921695571976 0.6169498303973052 1.2693222632682786
Ni 4.908689044888389 7.302765815497454 11.928242112401826 0.8156030308302663 -0.9361571729669554 -1.641238249085554
Ni 6.724450864526303 8.62230698411909 7.490197218400674 -1.4681189312576393 -2.4877310275161415 0.6342350998403141
Ni 4.076567048673445 0.9498138018174859 4.267454710178966 -0.6376811494073856 1.2598726878196045 2.891438189702085
Ni 4.885333426332232 5.485456278222686 3.3471118763032592 0.74345350524921 -0.08837112964624136 0.7375857336145233
Ni 5.066425713444501 1.8339055456699622 0.4076697579076553 -1.1557041861297903 1.3039485950928962 -1.1866458700139693
Ni 8.314553587990698 0.6901049176331558 3.467865552218712 0.3314023419739454 0.32313110310408866 0.4135251767176297
Ni 2.2300653191035353 8.788369627673466 3.561982634659879 1.6933748218797933 -0.1599681251579374 -2.8927191132970376
Ni 8.523495468966138 4.375136698583149 2.632660241410346 -0.6066070537104005 0.8928248287279075 -0.02214311175594251
Ni 6.336561124489659 6.307275696192299 7.214930042525861 0.04879182469172242 -1.2718440012488677 0.12386006658147056
Ni 8.073398668248185 1.5985778760662108 13.409136574105696 -0.5398583874299412 -1.348986094948509 -0.3638722895771927
P 5.638139555458463 2.9913186300309156 12.24010814858815 1.9082478266057266 -2.2308875918956934 -0.2811622148714706
P 7.455598270336785 5.136399333110751 8.732300293018312 -0.2006388634044222 -2.3672319069871035 0.06818822694046321
P 1.1682750786196052 3.806965824653553 12.885415031874551 1.3451726347396897 0.6508685946319371 -1.6620976090330666
P 1.2753006855681575 2.012648285526282 7.373523549942377 0.15404198948148956 0.5758481752609889 -0.3642178458420695
P 4.716035493500817 5.364184210134889 10.702349981490213 -1.7837452413442505 2.60673248045373 -0.8317948100987803
P 3.0907268555980787 2.3834571899561867 9.999456813792536 -0.745339152307697 0.8949223346868846 -0.7190673630953616
P 5.1338633138503615 7.834798414966507 2.978369081682554 -2.7956674251576628 -1.9551444911572653 -0.3129359077386417
P 7.8049442470556025 9.08338698589858 0.9732934242565955 1.5491320778769124 0.2776146067295283 0.33776145142275377
Ni 6.915454138674577 7.3357060950818465 1.9514229999483519 -0.04144206919487056 -0.3140011157783625 -0.010020360350479518
Ni 1.8268848747027822 1.1307009697248702 11.575272984636733 -0.9304099860705332 0.03482919186404324 -0.693337048208793
Ni 2.2251331345860876 4.684176751542179 11.117257650250222 0.4331987438871572 -0.7433974552002939 -1.7308877312235869
Ni 4.223833314180229 4.254880902919552 1.151124316011202 0.5334550550067586 -1.0181830771214595 1.5973389765994426
Ni 8.239834255811441 2.877095203710965 8.319821422116139 0.10490332297330965 -0.2639983014976744 1.4133114964994564
Ni 2.9047583255696945 5.525118873567153 5.4410004200040785 -0.609385387786486 0.13921700865351508 0.8137420663621276
Ni 6.648351639514186 8.34818381399152 10.69700103204284 1.1558666798495836 -0.9774832854092521 -1.992274306130027
Ni 5.124194740420129 3.461395906024653 10.02006290264322 -0.4364133941697129 -3.2354029417220733 1.6399272435836143
Ni 2.4154930803190426 0.08502284278461045 8.562966930506054 -1.3167020381038228 -0.747704310105764 -0.7413187182943942
Ni 6.568756064418813 3.52890809523229 7.176844067978937 -1.5216904367261923 2.5374494777871917 -1.101208626185071
Ni 0.5674445654723005 8.155409055801062 11.638781619909034 0.4091584151085018 -0.38280357926405684 -1.7151160702116268
Ni 0.021820021599590293 8.184787720100642 2.4963781093251214 -0.4504909553087015 -0.2670491725088562 -1.2210282041485812
Ni 3.3884946758886887 6.64042657932547 2.1429996755102807 -0.5109743574057394 1.551407504174651 -2.4596504672298414
Ni 8.367045457240664 6.903146986381513 5.627841639013244 -1.050795463839842 0.8291221483626237 2.8888524312527797
Ni 8.396769094748459 0.6586265785635764 11.050487619620258 0.04806343116613013 0.27879500019087466 0.016033913534411096
Ni 4.851386197923862 3.074438526010212 3.108224456134741 0.9529457052792041 -1.0787754939925356 0.4651213036273667
Ni 0.23207653020633331 5.852050915352238 9.844396950860165 0.11143263945139519 -0.16486967622461285 -0.6975125197427213
Ni 7.139071366399473 2.1735176837569923 4.958025807823223 -1.6726172776174677 0.02542023984531751 1.075773216831102
Ni 1.3921160727498294 6.421909360922019 3.324282108799624 -2.2781208138510443 1.8593814399223267 0.1782908347265252
Ni 5.26968952188473 4.766233757096166 5.662980423529988 -2.885964568182023 0.6008950909272877 0.012304785509282034
Ni 2.9793378037456217 5.1887979663584956 13.296734046909105 -0.23008159414557147 0.5110787441940875 -0.4436397367148231
Ni 8.71564554594172 6.503593422467124 0.6694578049414955 0.17726085080011406 -0.3147382510547031 -0.2363766831256639
Ni 2.873076732015275 3.379068516064228 4.874935747364637 1.190112231296015 -2.016349859021992 -0.18280466343647872
Ni 5.797834180061199 7.331818153789264 5.4827300575177675 -1.3335329936182325 -0.1471285501911079 -2.066330304705177
P 7.872558995865682 6.4011177324269175 11.480610471582578 -0.28923033659158576 0.08515313692957592 -0.7128596916227529
P 3.5621653772242303 9.277392459318344 12.012874296337134 1.3409084601466972 -1.3651817308717649 -1.6968923481147486
P 8.656869570142115 2.7336516142952076 10.874754537915605 0.43360832062075 -0.6202801803221188 -0.304660812214043
P 7.291027402817933 2.614188324650483 2.9518005504898897 0.002042998571957772 1.048640365170052 -1.0320338669616227
P 5.006959791228466 2.647212516636873 5.8148739918269605 -0.9571214339234484 -0.9638366411600949 0.18652813503465296
P 8.182456820045138 6.516581197576397 3.651364260548283 0.8251927314012305 -1.1860180066219832 -1.9699607302344913
P 6.536757468456845 0.7221930201572553 9.15407199626177 -0.8017607256305354 -0.8287053725401792 2.701734742263244
P 1.4327856169182749 5.275078562813056 7.850985117311952 2.9828105680684955 -1.464299300401233 1.0987339393923337
