# total energy = -340867.705522188 ev
CRYSTAL
PRIMVEC
9.26513784864584 0.00000000000000 0.00000000000000
0.00000000000000 9.26513784864584 0.00000000000000
0.00000000000000 0.00000000000000 13.56046577597495
PRIMCOORD
 96 1
Ni 6.710516932481333 3.379282968510415 12.063512362682717 -0.2641286564279515 1.8003833641215639 0.8825219041400025
Ni 8.009563370675258 4.601382437421555 10.642524666593369 0.8277581781355615 0.7460498052214765 -0.23996028671186415
Ni 3.002590261691614 2.640480881742302 1.6231604146114158 -0.33304810510748445 0.37440352812581973 1.659363240821039
Ni 8.006487344931502 0.22658728309245402 10.079345119518093 1.5352710036241044 -2.8532179698786218 0.21772075858737341
Ni 4.1483635255513915 7.482006425345732 10.42458083053811 2.2035799052196756 0.4200105273316573 1.5886864431307672
Ni 7.509875959795174 8.499198107061442 2.74374362186842 0.28759022988500144 -0.9970072143747926 0.17678699648748905
Ni 5.322024854136175 2.5128443436520396 1.0576942315314468 0.6424870554364612 -0.13650655170088746 -0.11678593334350855
Ni 3.6888312218202044 8.553621526395228 5.7502345065664215 1.2780048786439409 -0.521768876918082 -1.2030065707601798
Ni 6.789622678867414 0.5067687556871673 0.913434183232013 -0.4861920082547369 -1.0893697245686143 -1.3817666318136397
Ni 5.941037974515713 7.012495568222906 1.649861615186498 0.6952275803632865 0.33139719976762283 -1.174982317633112
Ni 8.380326389313325 1.6977345821081287 12.149716131123892 0.5416139366684672 -0.6920543248416275 -0.3165565352103645
Ni 4.145370886047678 2.5853347816614916 10.90268232341277 -0.4094278667198046 0.09482819812549474 -2.347996970016892
Ni 3.1974731698064938 8.050302181504444 8.070687337653268 0.6977662876247402 -0.09712650724136822 -0.6450787274230374
Ni 0.9420977399894057 3.9733543379797474 11.523440069236734 -0.022860192427625145 0.28162475633018597 0.6168716688612021
Ni 1.7630630686117899 3.227056754745678 3.783573741241633 -1.2566757781488616 -0.17369370227414602 -1.3538102558100298
Ni 5.5166205429798 0.4888203307751132 7.140642615404979 -0.7795106559830833 -0.8046660722027885 -0.5757152492275505
Ni 6.214748674883202 3.661582451602183 9.424727001154594 -2.0017295380056557 2.8400505792587283 -0.23228862909921932
Ni 0.761020813684072 7.022381470236722 2.6622854569993883 0.18009574914574789 -0.26856046694706004 0.4658031601857397
Ni 2.0795138495694636 8.447582024475725 10.08551477476739 -1.6272475912334168 0.025866326243800614 0.36858615011309426
Ni 7.52797077388419 5.941630943333786 12.777850779650196 0.2828933386299644 1.2840348868881049 -0.8917742759762061
Ni 7.613460200202341 0.9944457684599329 5.924133730631735 1.06477609438965 -0.8249150522598117 -0.36378435784907676
Ni 5.379644746004884 6.572021652910104 6.321210667085581 0.42651104745433643 1.3625538063306146 -1.2086866518640924
Ni 7.971316881909534 5.877358682537318 8.346914449442455 0.041576795000521936 0.504905268393524 1.047898087687389
Ni 0.8772584527606548 2.7680525638680877 0.05659794717131138 1.1761269727605164 -0.9201006337247251 0.7260967591383173
P 5.626125206429917 8.260935823849394 8.836609409224227 0.4873261218591801 -0.781491433858538 -0.43432951505749073
P 2.00933969600561 0.8986859369099979 0.6310457548175333 -1.4613150209619286 -1.5340461300780677 1.475068365992279
P 7.339545666803639 2.0784761541378356 9.864750630771171 1.6557081605669552 1.0431659723190423 2.6245833925922217
P 8.305315833827063 6.782627499841707 1.3222593143939345 -1.155407737935294 0.07064748711423317 0.3474959051016983
P 2.1232082393512344 8.26966358364041 4.2049920476773845 -0.473689762022668 0.08955872219643932 -1.3198012458544366
P 9.055875380441032 2.199256490269126 3.0341000687757584 0.2348615320327181 1.4340631272245108 -1.6437697572581562
P 3.082502075064764 0.9749889791169052 9.51946025543824 0.46722780844740824 0.7395868232049521 -0.531746299845768
P 6.376555041114934 8.706820579627115 5.1383314529210935 0.7612337120507664 0.27357437522188366 1.2794531810546934
Ni 1.3120176310892762 5.921766487928333 7.712880687690101 -1.1450449066437312 0.24738306153849657 -1.5853360386012953
Ni 6.721292287722257 6.590672375266064 10.473601748030978 -0.6311250934564228 0.4464262983210247 -0.4153825416413427
Ni 0.15276359175611537 2.6852500275068305 9.786764113029202 -1.4008830409281163 -1.3859634435038066 -0.36751579986705096
Ni 2.622265620862115 6.10750470505199 9.544981077459845 -0.6441125068550262 -1.6937412040802766 1.5663672108082767
Ni 4.944516815192523 6.311198759197926 8.531309221587664 0.2536262142347309 -2.030329975351168 0.41676528092148224
Ni 1.4757604111175286 8.303861207195226 6.341470743874342 -1.3764598748887458 -0.844174928930688 0.329284010079362
Ni 6.180690028395121 4.840107977522724 4.630668611437925 -0.4769656045604624 0.4994326753147269 1.4189021032133564
Ni 6.3181198171213735 8.582380514071778 11.770443083432694 -0.5773052194224897 -2.5222773980324433 -1.1922074232621467
Ni 0.13136390302011952 7.118738903173621 10.868184509393803 -0.3709075991574193 -0.409938744917952 -0.3998844460057436
Ni 8.938828894836046 8.189038354658015 4.562296527172747 -1.2554701878765346 -2.8234973028857375 0.3358076701304926
Ni 3.837907288738927 4.174361502168789 4.575057401440438 0.6215004258824651 -0.14686089835201804 -1.980089591138377
Ni 4.687937354584681 5.100226720763441 10.930115469872662 0.278527605462101 -0.2708963141690883 1.1645688356092718
Ni 5.937452366193927 1.3012422758483515 12.087216291185193 -0.3154715296763019 2.780759654807895 2.030498896828864
Ni 4.182690861035161 4.494147732728124 6.830989666038248 1.0000966519333936 -0.23931185449458783 1.388861848097524
Ni 7.836119991388838 2.4776275549411593 1.0219076368469493 1.2819029281467667 -0.1720638799802069 -0.05112844324469905
Ni 7.032684303450743 2.190361957998028 7.853516214089061 0.7463341692311146 0.3167344555491255 -1.7217991386587574
Ni 8.389489610580114 6.391962965247056 6.029946236675568 0.16630949399493294 -0.9683430136708807 -0.4817658541625832
Ni 0.5707343404230385 6.27576887231805 13.27473270680977 0.3889588002321753 -0.3808469697583183 0.502132076523761
Ni 5.274003645010026 7.550244165113065 3.884476650774575 -0.6981910338669847 -1.1678624187588789 0.15716639404308416
Ni 1.6400035085860303 1.3676084577836412 11.147095731598553 0.06602850028498305 0.6882064118504471 0.28771955637401414
Ni 4.444245700632149 5.075822347844614 0.9811215738150719 -0.7391024273693658 -1.0526358594826903 -0.7143789564807568
Ni 5.947013988385358 2.6070522646234235 5.612202483884314 -1.8100496835667341 0.6078180432993661 0.1841966586879989
Ni 2.8823750989650496 6.856368731451782 0.6372997228206495 -0.4857608342545892 -0.3904855212893468 -1.345838550458463
Ni 1.6937783682750462 8.608082006280139 12.591502916460458 -1.0106952533848463 1.8745180384534492 0.38608147868438025
P 4.585965248151651 8.359906025640928 0.23521127334030653 -0.10042986058298833 1.9196303574110554 0.9764486734971506
P 0.6426457073210909 4.914803518324385 9.59537230883073 -0.5649289572453239 -0.12221661744077661 -1.1071633011066093
P 5.115384486175437 2.36199863541688 3.263366829714881 -0.2524658753780426 0.6709399114605155 0.12768303987198656
P 4.618133806532124 3.49636651466653 12.719364597398833 0.9530786313126425 2.798151367921781 1.1246681427595921
P 8.258508357750406 8.439484294053912 12.273347350150823 2.2596397243277213 0.408439020443974 0.5332010300144236
P 2.2255972769844727 6.798146605627217 11.911445509287837 1.5789717869461646 -2.5302262205658748 -1.3405716456325687
P 5.00475874105365 5.5371428231678035 2.9367355153619124 1.2412188201638432 -0.44417246928984144 1.4954263608233407
P 6.534284746722412 4.767654600064401 6.988440490998476 0.6715742026104047 -0.39718890145145147 -0.08833693397419624
Ni 8.20050859523262 3.3058011607582465 4.904413592815209 -0.15526532036562937 -1.9091050323996992 1.8766332850242389
Ni 7.2233886344257625 3.7210739013029364 2.9418072517839953 -1.5807646171805294 -0.4458897090912643 -0.2679341462169708
Ni 5.6231233017884215 0.8307029884316806 9.787795322864383 -1.4650588042750767 0.16396850456658213 -0.0028510962955499283
Ni 3.094537489044094 8.68439894619372 1.927918591687708 -0.7326373884703125 0.7518301593486794 0.7210604822659904
Ni 3.3477073789480154 1.1641552972200475 3.7188224728218144 -1.33135681190252 0.21933926802740292 1.254037569195066
Ni 5.399055209659 6.808857104903665 12.799438550683174 -1.0198962031578243 -2.211245135074418 -0.811651502381686
Ni 0.22092535739363292 8.732169996599744 1.0486255146700394 -0.4684992189606641 0.8174765937038954 -0.7892906181879826
Ni 3.0187208665707623 6.315451457440044 3.019291599058158 0.3374943138042962 0.5285085096347608 1.0145791618202848
Ni 6.708589783822595 4.5778860480054036 0.9020204599978815 0.02800779806683563 0.6769853463236469 -0.3251759014482593
Ni 5.2202843761477045 0.2530790915536537 2.666705854235369 0.4089650681507731 -0.1328977513037066 -1.0435148710180286
Ni 0.0567230265313737 0.5759367152878528 7.804196959159598 0.10043114613456898 0.9070175752885219 0.14173334731746556
Ni 7.766483215816363 5.94926541686648 3.438377870314081 0.8017026186990903 1.6801228419658933 -0.3260307932493869
Ni 2.547023436931292 1.1697143798894838 7.035346177535626 -0.9361774846819296 -1.6930657752798066 2.3598973209989036
Ni 1.9061075308341737 3.320421548178864 8.520989711125635 1.7265124849740268 0.47849078295573727 -0.36490407327581675
Ni 4.037793371256299 9.405411968419635 11.755038865355687 -1.4399609807661844 -0.6759620472654553 -0.06281179311989828
Ni 8.926645238652199 3.946448377859675 7.327764117599547 0.1586175246673139 -1.0033575820728526 -0.6486957553503344
Ni 4.453955565028099 2.41412430058063 8.110636758743395 -0.6647512661513003 -0.7434198237977971 -0.08358296422897864
Ni 2.5345525614761892 4.640157039040875 13.075150520811661 0.8653577336558904 0.10022031567534354 0.2800820944334144
Ni 7.115032848060663 1.4804948965243319 3.4311909029362777 -0.3079626228937664 -1.465444983969902 0.6722576018306744
Ni 1.9342735496926522 3.935320947383019 6.005740137705285 -1.1949291930686838 0.7042480386943419 0.9685091069350997
Ni 9.173709402757522 4.500605533762453 1.9824856206571186 1.7496544703081287 0.1655322495092762 -0.5720683965035825
Ni 0.35198814343582463 0.8562617975181931 4.525344378155224 2.1901222370528735 2.101721025499645 -0.34210327333121726
Ni 3.3296125648589996 1.9318460835936648 13.049846503014164 -0.2841567787234203 -0.1493111596647235 -1.6843978151921637
Ni 7.438738231901951 8.27473161400738 7.5291641236305615 -0.06184325855904187 -0.47826735409102145 -0.07168569857076042
P 0.18062293455399644 4.8562293172640905 4.575151905845819 0.9752834495444559 2.343138870593642 -0.24811608304977914
P 3.9833977473358626 4.232148166517582 9.130247567934088 -0.6126632872068094 0.5458297745220276 -0.01808899629122691
P 0.2992315223890939 7.772839100335085 8.334180444074333 -0.5168994646409226 0.0415935071710703 0.5638483225866353
P 3.5471302045762676 2.381177470626436 5.848411612563783 2.316933672953184 1.1651565897919416 -1.5585513143082834
P 2.2123203345423015 4.649950289676865 1.8810675694634753 -0.5830385223618411 0.36388977307868947 -0.3563626114637089
P 0.6822004335416882 2.0506992710662177 6.254940842583228 -1.0162691479281982 0.9514038147133808 1.131472310165619
P 8.671270245956068 4.191955998817556 13.23426907057272 -0.8010480158342268 -0.17268377295239293 -0.8193866662424146
P 3.0128930949056363 6.266559325362351 6.31636963259428 0.6452931574266887 1.0865916476028448 0.2836165899492341
