# total energy = -340865.7233749179 ev
CRYSTAL
PRIMVEC
9.30426591693341 0.00000000000000 0.00000000000000

0.00000000000000 9.30426591693341 0.00000000000000

0.00000000000000 0.00000000000000 13.61773365904326

PRIMCOORD
 96 1
Ni 8.682926812623492 0.6260672895492726 9.530125793175506 -2.012131192954954 1.1267070275664919 1.815077990019261
Ni 0.5727091867599696 1.0090196995869998 2.940436385332735 0.30799270480075347 2.63635647396775 -2.211772211222481
Ni 2.6502735560122357 4.291369239921008 7.129782491281282 -0.8475032219729727 0.2820420463732627 -2.517508258778574
Ni 0.6459681834001548 4.669141034831253 8.601014848906155 -0.07827286486997487 -0.10777215988067244 -0.26558287237597483
Ni 3.1676372488348594 6.252540967293338 11.033850507388369 -0.618886899519018 -0.7484774408263626 -0.7741082540205894
Ni 5.277816790982016 7.199817559865304 10.74947120961105 0.5153359768085448 1.0684535432412372 0.22195125172895322
Ni 0.43523959184791156 7.325043671576475 12.994871505656773 0.8910528244291491 -0.6831259120037461 0.9684995938534031
Ni 5.098737589547667 4.112476123800144 6.814981036028518 -0.6826741691783081 -1.4276572236981668 0.3841940318536803
Ni 6.85275914594611 7.6764099605028955 0.7312548042775813 -0.01389115615979543 -0.3453657461325729 -0.6695779981159823
Ni 0.683533225633804 5.427959726169117 5.7096026394116075 0.16475243392045819 -2.603001295546072 1.5681803527576152
Ni 7.943730817592847 8.22420790634634 11.826838183988741 -0.8305498819480857 -0.7561110461122204 -0.7250811733896093
Ni 5.782629029409934 4.1627284627073475 11.736906873686676 0.6354661440339379 0.7982069468410059 -0.557525208582085
Ni 1.2676503725371029 2.254256096114576 7.790787298437766 0.08685520722234719 0.4217511641718478 -0.035547300976990395
Ni 1.8177836890648125 7.582427572926214 9.423593812057252 -0.9089736705736281 0.820910816196425 0.8677984818868991
Ni 4.6148134275586825 6.557199842534485 12.979728813271757 -0.9641472304219784 -0.406345628250055 -1.3963699835491115
Ni 3.688694735130204 9.246569922910368 10.006950800454957 1.9851158407083747 -1.3903505168279087 1.6312960502711777
Ni 0.9092323806560878 4.595730378660575 0.5765639440288558 0.6162530614405968 1.5631934410659853 0.23224697722800647
Ni 8.793768529602108 9.260656581141346 0.9378122935280103 -0.14345110133952071 0.5916907987202004 -1.310116414466505
Ni 6.597347748919335 0.5663813556748394 13.124893966323077 -0.08001273037921705 -0.21994656259409862 0.8803359522322775
Ni 5.820302001125405 5.129116016974443 0.536460698119242 1.686618476992566 -0.7678373334102131 -0.14789036805779693
Ni 1.1719001744822943 8.071496993833119 2.411959677588659 -0.8052165453896197 -0.8997511235340956 0.42516224673592584
Ni 7.175672990440347 2.445775100755542 6.433398213898056 -2.894524541936893 -1.492340008588533 -0.0950858226622556
Ni 2.546410038289388 5.86205954547192 2.613705931058878 1.0193071634235735 -1.369206535760442 0.08302297796045056
Ni 2.9085227540696903 3.3001206877720297 2.556280003316746 -1.4741242569114548 -0.7470576776607004 -0.12192016924628034
P 7.1228712827383704 1.6658171178055388 1.6881771290741536 0.20601298323214198 -0.46771811782026546 -0.1280684482358633
P 2.6001793896214975 5.642199747586862 8.859179378145972 1.3555251816186074 -0.39760876259768946 0.7040994289316197
P 8.872808266505771 3.501604560950232 6.599644041687767 2.530324950927268 1.6482367918905743 1.0656371568383647
P 4.513713276741118 2.9314112476286085 1.0894932238310813 0.5509156736853673 -0.8406815710654489 -0.12517929961352636
P 2.0619834459539876 0.6344011203137941 9.128184307322984 -2.2779274668933156 1.3056349816563835 -0.9158387731245775
P 3.794121369486344 2.242253593394656 6.719575095803662 -0.41787676881810615 0.9890239390589999 -0.22776682996946582
P 8.636935827395146 6.865031472370587 1.688953104831395 1.3212886290332404 0.2513983533454767 -0.033675280765258137
P 8.575685846460853 3.4740174132257637 11.513411899202648 -0.43946092274678505 -1.471829290229691 -0.3971297660787419
Ni 8.241662708751434 3.1172546502082166 9.217298703098841 -0.39048140752428884 -1.6813248326937944 0.11482109630765386
Ni 2.64297901172354 7.3227920392832795 0.9234809331097981 0.1587892743584878 -0.29456511854093786 -2.296773653065541
Ni 6.145588433366602 6.38953697508257 6.250240022392068 -0.4342019883406909 0.03714806980520699 2.069833946983061
Ni 4.442321646221776 0.49486318714232647 7.833247314842694 0.7700572238796675 0.048259606337336246 -0.894081326842828
Ni 5.308632518895488 0.19537655318955408 2.500842397149224 1.019864064368308 1.319839812401856 -0.16688079311737067
Ni 0.36027140160334703 5.525477734702053 3.3545376159950746 -0.187389968814316 0.016132386785488347 -1.3644435671541597
Ni 5.7253519699185915 3.153299375430676 9.518427539943136 0.3348553335195524 -1.0553815405486273 -1.4003492799118336
Ni 7.088808366104549 8.696297042397543 7.18889714324331 -0.2329157211602569 0.5862819689998031 -0.6709121435463735
Ni 0.32703191248170643 9.31245342815049 7.821576974407348 1.1151460622017697 -1.9734350619363368 -2.2772620653951745
Ni 8.787227630833035 1.0994478576760758 12.195347582420164 -0.4728289566842695 1.1714046275841827 0.2786659308121781
Ni 4.551004773563942 0.8451613463693302 5.040209106323124 0.2158610796708153 -0.9671057988296698 0.6469425201046535
Ni 9.0883601893836 2.518813586299245 0.31791187126770165 0.17823889844266724 -0.36319326123229706 1.1676557020647118
Ni 7.445412956605632 5.156582209245144 10.039864640277994 0.4355430757496176 1.0088921387378367 0.5509714666239672
Ni 1.1881454223497219 4.517127942243607 11.26196039764688 0.08872517055155042 0.45693773937530985 -0.35804462715182206
Ni 7.117995847525006 4.479240972417625 7.6460575850200065 1.3456637154434954 1.458700466157217 0.5086919891294659
Ni 2.8297063195422116 8.462573888657694 12.334602665915131 0.5706110952317657 -0.6594825615531932 0.05124465710758916
Ni 6.838477098135973 3.028594302597268 13.446149790674141 -2.211685050825314 -3.5514426851970198 1.3721357935920948
Ni 1.0173749301625723 9.342785334248894 11.065797634007842 -0.07678085370548066 -2.983581641906565 -0.577727908782205
Ni 9.26252673854189 1.412694570134655 5.842320545843772 0.1550812293792813 -0.15966036410953147 1.4703748171713515
Ni 4.876607550838067 5.2084720989110345 9.491179067489215 -0.6736794218788656 0.9843121354056276 -0.7374795470539621
Ni 2.394676073671973 2.5395527944873866 0.044699553152746166 -2.508028344312597 1.2094757234242912 -0.29999374575567694
Ni 6.513320925614217 2.5357659583579233 3.8334867871279807 0.661785498654757 -0.70633551735099 -0.46420779067416185
Ni 8.000356578486985 4.737471561943731 13.206096014569459 1.8091886211180195 3.1552693694942753 -1.026049881464046
Ni 8.212614791316092 6.55652993540593 4.859079244734145 -0.23726628481946885 1.8072584939748422 -0.08003921274177829
P 3.7740241556297325 3.6813722780444844 11.0609901199339 0.21368361240352232 -0.9953599085793566 -0.9567162280652297
P 7.466580161014795 0.6482244678261864 5.127484979201728 -1.5281593322799873 -1.3717475570147408 -1.2497728803814412
P 2.135003322966342 5.694396678020006 12.77098296073472 0.15491102235000417 1.7647077650968253 1.723449786888303
P 6.712916032860524 1.325141430138955 8.497656552809424 -0.18348729132580013 -0.12923598618140325 0.5728587536153619
P 9.171475194652633 6.975063718235534 10.320349172444029 -0.23285787133912803 0.3971395362707547 0.7245474123733263
P 6.773998537012678 6.22824752961759 11.963409917263224 -0.11741225407359777 0.6011506585815195 1.294658942260854
P 6.513376751208263 5.361248141283977 4.467542719185256 -1.3616657472987066 -2.747736920024971 0.9855699190721285
P 2.4892260214547894 4.349744202761924 4.6072602246842385 -0.6759782452153713 0.8886812388731793 -0.2757860381612218
Ni 8.019346584728346 4.171437255378545 2.152228310009279 -0.5519124903809979 -0.4737869497221647 -0.5733881437562707
Ni 2.2354149581240033 6.744224886854735 4.651517825217453 -1.4779575146146158 2.0955979433210423 0.4735362671639393
Ni 6.769392925503872 8.592694044113577 9.612131729976154 -0.4510666253065135 0.12848085318293356 -0.6275309483472612
Ni 7.939953285729058 8.750196653449093 3.041180182774971 -1.314771139629697 -0.16799330945525906 0.6755725251365204
Ni 0.4857366329423496 8.915905625109392 4.496711592074366 0.5546949382221416 -2.5350699218114214 2.975635647586611
Ni 3.9101548667112507 7.919437379917101 3.427188113660157 -0.27303958576433623 -0.7840512241659142 -0.08470165121445412
Ni 1.7236617375030165 2.2152526144076714 4.675635412271954 2.3686979500096688 0.1911134404124902 -0.33320802772411645
Ni 6.055541750170176 8.014545583640379 4.6923579689684765 0.025668094190065473 1.441061412919215 -0.32075051868705406
Ni 4.22043351841971 7.45722006974639 8.563661013503314 0.6067710900920905 -0.8778047011699914 -1.2618357250832462
Ni 4.595274469642533 8.487946621151666 0.3669444209449959 0.9764813265072988 1.795539148655385 0.46869102325649603
Ni 2.1529977727805485 7.037355776925354 7.174352715141155 2.229815184767121 -0.7855231807257504 -0.24656647917447216
Ni 4.893606444225117 4.518197932796158 2.526743611933499 0.9731088104906402 0.008480269556869266 1.8704582665617786
Ni 2.6274688008443863 1.451967875546116 11.575686279787687 2.6556497749797234 1.5943613820283573 0.6772038900923564
Ni 3.952368320075808 5.632560528348228 5.511873037433008 1.4096759566293982 0.4519382292781894 -0.06106318585990774
Ni 6.798077976577914 1.6660218116503744 10.919134494182952 0.04228847635556588 -0.4590149336193126 0.5402983031808373
Ni 3.2937100487223976 3.433506640479613 9.055669651936748 -0.5703835526019918 -1.2912391179460279 0.6411133150173862
Ni 4.375870580775518 3.17457823102793 4.504583000834872 -0.608145601842114 0.3277148658200291 1.123847960851142
Ni 6.770314047805632 6.311018277056672 2.7333922829875372 -0.5631950052733526 0.9221896550432699 -1.4241823777756892
Ni 3.7618727846590216 4.121408218847527 13.05212065235109 0.3151992498515217 1.8484455097361134 0.4312462481464766
Ni 0.9300767270463499 2.318269443954153 10.358914423237671 -0.3541103250944224 0.717074758145365 -0.9058017006035496
Ni 2.187451468572693 0.24340889430685494 6.381351082142271 1.1209336154178244 0.008355313943230771 -0.5153058949015578
Ni 8.659191630888207 6.858248662693981 8.163899517098294 -0.001639592485952015 -0.010186710725014713 0.21079806332561113
Ni 8.830231946779913 3.2295106155693345 4.372218656498333 0.09178504042379676 0.788019979005675 -0.4619110242201851
Ni 3.0502639373528453 0.8867821180104315 1.2026433291235048 1.7377253229707104 -1.7441875336562864 2.830027133584455
P 1.4285490388437594 0.35873805862021296 13.591001389972234 -1.179183500198653 -0.08915942987549161 -1.2337842182626688
P 3.068314212761098 0.6035174712609007 3.5054909527224107 -0.9076462100114561 0.8603618231031956 -0.9994898715873303
P 6.449633227073242 6.539959038239901 8.473743659599759 -0.6643244630265269 0.6694201323818794 0.22395131287811754
P 4.935075556335727 0.4385239976309596 11.749026610154093 -0.18524026946116484 -0.5248079208547219 0.2965386973275409
P 0.42097243086285246 7.5592692556627386 6.328174412533619 -2.1204602537803607 1.3677438351719864 -1.710785818267389
P 3.9715071945679608 7.99101509574993 6.011234837028886 0.4751838300696913 -0.37685301810757676 -0.012209397581998328
P 0.7361962997772323 3.1691724526711287 2.2184374645480043 -0.6933892416029671 -0.05251426784863215 0.8638286986058734
P 4.575921597039869 6.4924793705036565 1.7092298910155213 0.24640629944752404 1.3228678005949024 -0.1578924735758313
