# total energy = -340856.80363811954 ev
CRYSTAL
PRIMVEC
9.44549383662052 0.00000000000000 0.00000000000000

0.00000000000000 9.44549383662052 0.00000000000000

0.00000000000000 0.00000000000000 13.82443499503725

PRIMCOORD
 96 1
Ni 0.8692564919038441 4.173255185995412 8.827454123271256 0.0775526988744987 1.4586017357958234 -0.3992902640651704
Ni 7.7205764056794015 9.030175194855866 0.6967789461044167 1.961803905455312 -2.1651316285458067 5.38049719200103
Ni 5.804406911960971 5.302435602948262 4.3814329192015915 0.8734435959878184 -0.46725943301629197 0.8026940360780821
Ni 1.5923968659460066 0.7358502301577636 4.341438810428793 -1.3948023819516753 0.022868677068057387 0.4611520345669735
Ni 7.052524983646022 3.8193608793045493 12.617740828891625 -0.8617584463404063 0.1960964954493784 -0.6622539536507432
Ni 2.356272820004335 0.8549701829154029 10.201216150106221 -2.608266914820385 0.530344534402235 0.21801052191365036
Ni 4.101129397277568 5.010569852374488 12.20910421980512 -0.6768488207457828 1.0247679294278287 1.2173222160519037
Ni 6.367197753916869 5.165381491594687 7.072082822582529 -0.8927302121315722 -1.612821645616074 -0.08099617733840889
Ni 6.84891792476679 7.486167592346411 4.337830631894191 -0.0028876059604401884 -0.189639426970125 0.2639517645304551
Ni 6.025110314158603 1.2772101918069678 4.990731482279662 -1.1173088741810435 0.6842029471180088 -0.19132092843760598
Ni 1.6885708812321616 3.2403143429558536 4.7595870315161966 1.0539692335821333 -1.0027477164029956 -1.181998601049945
Ni 4.412452864556262 7.501667647255523 12.83449412568829 -0.9957558584661947 -1.4630312323220866 0.16592228585884328
Ni 4.600635432474752 0.4347477314452799 13.090177024135107 -1.6730479373969833 2.3970618458643425 2.56914295223573
Ni 4.974620303938119 3.419722047370037 5.970137541720437 0.7842635972870364 0.7996429079565841 -0.6890116813605618
Ni 6.36637599597836 8.745856393625406 12.900547406605359 0.5184405838757974 -1.45554366569579 -2.2756921498048936
Ni 7.896782087781466 6.6606220109257475 6.428154246516477 -0.3979933996306178 -0.9181980173853735 -0.20577104242466496
Ni 2.5474779458575694 6.9350041529457345 6.682399540845583 0.0551578761190663 -1.1753451002891695 0.4478800000484157
Ni 7.503490627509916 3.305431575462507 5.9367099400608705 0.2187186037242685 -0.010338405811530582 -1.5209887826734774
Ni 5.547867307249524 7.516534854097049 6.780346475270335 -0.5384010861581243 -0.7046784413635412 0.6809386745444401
Ni 0.03798316319683891 8.032438266090221 5.9653127836171 2.0213599106420737 2.2598952919819535 -1.123605762933349
Ni 8.983930058454275 7.309801336854065 12.553153488572907 -0.28030809440129145 0.7922399306242937 -0.29721721145180424
Ni 2.0204382969735724 6.544546340738009 8.921875054955258 -0.018491631046284283 -0.2542512494132395 1.753967752971502
Ni 0.5308178463024277 3.708196865760771 6.499446942703556 -0.7022040116811197 -0.9322922906949105 0.8951982140560906
Ni 7.559294603380138 1.7332764021857432 2.3774430046891575 -0.6429809643537442 -2.9871151089811203 -0.5935900726254423
P 0.807909900420784 8.987557127975968 11.206667213450947 -0.24220511688198285 0.13682896803731273 0.22067855566411673
P 6.5700397278188705 6.520498114169697 8.677763830651738 0.5723100802007434 1.1471532112359857 0.46576099409389465
P 5.0824311672730405 8.773843391002433 5.172715917333216 0.7100098808787836 1.802281095364909 -0.6299285020451602
P 1.3097121350990184 4.437691223311379 3.1269353611755197 0.6346187084319781 0.3670427168853744 1.6194802885831723
P 8.373222227739129 3.950568230153103 7.846652019884371 -1.0340071886379094 0.08202898947829744 1.134331376880969
P 0.44303048473583473 0.7950158571810345 6.397367604852393 1.5170426535415356 0.44439409838234434 0.886117591911061
P 7.554798548452205 0.9622785459936729 6.9208718055020935 -1.121103051116153 -0.13175875260325698 0.6389227351239706
P 5.294010222705162 3.149467586029686 3.2201812734623907 0.0655171078662033 0.4034176559699827 -0.23403003727035823
Ni 4.149452542259298 9.30567190511429 11.108279174477593 0.4520243612340925 -2.0108065606062597 -2.028597051820461
Ni 1.5180230497641976 2.239932675997306 2.216112085823455 -0.35636466834623787 -0.3197287622907591 -0.2904616378955256
Ni 7.557358277203193 9.092496561272881 10.994987091237883 1.464495475572439 0.14573835471180063 -0.3691487074847836
Ni 8.30315555661433 1.1913317644860368 4.863394894686291 1.4675879984548337 -0.29941550465470373 -0.6494907404478041
Ni 9.220558562770591 7.386989910112605 10.315890109051722 1.0820281966018785 0.7146568927324918 -1.7976608229840783
Ni 3.801990616673314 3.149080320794297 11.22132095213833 -0.7031370650183503 -2.537529439095507 -0.038315864861063045
Ni 2.2901071377140667 9.281708687987893 12.785915007831461 1.7317220541994243 -1.3056048997493965 -2.2213428856300523
Ni 4.411083267992081 1.428470325453843 9.429965154687116 1.5816526762124374 0.2095737040002068 1.5434039171438838
Ni 2.8713072465912686 8.855452455240536 2.7813521442558504 0.1241382599435217 0.32311233405101125 -0.4355934693715789
Ni 2.422249592423682 1.6449327010492862 7.847053453360079 -1.3623874559560794 -0.3738216874804207 0.39692279227425836
Ni 3.7596370236127057 7.261270391014321 4.452656663285783 0.8218693234549523 -0.4468433312537853 -1.3561211633313934
Ni 8.647519360317201 3.1438569628633166 0.9915010139265256 0.2652715117831432 0.45790447416395336 -1.0423547892716563
Ni 4.752500077708575 6.0985301354922585 2.416939335952078 0.8967814993828104 0.7662537909731771 -2.166491227897495
Ni 2.876549495509341 4.32787791534469 6.905498320206499 -1.1139201602144686 -0.2925773986869477 0.023606069454714183
Ni 6.531275422305771 2.7303238099225253 7.96388381848215 -0.3322749743868858 -1.0995132407605193 1.6723431980204748
Ni 5.981387124533813 8.721071418560502 9.040640801704921 -1.2990128483541756 0.5241684874985102 0.9415410629866882
Ni 9.034482339912877 7.339271276717824 3.1108572420613876 0.3952731724859773 0.28675256447505454 1.2955534290506656
Ni 5.022934003426301 0.7480254713386567 7.375390844038022 0.6604559812100561 -1.0518385603923754 -1.9995235314932724
Ni 0.9164206748274697 5.683665167961471 5.365111175373255 -0.6217387671455163 0.13265863870970704 -1.1670116407228095
Ni 8.624444019584134 5.306601065602083 10.506694745978601 -0.37990337489812637 -1.8310810503157366 0.6132039902016279
Ni 4.47264899492541 5.882218887793553 8.739918011832987 0.761636861026456 3.6237408205407973 -1.2026306754779998
Ni 3.639263653861502 1.7786431076875504 3.393953796426985 0.380378514762332 0.11754697987924916 0.020463410060674432
Ni 3.3037880595854894 1.8861800517096357 5.796516146652579 0.035964076799434835 -0.19047374994596228 -1.0393558545443324
Ni 3.4587602721959727 4.732522858858623 3.872610793719913 -0.5753727782864672 -1.0392684370368488 -0.536087093312967
P 9.2411214022204 0.5551343248874481 2.9369184784103823 0.7878929665095076 -0.6526663099623082 -0.9657958217689949
P 3.4470573056923834 5.277121680244776 0.45006454377959815 -1.0778110731967374 3.270339091477626 -0.3158967901391785
P 4.191031604849129 2.7895942819241575 7.864665520626094 0.4902497232638783 1.2720216644773126 -0.44403928614608684
P 8.746923734396114 6.854679675829897 0.7142965584349709 0.40688607413455724 -1.4800578487870704 1.9619139486706147
P 0.9745104601358424 2.988497485017444 10.513952663219408 0.37718649018759554 -1.640875980650129 1.317632520337892
P 6.692576115592126 1.2928897110934554 9.948270555689055 -2.1012618264750396 -1.1795503966197685 -0.793646324053517
P 4.0618550351129805 5.606287684832009 5.735620105211667 1.4738157245321004 -0.3004372610509987 1.3265431925639606
P 0.3010042655796045 6.755738130934742 7.687754260156138 0.17651985886903146 0.4166606370228179 0.39131598761044223
Ni 5.273371819306984 1.4232186310422241 1.3640860632463645 -0.2500431248691629 1.1307691134510074 -0.2840796456285817
Ni 1.6519412572604752 2.96614000179388 13.415175676969811 1.1271022061223817 0.16316734882152545 0.1381939667056394
Ni 7.412029913503254 3.5624056728770745 3.405373398124192 -0.5687969248411623 0.8228350298023313 0.8960356223557213
Ni 1.1852677576294557 9.035804709009328 8.234316799650522 -0.33001291782558645 -1.097856936104019 -0.2994270746189294
Ni 5.876381572782077 9.267889930929982 2.9725714383494037 -0.6437610370528783 -0.8002720569001508 0.06561815222044183
Ni 6.732728908656498 6.372175529015651 0.0662214107021903 -0.6103207551165618 -0.13651040835562941 -0.45104194271616516
Ni 0.5445855976951894 0.7740024676890774 13.64399842541965 -2.360172943257793 0.6300969093022245 0.9815877944959288
Ni 6.086269884869451 4.042113953601681 0.8865455232905832 0.1897985782558086 -0.5432429876314581 0.9726241575447379
Ni 7.573066132970318 5.636560491647185 2.331103413352104 -0.07702356584390607 0.2733710009618259 -0.42550266079448007
Ni 1.0630147346625827 4.684870343918665 1.1899479996815365 0.11080066229435112 0.7346806441525863 -1.5729032121545814
Ni 0.11289442796141992 1.7689236948286373 8.73408447501893 -0.20636008215891555 -0.09770783366613495 -0.34121624274057366
Ni 0.7795261923148231 8.27718044936262 1.3989635481652531 0.40932579392430146 1.2563644175560298 -0.5108131492375267
Ni 6.159869170580482 4.573517420503965 9.68647736746728 0.5873793158290401 0.15962205467242832 1.1501248922697997
Ni 3.699950949895046 8.40408065515416 8.6269584099661 -0.9308313898786679 0.19621065242973948 0.02617331596125815
Ni 9.039951280676057 2.5946015131589464 12.337823627653638 0.5568569788704667 -0.5337545885250485 0.8131954498300382
Ni 8.03667929269241 8.235714732695342 8.475193886963865 1.4088377769988187 -0.12393668545567689 -1.285264902640464
Ni 2.9602554593146744 9.031233090133028 6.102686152652533 0.48706026979230305 1.0763792258462173 -0.10425051988065916
Ni 3.799837044144809 3.617274544886235 1.4421927384775832 -0.46428466665868423 -2.5311811282799765 1.2334700294563594
Ni 2.40850639931414 6.557779477196062 2.0882361605486026 -0.19338989515149274 -0.5112301821702873 0.3051696335296615
Ni 3.320553810629776 4.291427755750379 9.268467995135003 -1.7513105178543131 -2.576736448312272 1.0224577932374135
Ni 8.028537277255692 2.7143231438554705 10.423236254104177 -0.25156084706527 1.9103291346147873 -1.6419663855008302
Ni 9.328237189195868 4.87279788351141 13.038280648944896 -1.132998002781526 0.8334508576449646 -0.06302879422671082
Ni 1.9294026301764833 7.093886799884293 13.312737410363898 0.020751116504422327 -2.028421188364229 -0.04559028703528923
Ni 1.637045713938312 4.835903785720434 11.461921286490773 0.42975063743755665 0.5477545023485663 -0.6697379207326144
P 1.7048643575991438 7.720444168769756 4.458241783619579 -0.9171940016008913 0.6739532443655425 -0.6425451623679064
P 5.0176539725340445 2.5568478754552775 12.934320713328711 0.9539512637255828 0.8744455548897715 0.6029386037198777
P 5.589597497736092 6.221774935281471 11.45165025680877 1.9716676856232687 0.17877523056211148 -0.2701674064228637
P 5.554072996509296 8.084435708061374 1.063175308052866 -0.42545972337168664 -0.06964115733690587 0.5607180044877699
P 2.6804893859734236 1.1095999088318338 0.5315319256145111 0.43834557819541925 1.2262591135302172 1.799649571279333
P 8.193663395428207 5.079163026506098 4.738283665372374 -0.09858843649887537 1.580942023298658 -0.0097683922406735
P 2.906520046531043 6.993830686750701 11.035853019064984 -0.07548270371934743 0.20575201626127143 0.33611286007573726
P 7.7169493361577075 0.9786003588412937 13.198007723006475 0.822210765954771 3.287579109504996 -2.667918050824115
