# total energy = -381165.6292848909 ev
CRYSTAL
PRIMVEC
9.31457557044664 0.00000000000000 0.00000000000000
0.00000000000000 9.31457557044664 0.00000000000000
0.00000000000000 0.00000000000000 13.63282287908715
PRIMCOORD
 96 1
Ni 7.164948554538624 3.806028749770906 13.356171864374963 1.3257898593377038 -0.4390580308814116 -0.7312821599939986
Ni 8.548973404254024 2.1107200969459545 6.026607746115856 -0.37184425203907573 2.1957100155532956 -1.4453245590709431
Ni 9.18122816913239 8.954399623295478 0.4479202445409029 0.6068991310295225 -1.099570576361016 0.5166708935698844
Ni 8.093853924205673 0.2990630798778652 7.289811372368717 -1.0130755806915648 -0.06604675511742818 -0.32018924686694533
Ni 2.1748509501854074 4.541153687950147 9.154645301730783 -0.7035499841860529 -0.9072644011920052 1.0049570653494888
Ni 0.8485634289943454 0.5819728226914082 11.955822289403574 0.1899111925742729 -0.23918509910873645 1.1322534113060179
Ni 6.436530110815797 -0.06650048128071856 2.0428103203718257 -0.1785458881601248 -0.6057907284566921 0.24981172558464718
Ni 5.741774543433911 8.85192066217123 7.609187678789007 -0.261444167617253 0.13234573545497852 -0.6319447611442407
Ni 7.816149166256358 4.577266297682806 6.280668385276061 -0.021403919597072815 0.40577330068635276 0.22111384342932242
Ni 4.919101908871575 8.165613414889297 5.313392552742692 1.3194628886784117 0.06051759776908287 -0.7407877854915887
Ni 2.5800443048360138 5.784453928988475 4.924748404620849 2.4739555709986036 1.9193395656435142 -1.7938797586750912
Ni 4.4799010385815725 8.54786496975359 0.9182113053817612 0.12308616452992348 -0.7760535506724183 -1.6736886563047757
Ni 2.4855013621518536 7.534681319750945 12.36784695382409 -1.880566044419742 -0.6711198886818055 -2.3603189819173545
Ni 4.77353372086487 2.0911594881147493 7.997286924236266 -1.3103904940634978 -1.3417864918762763 0.07568916330319869
Ni 3.631147592244295 5.508127728232977 12.995120283653444 -0.049656743795178995 0.2907177197703896 0.12702535168332962
Ni 7.778155012245651 1.2108110012272582 12.907951690498646 -0.3837034653705069 -0.4600454317663561 0.6692131585773958
Ni 1.7867125835204853 -0.018750240751055615 3.7689166860727292 -0.3320255773802411 -0.4051408093086764 -0.07424934553287858
Ni 7.284901659552084 6.987599034469027 1.8122652588569836 -1.6791417089995468 1.3638735535833029 -1.4895858428821638
Ni 6.7170571851821865 2.1653500830388217 1.5619667767953138 -0.30385554270392834 -0.8819902000062487 -1.9707888825627413
Ni 1.4870067979238806 3.7992477387094223 5.460273164456215 1.2296876795957918 -2.219205270461759 -1.0301675031768451
Ni 4.023067676616583 1.0507213898072914 5.669905140757807 0.4940163893951622 0.366762209530478 0.03147415934888128
Ni 9.423928751849484 6.24993121714173 6.7139610202414755 -0.5433448033166449 1.3845508794269963 0.04457084463183937
Ni 5.135395669666538 1.9424429735437834 11.394463554047569 0.5384607357514661 0.38161187294880083 -0.9406542895063607
Ni 1.761209275434847 4.415071592169577 3.2718089619818516 -0.668453654703552 0.009151327481964885 -1.6440425513035686
P 8.839821028422783 5.452286847307702 13.434738446931844 -0.328052451665106 -0.3943815139096434 -0.5712726400751645
Ni 9.15076019223388 8.084734954660078 5.296569497690292 -0.424010906740302 2.709970757019791 1.9780090544602644
P 3.8306751168982256 4.15102200209957 6.1685665360644215 -0.3294359622761939 -0.5226677345832675 -1.0128084430731072
Ni 3.356116117501911 0.19979019568680684 12.007109274301433 1.3785231851756774 1.395957064381409 -0.9595549830656054
P 8.62343412187148 3.1337492533936393 9.114032820509383 -1.144916608595983 1.2019537040156332 0.1280314243503408
P 6.388178148700184 1.0068311094203197 9.204227719287635 3.1275896441908198 1.6490425756213214 -0.29104733519566656
P 5.536872508639216 6.566244891093591 0.5150019553411773 -0.4324029874587392 -0.5984707977565111 -0.20966292127990344
Ni 2.211466547002297 5.403720649952509 7.039130992706056 1.7678553095868714 1.612368360128739 1.9392414467737633
Ni 3.7388613448748003 5.593095287165481 1.759247625806346 -0.10335346198768652 0.6828736867836239 0.20573093321534894
Ni 5.498943556657944 5.121442435366944 11.71697514662623 0.9511968409088973 -1.1425275395385162 0.7923934254830225
Ni 7.573923626896597 3.272406026279985 3.1785607453108047 -0.16085515574858106 1.6643249557016886 2.2376735044692753
Ni 0.4749231993036005 4.117023801035807 7.371703258426903 -1.3018351482943191 -2.177976345718959 2.047835588335099
Ni 1.6472547571296237 -0.009045384398087487 9.8635515724157 0.5276050239838849 0.0012773240505268323 -0.21254255682054365
Ni 6.975573917325653 6.296336432949856 10.472639124777414 -0.39938256666866057 1.9573913782099126 -0.9988491526795378
Ni 1.805378993090836 5.131725726866779 11.43018122577335 -0.70108095382027 -0.12752414569661907 0.5663595190442633
Ni 4.876748533464198 3.2532459442010375 13.591869749130481 -0.6369985215180642 0.0016629895247197166 0.23335975067621098
Ni 8.264804330814776 4.761080133242335 11.425423340539549 1.5580736033409166 1.3378254503459992 0.5973855351121324
Ni 0.12991318073879682 6.439454887564843 1.5930225034163246 0.556473627389119 0.6761384249423195 0.7375687643336588
Ni 4.188159215151958 1.4980725137769626 1.6465999424625601 -0.09093503371867566 0.8221287477639261 -0.8676403590424799
Ni 7.732010604555273 5.953485533016992 3.560743372315406 -0.42158044292193847 -2.080890719017855 2.631184442848507
Ni 9.169324141472257 3.9169839747220117 1.6264227087243899 -2.0143973632813115 0.02130287524283428 0.24402468658922488
Ni 7.068458865546977 7.3495261853001335 6.277670023379505 0.14538611357870443 -0.8837568049883683 -0.02098174445798967
Ni 2.96387933755807 2.0943078146790097 9.707810936359206 0.6676789813210566 0.06999082736684074 -0.1052841033514961
Ni 1.6706343419707312 2.7104017908325475 0.8178430270961554 3.1327511337871012 -1.8788554894865384 1.0252888349283054
Ni 0.3285381230138018 1.938950007681068 3.7011755033175744 0.9713771725115142 0.7967283054129504 -0.6171357211558662
Ni 7.610539223713487 1.0162388308105663 3.8525951077375002 -1.5423875600642276 -0.4054290299730566 1.2016999361336143
Ni 4.392856329282708 4.435330794173325 8.264053576018684 -0.5913136178864395 0.864543465284711 -0.8892725926002748
Ni 4.364903287805351 6.717942069867408 6.9697122548792345 0.6335671272390121 -0.725562483901402 0.5069210132719721
Ni 5.430546627778162 6.394661093341383 3.2484563894100824 -0.4939138023790267 0.9189994302407463 0.836349005128366
Ni 1.5914697636581523 4.933334580440185 0.5754470310022927 1.3384725970116949 1.3227523580629605 -1.3365082741964722
Ni 5.698377935555536 5.106799922470443 5.89930450946968 -0.4250018098986616 0.34003636349985955 -1.0580860839639843
Ni 2.8818738136771493 2.167231627316871 3.7021153439990355 -0.3690047257077516 -0.18846160461193995 0.1647830300480775
P 9.210243072232013 1.6689111454784584 1.0605762108279655 -1.6245857281305376 -0.7259957147840788 0.9190917328442364
Ni 2.3860775818355258 0.3539408336825941 0.45787752589354996 -1.0684707696324178 0.34050481849584585 0.1534742899034776
P 6.724881428714668 8.222003855776972 4.0344836205135 0.5041912730456349 -0.8392396964125998 -0.3577443223025839
Ni 7.473251693445325 7.4431749287234386 13.197104061902035 -0.16003625939171146 -0.6565731012158822 -1.0969619350935753
P 2.649791847182712 7.367670978634985 2.9929771403808334 -0.1299900907386084 -0.5632500268810041 0.7523099271985754
P 3.2309189064065613 3.5251942944085983 1.9282671208865398 1.841410714376519 -0.42415617406891465 0.3547955240869051
P 8.986982008862887 4.163857487323093 4.604649287131367 -0.9692238736139372 0.264929297952376 -1.6749999189170315
Ni 6.9969042955273 8.756073678898321 11.150163658694135 -1.2164858361935371 0.1909398909491034 0.2097994468577677
Ni 4.091678840735945 9.07071072923608 3.2762538774743524 0.09514521514528129 -0.07054927097347204 0.13973842837462383
Ni 2.1963210470215637 7.352627938986224 0.8116693263660015 -0.05747958227370746 -0.23788643490197092 2.193374939662216
Ni 4.4773488448578815 4.193254288023706 3.8028347817860397 -0.48535022907973185 0.1882662007716822 0.3890865840592912
Ni 0.8760619191807669 8.575585146840098 7.4791440939913345 0.7146910884045368 -0.8969015699004423 0.8278286263621808
Ni 8.897841520046391 8.506480310212138 3.0873030534527235 -0.398215800054069 -0.17633679632394791 -1.4679932043130524
Ni 7.770172420927392 2.6868638582056636 11.099489572872988 -1.1379471192566855 -1.620367576284132 -0.8743702215671457
Ni 6.795467282868418 2.7805778036584057 7.5505254129042205 1.893592795696713 1.3044887838670822 1.1742917193239906
Ni 0.23375859010854036 2.8670543238436026 12.875069375595826 -1.2206962747304588 1.2201229187254923 -1.901916742181376
Ni -0.15163477111706888 7.749140109146029 11.428518574022696 0.08832664956155112 -0.18466228547050775 -0.06641853663455012
Ni 1.2266364652292667 6.97401838319479 9.646108392987513 0.6826823967084242 -0.8623947943728245 -0.6843762394710794
Ni 3.0419913688240174 0.231903126642266 7.803346282047553 0.11100197967187979 0.27036255315280533 0.26080936224673146
Ni 1.1372072245681217 0.996948344672744 5.9193858030788205 1.6855026182205681 -0.6153914847712498 -0.5666377124063146
Ni 8.704182178041822 5.303784567976316 9.07362525995193 0.009632895104073733 0.35234140611945775 0.2729393127410461
Ni 2.9045641199213477 2.7368738147841127 12.201430882633572 -1.3268344985521343 -0.36865814100161026 0.5274301889689175
Ni 0.48481993591462713 6.459164529606192 4.134153305626563 2.09087816924787 -1.5364786507789603 -1.059045619663776
Ni 5.291861911164915 1.9500157235341502 3.60991688000193 1.1418166295144208 -0.37808483363214884 0.9510166065772911
Ni 2.665254042734998 8.197571723889233 5.7641481541065565 -1.0017709543120232 -0.19717378767395718 -0.1140129985840617
Ni 8.283005011603432 7.730520272453847 8.570519880610378 -0.7959340916464293 -1.3294801637050975 0.9128724914074021
Ni 6.102360395373734 4.489234243366747 1.590637040596481 -0.4979517198938263 1.617470200131679 1.3030695349220525
Ni 2.483917884294089 2.6808186986192575 7.243732166707776 1.136558466439275 0.0468832948150999 0.27682244984553617
Ni 0.8097412092097827 2.4741655236053877 10.535950295361083 0.5411765920207325 0.5990724358962521 0.1841758327523925
Ni 8.613122886644744 0.500230901300927 9.804017462251583 -0.7765070932700692 0.11172934475620758 0.3972472654932126
Ni 0.5208962188023138 1.7235970190251289 8.225936469609609 1.3986832050633202 -0.6838064830105384 -0.9220191909036765
Ni 4.602434281045625 7.37052123877896 11.54524231566388 2.75116985696592 2.967082872920593 2.486469644305214
P 6.1014755106885135 6.823569357555917 8.593259554105437 0.33108558206447497 0.26540598047847835 -0.9618612626012788
Ni 4.75591985834115 0.08355360635127625 9.682998769785602 -3.23874434739048 -1.7153636674460586 1.9012084032604417
P 3.0749090791142466 7.436431175964489 8.396319618562606 -1.9367940136745354 0.5392806605496003 1.057317838339392
Ni 5.914876617014446 3.720697922388681 9.70472967473951 1.545247655220842 -0.44795893291546723 0.8289198025438305
P 5.740312155059388 0.5068517016615083 12.761058038379236 -0.7036757111306398 -1.6053384498651513 1.3000443749424835
P 6.425995325773847 1.3800102676171864 6.029865984672597 -0.7733032416207908 -0.8255603991532944 -1.113318779185044
P 4.038688219954646 3.8140951722698704 10.814032293623569 -1.0249612763855573 1.2075083152852752 -0.7535821090427797
Ni 3.703791967613139 6.153180720032333 10.19210273583539 -1.4637948499609887 -1.8436426890308313 -2.3079445820806965
