# total energy = -340867.73949873005 ev
CRYSTAL
PRIMVEC
9.25157670560046 0.00000000000000 0.00000000000000

0.00000000000000 9.25157670560046 0.00000000000000

0.00000000000000 0.00000000000000 13.54061767234820

PRIMCOORD
 96 1
Ni 2.972328013425448 0.4629091091869088 11.434536930624743 -0.39416579835441146 1.9364497429612393 0.6019924377565246
Ni 5.322385735978165 1.2766713071316578 0.9899806772770401 0.29843591435025374 -0.06926989004041618 0.711508062690865
Ni 6.577565630765413 4.461406266753966 3.8478241314269246 -0.8990929211248063 -0.7750827021187168 0.14231595929381297
Ni 7.515185160196713 3.479018358358138 6.448692094469075 -1.4558907646225636 -0.19625693228664265 0.9109523915665538
Ni 5.036752561324136 6.420103797746965 8.581433984303217 -0.3841410671285577 -2.1039817965093635 1.1585542539840756
Ni 3.7131665094664768 4.515352209664106 6.020320970888775 -1.9159498232356742 -0.2270726321159186 1.6804257179182929
Ni 1.90527892794667 8.365895379441449 0.2744535695412508 0.003540666163406806 0.7067641202479763 0.21357305496758702
Ni 0.3768907258228883 7.0009917866754225 12.243155252003202 -0.02996209357972904 -0.3507270104444863 -1.8205202440807549
Ni 5.047623163779875 2.7660548624865924 12.290575132809275 -1.255660963731102 -0.33837697351956564 -0.7496966579454444
Ni 8.37189965262764 1.0581490688299093 10.875661217800916 -0.1037265290563891 0.3964697638972398 0.4181639610412217
Ni 2.279736489134784 6.335535136429595 7.910144215037523 0.5099569718848186 -0.7304645491887096 0.16025737426358205
Ni 1.275709143169618 1.718082527870566 1.631156564846198 -2.187456517295252 -0.21480435627152686 0.5703573273497468
Ni 7.0578427246247974 5.839863419177573 1.8145107851777331 -0.010770865363258868 -1.9308377960911005 -0.6162152662241258
Ni 6.323757879471164 5.283751152271642 11.107774947224133 2.5669408023780886 -0.8639230580918927 -1.4167603742800052
Ni 8.924079999496389 7.6090239012252745 0.7360757844289313 -0.2709341093855592 -0.42801128614894673 1.2690579538632982
Ni 0.011127796284053464 7.271406117891417 7.8243913519207196 0.3425619581351907 0.15114744154251386 -0.4713716554124527
Ni 3.3177541273743207 2.614338258510708 2.40727779840676 0.3931414708549552 0.8212795123897534 0.9729673998167694
Ni 0.8551972338754026 6.240160633692392 4.051352339600999 2.2143497421416707 0.5439117315637084 -0.8059323405097216
Ni 3.181515410980098 7.381370356860705 4.150930758726191 -0.050454557106126015 -1.1777112865285009 -0.1646606455376003
Ni 5.752269492325712 5.652500490723423 5.993470120244271 1.5473518460480382 0.7371987825887497 0.8817680566931135
Ni 3.1114994795885806 1.6345407915511423 0.35539931347847836 0.8270922624167885 -0.07237475421798505 -3.0485277077606465
Ni 3.971886847913064 7.438915163051936 6.771717366097878 1.4031931771185315 0.8801346348547486 -1.2866317010810036
Ni 0.8418028013346204 6.426163580392505 9.677940089542908 1.290379855269526 0.5402363395946501 1.6096998121576407
Ni 5.620665815787084 7.381573891544983 4.2658094351631295 -0.28696570892712514 -1.6938977842627991 -0.12330573673989732
P 8.740112399639052 0.45554392908902475 0.3840782756508573 0.3493761528435467 0.1357107952724695 -0.019285844812805493
P 9.313747152545979 0.26693573843015844 5.572330028901763 0.410802378469828 0.4240587292591019 -0.8303714473886926
P 3.2289019861105617 5.982939050648214 10.158279168965231 0.1910321935525936 -0.10820513365303301 -1.214437695415257
P 4.627546078583889 3.696818973688357 0.7298661262431508 -1.0647154163550436 -1.2785525236172948 0.7440759693245572
P 5.465137562269273 3.5049690306035406 5.582173706359555 0.6848526648868657 -1.4236434745530835 -0.8158316019013047
P 9.062502087958316 3.044203511705138 0.4960889633547915 -0.6733927438763821 0.9303279678796882 2.4076159672311057
P 8.969856800305747 5.170835660380328 10.83309008826893 -2.049823822409721 -0.2427404205601626 0.9166602405846084
P 7.522308874146431 6.05781205973272 7.53195456786588 -0.3593108954587554 -0.3826901936146441 -0.4971747325184857
Ni 7.450609155821344 0.9605634392953267 6.491087444046457 1.155017958696043 0.5791864956056025 1.3645027025268694
Ni 2.3217108919787735 4.042957459032201 9.249812282426085 -1.2808562320498071 1.6282631769821247 1.568227661055783
Ni 4.910588811801658 2.9766947575608595 7.96548529569262 -1.9645529289553587 1.268033626363842 -2.4538431165194448
Ni 4.072460736675905 5.2345235134061205 12.327296490483588 -0.9581282779214081 -0.18887632355185538 0.5902219274841578
Ni 2.1129583185223533 4.011844407067393 0.32154131874888875 0.695658497253118 -0.008170194515618186 0.2972709475078751
Ni 8.488589787754648 4.900948669028144 13.155535555426415 0.5274224756594336 0.8088623696723232 -0.8923522599668631
Ni 5.174110718481886 6.952550531817338 0.5264794671904144 -1.5096435328639872 0.39889354284738404 0.47608448750708976
Ni 6.417846413066794 1.649556100304899 8.71774763846756 2.1140224685748175 -1.1295496392216093 1.1794948607914848
Ni 3.038254747978295 6.122721120864179 1.7712208081471854 0.08666108893367011 0.624193399333596 0.0033352350208200625
Ni 5.435171705797666 1.965691722870904 3.426060483824401 0.6606274737909139 0.6510588562658723 0.4713212617904915
Ni 6.148135201669213 4.713456218502181 13.186516309846445 0.43409683022139434 0.11058597518038375 1.9909645861796677
Ni 0.042885683134959954 4.612114448885019 7.857985676718403 0.3298547949811674 0.10899291966165099 0.6255095470418582
Ni 7.119643256032743 3.334666009322483 1.397797573218264 -0.3145947834983034 -0.15617317689187943 0.4887800806968872
Ni 7.650424706322663 7.124010000168155 9.916986025281092 1.0082105392897798 -2.754553685836488 0.05802748435737748
Ni 5.375906106366634 0.43540509723740556 11.518353438767942 0.35660095272676 -0.530900406905705 -0.4756427719839809
Ni 7.911161888458911 2.3764432188963496 4.415066970089876 0.7475379597312287 -0.05486271347615067 -0.42824577075725595
Ni 8.927586347011898 3.091950898321367 9.987166634735342 -0.6132795806345696 2.4456942621600652 1.6454826261842048
Ni 2.0678661343782925 8.737836511805765 8.944647179342645 -1.0639014050941806 -0.8359260586583346 -0.9243221280052404
Ni 4.203971897448951 0.11671326406840413 4.768003513888595 1.1192657407970983 0.4504145935448114 0.2315792617370205
Ni 8.859087674175907 8.527372396686102 3.665716098457762 1.0451297809136324 0.892917902662346 -0.8343391737871889
Ni 6.996495520468197 1.4380835633404045 12.958208679019219 1.0249144823080218 2.9999451708662526 0.9308511873730099
Ni 1.442182011755632 1.7327000188323256 9.797896031194918 1.1832247601475623 -0.7170981551841328 -0.02208886147923938
Ni 6.6255720615252685 0.11466589017610196 4.535944368767071 1.4503819189891924 0.6455502677428173 -0.8789182459491445
Ni 7.062912588578623 7.9978676639611965 2.0736104382632017 1.2904767858587067 0.849417151166234 0.17281155677950882
P 5.451917059367784 -0.313655274890785 2.669654359909099 -2.2962776872657296 2.5343047615106227 0.9441815859333288
P 5.53707782158487 9.216189277741071 6.488975309118248 -2.7396207186757398 1.738162410508129 -1.9847335176682912
P 4.904926846948115 5.660919425391271 3.0457448243597134 0.12962987918571223 0.5693810794794065 -0.34059583554775535
P 8.759235408384596 4.34979524715734 3.610335236023465 0.6967427314562323 -0.5292423024769917 -1.7447716882945306
P 2.098239060218455 6.015467593826407 5.795641808387626 0.4841441245867727 0.14933172849001378 -0.5195613277438019
P 6.772218801547326 2.9014979432968206 10.875404023972601 -0.5321836444935027 -0.021653316603717547 -0.4678914101733361
P 0.8661399986282945 8.927123768183995 10.644617895785467 -0.7056917131194039 -0.45409049973450183 0.9623726550200586
P 1.5334303113479328 7.8382502136047165 2.612757164076933 -0.035601808364009654 0.0033758584507683795 -0.9595233584967218
Ni 6.4441949031041945 8.054931388171408 7.774142339003186 1.7183798285645633 -1.4556426531674995 1.0670479211429624
Ni 4.310670329893238 8.678876214401148 9.220510689151347 1.4713184120315435 -1.4698960777627201 -0.1465618790543605
Ni 7.485950178273193 8.727298966106117 12.253934263851017 0.6257039224408515 -3.8119820816118155 -0.4511339882093392
Ni 2.8733731505602704 2.1426743824268923 5.50381377807031 1.1440730296487651 0.30788677535050846 -0.7705002249543569
Ni 0.9472596722048138 2.275064442972956 12.590025537052789 0.36647347464546565 -1.90170462617057 -2.178672600455035
Ni 0.8821165461864353 1.2494346657446829 7.377456014818984 0.6798968635434872 -0.16412714163163344 -0.2586861452561416
Ni 7.9547738203536795 6.425691749988043 4.008834869213051 -4.019560095338233 2.319199071948593 -4.7272379856497295
Ni 0.8675397621615313 3.2167731692429244 5.71928577158086 -1.0188471930680194 0.7659048922741906 0.05959302907228447
Ni 4.9501855594702215 7.01970772605241 11.066827469378088 0.21515171230861654 2.1953693443844258 -0.1419629468297684
Ni 3.3390975144938015 0.6523009083802441 7.239478002031842 1.4186781601280083 0.24669709121506544 0.41952921681986455
Ni 8.320766188991154 7.6571135961741525 5.802412112112827 -1.3352546042950295 0.611834877768243 1.0434364523716095
Ni 2.0700587580225562 0.16528589131361324 4.169142487180764 -2.5225663900277717 1.4394673289592177 -0.7163882736013018
Ni 1.7842868097201556 4.899958750336428 11.572515868569539 -0.4068426224911316 -0.6893616085008127 -0.18094318474770774
Ni 4.2461775897068925 1.544347171686462 9.7148649819015 -0.8803878885161353 2.3860343844055873 0.3339351356981281
Ni 8.013465822038112 1.2641076661657908 2.295459543495234 -0.4868761788059551 -0.6292970391087485 -0.498333014492645
Ni 2.610535860545339 7.60409281091982 11.55602308303946 0.022284265319497103 -2.115346072482247 -0.6286246956320722
Ni 2.964741720647826 5.029351300077676 3.787771222830799 -0.06548085531162917 -1.7729797752976302 0.6003073367446178
Ni 8.603605387524645 5.229268617921134 5.5038683623720015 1.3265467921083864 -1.32115518877917 4.60515969355903
Ni 6.740735686520195 4.442764339989443 8.690598887057888 0.05474701383389281 -0.29930366166718775 0.5889919117317985
Ni 8.434597586961718 -0.028915802532265632 8.751558450156704 1.211298892675959 0.9028904404940256 -0.3715105228487408
Ni 0.5894965809157471 5.380004554781861 1.601503411662254 -0.4935793018577435 0.1319011917183922 1.2243919784144912
Ni 1.8238835573887198 8.257226361190291 6.251147806012763 -0.993005035193935 -0.278181792086908 0.3115901923440247
Ni 3.4136189636691014 9.091931352989555 1.939774356301111 0.4514517765600741 -0.42894022572111934 0.8375795351013575
Ni 4.562933067902288 4.1728866002138165 10.022195879057184 0.3789065582024958 -0.317501415622137 0.34962143608513335
P 7.044807253254469 6.803785180763481 13.216157435980861 1.4786481129237372 -0.6632903653350577 -0.24324898476546492
P 8.509331822397854 2.480347675220098 8.093240316383087 -0.7792692293962385 -0.6381868853992105 -1.3162626365735588
P 2.799980393725056 2.6414638809789865 11.440101753924425 0.804019439757725 1.2546651754767362 -0.4922029903355072
P 6.645176152251831 8.82921433346988 9.841713348089277 -2.245087023324527 2.3664634042521953 1.4786002904049373
P 2.6318329897820294 2.833110289379525 7.729512733687029 0.7146381236794145 -2.1896018457730286 -2.557367042646725
P 4.225232020379409 8.747559918768303 13.140844051852191 -0.9059130293704334 0.4603953589066071 0.2796136394374281
P 1.3786606871078844 2.3323039471377705 3.7514282546377102 0.7061789371684677 -0.13551436299094724 -0.05693913638920516
P 2.2804488605297557 6.246488712058117 13.31742704330087 -0.801608259213071 -0.7772313730306034 -0.02623322266491611
