# total energy = -340896.84473559185 ev
CRYSTAL
PRIMVEC
9.02024163679976 0.00000000000000 0.00000000000000

0.00000000000000 9.02024163679976 0.00000000000000

0.00000000000000 0.00000000000000 13.20203541546204

PRIMCOORD
 96 1
Ni 6.287568322735232 2.006660953376905 11.297456427114385 0.34371998299903384 0.47847664188835015 1.2619719935507943
Ni 4.450100038229822 0.3420980691236757 5.908887762388267 0.9682244858151455 -0.8183929348705775 1.4488585403661307
Ni 2.7468258857711807 1.3454862753574062 4.712862377731199 -1.2143883302345602 1.25352129168028 0.5696510453113415
Ni 3.4415197810176603 4.3274698557215325 4.921507778655269 0.513349028285503 -0.7379143205985357 -0.5608254765999116
Ni 5.145578694482422 4.406568352993705 2.511080071435716 -0.7159542713876766 0.3427643039539839 1.147639406843785
Ni 7.281743254352267 6.026585676871875 2.736636621029631 -0.7967216205447312 -0.25121323391786415 -1.0938588706882195
Ni 5.078928130410797 4.495038881132087 11.59918891575078 -0.1518966610037126 -0.3180040662901685 -0.5036971070180357
Ni 5.418549241232393 7.799613356460829 12.498881328303227 0.6775198786708784 0.3630189404379619 0.23729662383677197
Ni 1.9224118982369698 6.154844490044759 0.4408489664422486 -0.20792048466749996 0.9825123631927273 -0.18235677726578273
Ni 2.7473580800167112 1.7098679489583515 0.3316354910662013 -0.16281279369558413 -0.5825075895590355 0.06033119278988965
Ni 0.43580574944773703 -0.07522881369026346 4.697680409347256 0.45897456729968045 -0.18333019692264554 0.2815213979831022
Ni 8.519212138349854 2.0936702024004403 1.3500793823035793 0.49826488025887095 1.2650742866252018 -0.5203365153469297
Ni 6.725852834533338 0.6792692823675407 4.833423316850933 1.0211688992226606 0.161300985036748 -0.47392501796192577
Ni 0.733830918848316 7.342467519791459 2.4714469345541477 -0.23488904283654385 -0.3369836927164648 0.3530111784929727
Ni 7.676135271256271 3.785209020733058 3.7876111110311057 0.19426946954296864 -0.44178699977680047 -0.06913259313160353
Ni 7.7686378473226565 3.9954888894078087 12.56955221398897 -1.3298282910731356 -1.4265045981509628 -0.3458267449293915
Ni 7.977510558331257 8.97425625876145 6.914433610376758 -0.11436652526873851 -0.5037469864193648 0.17880916912384046
Ni 6.706161647448705 0.7030376185874261 0.29443421127946456 -0.25365166815602763 -0.6703956089212713 0.19582935783092079
Ni 1.9423285913578452 6.577857733068572 9.094275081370059 -0.02649830340084469 -0.71124606727873 -0.32577805380863245
Ni -0.09618554065028613 4.994029617886485 1.414439707071133 1.416266208252406 -1.244531943697476 -0.4404986199826801
Ni 6.403162716912776 1.9183437693431677 7.0325257094117175 -0.2899039656198426 0.10618501789921068 0.12660986141246583
Ni 3.4748044719669493 4.188603238603834 0.5253740409705439 -0.4415717984422008 0.20248208726074807 -0.26493058350395665
Ni 6.079002299935919 5.629307182703977 4.913691739439129 -0.210617828994005 -0.38151854190404616 -0.33648232760001406
Ni 5.382666720745599 2.8025619576887033 9.21921895581019 -1.065681379812739 0.6983506993733005 -0.36285927493164605
P 0.12280066507168796 5.59595935006454 12.41757016580345 1.2982397176335772 0.6232857999176621 -0.5409994430129198
P 4.008441956129538 6.08116715788384 12.730841347302265 -0.6240159932154672 0.15422993712257954 -0.5737820367605796
P 2.3180036072537793 8.325033400662766 1.5030644813383043 1.1132717279971922 0.45848502925777174 -0.6232472333702428
P 6.439415067299008 7.754719614765811 5.830744508685614 -0.4961434630404939 -0.10835991406334242 0.24876425815673933
P 4.6009365157512345 1.0497125582226654 12.493732574483753 0.4280639937637531 -0.3973593655910447 1.0897206801501298
P 3.950017852260013 6.1949665240129 8.065043883383018 -0.40924197596124356 1.149991452015729 0.23079070439745414
P 4.784489409010608 1.0405750536341478 3.8947715794532076 -0.12643708328002742 0.2299864633286039 -1.7365906951456354
P 0.2985898365153284 5.467556213028461 3.5357560474906724 0.48142364033181606 -0.4148809194145758 0.8274799847735104
Ni 1.5572364433884536 1.096428388690516 2.5985168799039657 -0.14758106434749424 -0.17430305372337077 -0.6653109953095123
Ni 1.8503040880882928 6.4949887748704365 4.819759455102971 -0.6808800533923628 0.056440856596547954 -1.2867957374626935
Ni 5.874856195446944 5.686324128907352 9.301705455770858 -0.07149646537808976 0.0220189274732524 -0.2775027637420124
Ni 8.518553660724027 2.2919892309129257 10.288029169230098 0.4618596021569594 1.4346467676421228 -0.5369833798749913
Ni 2.3252288206549667 5.268190836507813 6.765317292899798 -0.5666279422143016 -0.586657607171667 1.9831833995723525
Ni 0.5823549062081211 9.25134003561247 9.219945085246888 -0.14126206410800188 -0.29333176035446906 -0.795215725423166
Ni 1.362209803005098 1.1173282881294058 11.328151406743475 0.5218791772437013 -0.11872737334059554 0.5808664544111868
Ni 4.082570300362941 6.8103454361924145 1.7032606220964668 0.4012301614003606 0.21386230407323167 -0.22283853942991302
Ni 5.472914236449565 7.981641828915207 7.907371866891045 0.05706332067189526 0.13044594732910436 0.27945654503427353
Ni 5.441487715238909 2.864973008278983 4.977075172057683 -0.8601396797900607 0.3497229946600041 -0.8330662206120362
Ni 0.7039134840321892 7.370123580076153 7.006795470676528 0.11385076197458457 0.057319145436443224 -0.1670170615849188
Ni 5.174389345672675 4.749554013876029 7.035800057057949 -0.3388166321601455 -0.6938623245846437 0.051181150859505406
Ni 8.290720402188215 7.2768542834865455 9.21755562328687 -0.5925534038308118 -0.7650510289143276 -0.23941264173851023
Ni 4.69315044409123 0.3929668187549553 10.426188599418143 -1.0329900602273048 -0.7340730924755745 -0.9362098805817618
Ni 8.1522867566601 6.999472838667685 4.643420048930899 0.44418712457786086 0.5820491618653781 1.1330350266670486
Ni 7.066556374328894 6.247410207801292 7.267839454181743 1.7369025699590992 -0.45855444904312637 -0.9040250683191011
Ni 2.4478139019560077 5.12202684405733 2.6391260069103883 -0.837294399760771 -0.10724714061513786 0.15603510865211837
Ni 2.4326779368034583 5.463767711619599 11.29743026841418 -0.8429580258044513 -1.8399927509830698 0.4295107535126087
Ni 1.2173537455648171 3.333466308692041 3.939843921928928 -0.13633325934781682 -0.4317285870995339 -0.8663661203157467
Ni 3.4693652663727974 2.6533581438696805 2.79233570995721 0.7057241090192362 0.19951066333724995 -0.4120573339228516
Ni 1.175463744272541 3.2999380712236106 8.154039389573772 -1.02891331905477 0.8912019484125038 -0.4758600302011094
Ni 3.820099314660389 2.8310298397038673 7.005633663577812 -0.2992782077458911 -0.4405850090488993 -0.20230133870850966
Ni 4.010904482045298 6.842457495753247 5.839154079789143 1.0625510617138734 0.6666366560994712 1.032360654173422
Ni 0.8679186120459783 7.295201454595178 11.199603043820055 -0.6765436308005381 0.34465817854258707 0.8177789554356626
P 0.257062448929329 5.43018535270247 7.9152140648073885 -0.31917494666981805 0.8579305879538837 0.3964409675418334
P 8.512780706196237 1.7750482136736803 8.013146826226476 -0.3072393715744967 -0.42629018969278193 -0.07408145249644661
P 1.7603001189034666 3.229598228399069 10.27428592935738 0.4007107985617809 0.24311323051854905 0.4635647577735242
P 4.11669387376705 6.037806857235267 3.8554559550706675 0.2289431096657541 0.2522938685765526 -1.4530646080276781
P 6.841762937161622 4.017660642891102 10.383374023377275 0.45897919528537084 0.22270381362426164 0.5302170076854353
P 6.152517267750744 7.748991761445271 10.072981200925051 1.3329233850586915 0.10889084686614794 0.7112226702399623
P 2.347193108584918 8.375213003847291 5.766741385479467 -0.2524910721890232 0.6078681798110112 -0.05923436018128509
P 7.017008188045847 3.988398979628367 1.580099147366792 -0.4890875846349771 -1.146164622070471 -0.18057834520912125
Ni 5.2929243385628135 2.779046188229408 0.4970919759292426 0.4705147067287962 0.050197446789997414 -0.35588078673128387
Ni 1.3720148054608912 1.034080479790384 6.866153670041535 -0.10591865161170147 0.5916303777959102 0.2727729623665109
Ni 6.885682492780075 0.8319945984485151 9.227747594100855 -0.22510342420468973 -1.4010229089400903 -0.3905045474527404
Ni 2.7725516143856446 1.7014701041687068 8.956340255194112 -0.13858271750362586 -0.6244728782472277 1.1517963664349518
Ni 6.290968953761758 2.0217427970807567 2.5710565588587295 0.4209674919282879 -0.15446647861341783 0.455586367553738
Ni 4.095658670706415 6.872828648714292 10.574130481458356 0.28901153571256033 0.8510773124774762 -0.765459834316972
Ni 8.053388829405897 7.176449975910248 0.3336722615855372 -0.13472580565138087 0.008255040919940622 -0.02764578674172658
Ni 7.463050107490671 3.8740944799781247 8.217356072405599 1.0472136600258546 0.08235037737345818 0.1740883666094034
Ni 3.017649615056129 8.333575569315606 12.510565247052988 -0.41110859685633716 0.05964496535614244 0.06349802055364548
Ni 0.09131641431575326 4.807554166397418 10.118673233988366 -0.05985296760189047 0.19365626143900197 0.2218738615237985
Ni 8.45108225468048 2.245390663583921 5.707887016092793 0.6400776746640202 0.18817441238882432 -0.17797613169958382
Ni 3.5915354165671536 2.57777754076288 11.241731179486601 0.1763131421748641 0.43214844824577187 0.0861538102799484
Ni 1.140140478755626 3.4473107760283495 12.409900254498794 -0.09059770498391494 0.09277825757500151 0.38492756758559515
Ni 3.0303410947758174 8.467679498947877 7.932086426439 0.18768333168501872 -0.4872268772771544 0.014008912684582325
Ni 5.807222425057305 7.760492569293603 3.642243605900629 -0.7434383357405584 0.09537044378220993 0.050236527558048964
Ni 3.3874253930439777 8.296006263677722 3.6134365628069567 -0.8970239544109196 -0.6117523453567658 0.12686517195638153
Ni 3.5124910407436785 4.483592194732453 9.224288331504905 -0.32188360385023274 -0.9112300707079727 0.3688440317601713
Ni 7.207696092291911 6.202146636206839 11.40236003112578 -0.11273156076847682 -0.4979545481073037 -0.4246804220035009
Ni 0.5293113763633256 8.967842867090733 0.3146305318852799 0.6551078295242654 0.46859434977763165 -0.2078613492947904
Ni 4.560778400817296 0.3688088081044441 1.676367674238415 -0.1747689376161958 -0.22928583771715352 -0.3621715048360021
Ni 5.9469098841469235 5.535938663458423 0.4398657601242343 0.4700961311341388 0.767299201518556 0.22629615896121028
Ni 7.924200931363697 8.657068488425187 11.277112174548796 -0.5897179912645456 0.4595024147786925 0.24634690696449832
Ni 0.1361461122964775 4.677996438455782 5.67238605181932 -0.5452623320543319 0.4912172293834701 1.0746383318957105
Ni 7.889707528060152 8.857768860680387 2.3903603760664676 -0.03238304431639584 -0.057828480972693955 0.32288299164902456
P 8.637269058443158 1.5107280784739452 3.5146198177258015 -0.9536638143921511 1.3240661917783776 0.984741509633562
P 1.6411066483875025 3.2494608000712466 1.4879618910791184 0.5674231844220872 -0.21538285448281616 0.462484637335468
P 4.6353216761573846 1.0527523795912048 8.095329344050292 0.7439304448856284 0.05797786206636467 -0.16643264983635853
P 8.321389223117098 1.5480177566268887 12.316957490649663 0.6272072464592553 0.0876836166609135 0.6126900266796868
P 6.305320157908185 7.636969382881795 1.5096267069929403 -0.9925864595992777 0.26009845222263595 -1.066065502625035
P 1.8918964214127298 3.103044240860173 6.038650249810811 -0.14871286395909225 -0.33804298721891457 -0.5825399854588676
P 6.954064943210036 3.9348728668660136 6.0534632903194625 0.6334465425007478 0.3972398092940449 -0.5262626510233775
P 2.392321376557626 8.46543345882691 10.158754676869982 0.9037085655199468 0.6039701303081857 0.47265823543436025
