# total energy = -340863.40367832227 ev
CRYSTAL
PRIMVEC
9.26700848838422 0.00000000000000 0.00000000000000

0.00000000000000 9.26700848838422 0.00000000000000

0.00000000000000 0.00000000000000 13.56320364632447

PRIMCOORD
 96 1
Ni 1.30283018028881 6.6946444245149035 7.470531191705609 2.302251902571293 -0.15533114060655828 0.4122270267314965
Ni 4.335579158095286 5.9203580696789935 13.198068763708376 0.9004980290024492 -0.9157151030625197 -1.070570332473924
Ni 5.713064358246436 8.937492138291324 1.533686187339787 -1.191738454045528 -0.3840505642972805 1.7903028399571104
Ni 6.274144650275388 7.1873434613844465 13.197186544506428 0.18582416698909288 0.623399699787707 -0.09493875556143004
Ni 3.388935713584641 7.877883861094243 2.6969885819961075 -0.46566097818092056 0.25214551592414636 2.2861035749462046
Ni 0.6416902915044423 4.777457920768568 8.641185104144549 -0.9628064001233677 -1.5280089227450524 -0.022789487090689783
Ni 0.748158951285776 0.7247365874945565 5.127745278984126 -0.05157787207729182 0.8933881574305452 0.13813380289166532
Ni 0.6288072963936397 2.901982221937871 12.261203866486552 -0.32405335780804195 -1.3399617799627115 -0.29434760321349307
Ni 2.4873762650559086 1.1980481160406127 13.171539171992647 -0.7084821313803477 0.5738427147951859 1.6147402027950255
Ni 3.930601622965679 7.719001001667751 10.97210275917764 0.4263902056057559 -1.7122588032684898 0.3864375764722183
Ni 3.31425289269703 0.6561672120641429 11.08227636892682 0.6172323946347306 1.1374151580126153 -0.564707071042505
Ni 6.969902375727799 1.5713417493691602 8.389085406982796 -0.8655153422796772 -0.3187931378503671 -0.6748531304719927
Ni 6.219904849970736 3.83734771719672 0.23299575929603814 0.2710014722883849 -0.7593807180024277 -1.7137078770101908
Ni 5.7532183057468735 2.1157321592268024 2.1545016156687193 -1.5496218730291378 0.739984315753687 -1.7153636674460586
Ni 5.125359951015833 4.969006984889045 7.250902165360097 -1.8680851383439117 0.22700732609562196 0.06513195661264268
Ni 5.210153078093838 6.328829266984384 2.060074506633305 0.6369396432556708 1.1977237250946857 -1.0341933365067866
Ni 2.8121107742436093 6.064367380585245 1.3533983918559422 -1.7260188331670594 -0.30897023822267433 -0.9697735754698201
Ni 5.615371555442465 8.013145116048403 3.683820261938357 1.3371183969766456 1.0473810388416542 2.2564983504852623
Ni 7.422160187835766 7.48774280645118 1.9563970697892274 1.299965184965116 0.9432171651375304 1.6494848053650624
Ni 9.21147124234173 7.68084872798686 5.87369404876082 -2.8222336056819652 0.7479279960807959 0.3956248993984412
Ni 1.9938339304197987 7.4647328245348215 5.0597662119903095 1.965818168821027 0.23255242428356723 -0.6763795944188481
Ni 2.428067411143424 2.904456513187033 1.1848898907796226 -0.8187467186655706 0.4924860687935647 0.8492232899878729
Ni 4.881637629469217 1.6974379329921567 4.2337541962351315 -1.9848160500797687 1.1141423035276037 -0.7062738108751192
Ni 9.084022075488855 6.925300264183926 9.671214943854464 1.629661085770916 0.8247150204338635 0.24325618385431652
P 1.5791631044788692 6.585191788021098 3.0616629707896545 -1.2610124578510025 -0.9553044353193677 0.1640669778176594
P 1.4713229274508093 0.9176330746398583 2.462657446786196 0.2597798925409526 0.5783308324735266 -0.11725670233234
P 3.7868981233374126 9.093798769375992 4.625500296737201 0.029639163022671534 -0.8991134899500968 0.1525281239401244
P 5.369480753924674 1.5372669593947532 10.20191612886843 -0.18046418822876018 0.10090191512340042 -0.346161759671307
P 7.049765454324329 6.937606851370767 10.521207197307975 -1.0191636958671737 0.8750495070223575 0.6271010598986942
P 2.3846885447114956 2.443098498806869 7.532433881275922 0.20317371401113396 0.5909870877849563 1.0935367114621104
P 1.1930439314917467 0.5897922642284912 11.756693100680003 -1.3350458307183333 -0.09573991130648674 -1.2928054339918833
P 4.4812101954757075 2.4899617604061564 0.18134238104247594 -0.9501239195596926 0.2733033809486841 0.585184107949934
Ni 6.8950990837306785 4.3120502237071925 4.931757317828636 -0.6874754472216935 0.13967569345748848 -0.15810587513821803
Ni 0.6304336563720213 4.434300598834302 2.500864395816787 0.6174290840265689 -0.4919901029937527 1.0127804180486493
Ni 2.951820193241206 1.5922110523396158 5.704331129507823 0.9144758313387799 -0.9227383284578883 1.2896167518512565
Ni 7.703145150254585 8.894493219204772 9.64684178499896 -0.1134131602165337 1.8306663313758214 2.140760913010926
Ni 6.847327655305857 0.5609561141160727 13.53826064294702 2.3990002005376363 1.2339729372347072 -1.6161080296768295
Ni 5.911526610651088 3.8237715498558154 9.46148771600981 -0.7500756385514179 -1.0261354991993166 1.0874588806991465
Ni 7.424421337891179 5.398912772678744 1.3044760009848815 0.5016533371151296 -0.2910560769464149 0.029610366667265135
Ni 4.699503845907346 0.5306854310996459 13.038294418071512 -0.9962708504294004 -0.9400526513666198 -0.06915007663310026
Ni 6.989335292392562 1.1217528356872555 3.902852492941375 0.9323015466662913 0.4335106187006212 -1.0349980917962691
Ni 0.5064827851991404 5.669509418654455 0.5922860161953426 -0.26246900933734146 0.2827403579918679 -0.2432579836265294
Ni 5.43564719407079 0.6007366011770293 6.133009038681364 0.47060572378070564 -0.21202345109228 1.3602680956202315
Ni 2.4842996182591985 2.5547474162971215 3.7290404829440997 -0.8866922334676084 0.1461553876445612 -1.5228831714827127
Ni 7.5056559337344355 7.762694946386089 7.926417964312345 0.09910599956524223 -1.125403992484352 -2.697090044402381
Ni 8.3077340468334 0.11211134121060115 11.888269793084849 1.6946434041795717 -0.24906044924091944 -0.02065984234219668
Ni 4.513969070253931 6.171725673175267 4.708845917099405 2.2840461781965438 1.8654677553257228 0.32649230626683773
Ni 7.354937308729333 2.5732443651110777 11.7481350184006 0.12807076222870847 -0.060468489698702305 -0.06220398433257029
Ni 4.340221929315622 5.48164862388666 10.306529533563314 -1.2510368346955294 -1.1167311473007027 0.7943914297496577
Ni 6.282614695974765 5.17241781979202 11.62796508666464 0.2515274227241733 0.597436442954726 0.38046001873254476
Ni 5.014730404452202 3.161699400024011 11.672357763818134 -1.0927193577671375 -0.7571178901101799 0.014282992281575401
Ni 6.648930271960172 6.391112830600917 6.260544388712582 1.0000223470520326 0.11553869119996878 -0.9925373515288972
Ni 3.6033186864614253 0.7490522908978328 1.8032143472442306 -0.5355520467451034 1.1382985890588333 0.1491617785710528
Ni 2.4612711023259917 7.842354150797295 12.888461719071728 -0.6220475566351867 0.7104960764865828 0.21276881389873678
Ni 4.236070021640246 3.8928848986807076 5.344146606295619 -0.18256220840836945 -1.7830137624948648 -1.561129616558421
Ni 8.644228389710934 4.849898125617614 11.389795556565579 -0.9404192906774193 -1.9474579211462848 -0.18619260607210514
P 7.385583305586926 9.153385633541191 5.420506755707943 1.656705748593534 -1.7907769513800513 1.9987971948502092
P 8.041298287639986 2.8068007784167577 9.663552054588802 0.984557161536898 1.1936184446770604 0.015625879462715025
P 2.6196998783397163 5.878378521519062 11.988434107035454 -0.9245417002152143 2.0325246690096415 -1.4224993336463116
P 7.637340123436998 1.0316775138076695 1.9078676000753367 -0.15822183189079203 -1.2416502512743066 0.4390423471521277
P 8.3381113004467 7.641501010219296 13.541271493983919 -0.8573875709662201 -1.5226589712870486 -1.0801903720621915
P 0.09214464486062626 2.811582554763451 4.4944119756762895 0.6461542198754033 1.3034099489806068 -1.0150249911084521
P 4.097722852880952 7.8657811480927275 0.6788454350789291 0.25363084222042126 0.27700936904536166 -0.49773806122112346
P 3.136687744288105 7.0344841574334405 8.968071412688264 0.8754189745466343 -0.9032624791214637 0.23628849428723175
Ni 4.350758517893513 4.259459950901982 1.4317861627113992 -0.3892323656085361 -0.9694048792764918 0.15167991700721617
Ni 3.280789725278595 4.961732383276342 3.3499753567691934 -2.1514847271863333 -1.0934788616409814 -0.02655255367754782
Ni 4.765735155112428 7.683156213084393 6.920909555592717 -0.29125302344856935 0.7734428525224486 -2.634387523166837
Ni 7.600568634011259 3.427671808796233 2.6954289444783774 0.5091110789447554 0.1108939933391058 0.8193640405345953
Ni 7.197917117996031 4.065288323397562 7.57157679815732 2.804620263475576 -1.1391367686894123 -2.125735643246687
Ni 0.007290355527023692 5.2982452601707255 4.774871498717478 0.7598201195326915 0.026861857387850515 0.4043897900752648
Ni 1.7494629182835144 8.1909326726595 10.416296321642688 -1.1365342980695587 0.394246788103992 -0.8420864218327756
Ni 2.656174823495894 3.9388399934544593 12.482121007002975 1.1412658992172733 -1.6198132464425588 0.5506287385725678
Ni 1.6601938261368012 3.725244716293701 5.756386695926979 0.9080480734355653 0.499380739030869 0.29375110728007475
Ni 0.3215865064261272 6.656140004513907 12.06362846678806 1.3865337141849798 2.3018886056946037 -0.2589080314589606
Ni 5.883716318371187 8.867637428792525 11.291583801289875 1.120212935201716 0.283812250899808 -0.5690231819193554
Ni 0.3741322975909038 1.0833688867957694 9.47454863768235 -0.4305389376668069 0.5942567596751637 0.6751490644458567
Ni 8.913555455532581 8.684808619598867 3.6405127514712925 -0.3819808262524454 -0.6264742249479727 -1.4499075504559351
Ni 7.640203629039961 5.321931733702025 9.261986631960847 -1.1135103263705597 0.033535155642968044 0.3030708420191039
Ni 2.404251199494192 2.405474444606137 9.72898084086438 -0.07730921540512492 1.2163709078822276 0.28677107641781574
Ni 2.92554822435966 4.62730458327732 8.314990114429254 0.42580630807782793 0.21103717591961071 -0.4887533412240098
Ni 5.361826204966594 6.716255088159265 8.682471480074378 1.5992703892942004 -0.008874162561178267 2.627666659503236
Ni 0.35630720688767503 2.511794832252689 7.361794894962966 -1.3200375302349587 -0.33918892789789973 0.9930132627240511
Ni 4.358848616247513 9.19012932194166 9.055526951286433 1.4851470903845196 0.32878341629385954 -0.0810285732382411
Ni 0.4333753557435792 8.80084083207359 0.8727881674752809 1.0948880832836823 1.5651688196248013 0.9811993008082587
Ni -0.12755851755227626 2.2697869072644807 1.2776433780936942 2.250581213669879 0.3060813467106535 -1.0216059867600795
Ni 4.468755336154086 2.4578793772428713 8.147578827150316 -1.0972522126404844 -1.2449674885729978 1.1459612478104135
Ni 2.790694717776148 8.55188265076751 7.534373466139029 -1.9193524211593203 1.6000820865622185 -1.1235558835320199
Ni 7.8652714626294165 2.3237023622742985 5.853526258328047 -1.543550212913761 -1.4570881273647744 0.5223370907167263
P 3.074969468185426 5.57236336934749 5.998856117934695 -1.904001906845179 0.04046916375863999 1.8689379732625102
P 0.513082748598589 8.585141944000622 8.272414697627672 -0.6593596628220838 -0.06641185176633078 -0.044718425953297176
P 5.678813495111976 2.955072913197969 6.578668740791567 1.8406234425885333 -1.333426035726723 -1.7474091259173776
P 8.361352957573654 3.8962117547048614 13.471855113983567 0.3212989349913563 0.5157632941539505 0.11658744417945728
P 7.586464247190196 6.400945126538596 4.209367136866992 -0.8939008354009057 1.5696237700723614 -1.012258226996592
P 5.583066764077008 4.6513710041539955 3.1842061833829565 0.6764302451511255 -1.8874272903159495 0.7259885156952272
P 8.699218817697917 5.8308387683048375 7.100119597996871 -1.618943956463728 -0.7997172128379454 -0.3333324691171227
P 1.3161932064359667 4.4047666429875685 10.603577001683151 1.1759943038373941 -0.79848693997527 0.5692710362641035
