# total energy = -340870.4940298385 ev
CRYSTAL
PRIMVEC
9.27432424394707 0.00000000000000 0.00000000000000
0.00000000000000 9.27432424394707 0.00000000000000
0.00000000000000 0.00000000000000 13.57391099407636
PRIMCOORD
 96 1
Ni 6.925824253860697 3.460528625585575 13.283035975236466 -1.392856056858582 1.6488471717810638 0.3512666849980402
Ni 2.3737911272331482 2.7785040909811802 13.332268725776279 1.687423746502681 -0.05799148891311948 1.3786710236074515
Ni 5.703727992368289 8.354135116135394 12.830209671891474 0.16263384491555863 -0.09004183248044492 -0.08470345098666704
Ni 3.2851511530965674 0.5159334430357065 1.0617320651781872 0.5659268023822189 -0.8145617340499456 0.9249368787711038
Ni 1.0035560837171063 6.071603340001761 11.42840482846255 -0.08132784964621477 0.42187072046884766 -0.1262347374612342
Ni 2.554288026735055 7.822076405441484 9.834325621104764 0.3881280768007638 -0.6908662180707972 1.736078274285591
Ni 6.15596259382302 7.63175799650722 6.095201858179882 1.194527072534259 -0.7312556776314374 1.2799157225134086
Ni 0.6074775158911927 6.260280193535148 2.401129980400948 -0.06152649864957146 0.5394431542693936 0.08532771483422724
Ni 5.837593589296175 8.72636939618927 1.6901148354711502 -0.9767230102044598 0.02617511573347105 1.1649604146207357
Ni 8.983880284667839 8.331589233765177 3.1530569521097385 -1.7427975952872954 1.0140567136579117 0.17482704454764084
Ni 5.112999906160605 1.9633930026899935 11.62950278452923 0.9759290535482548 1.8789714462391123 0.37858876985176093
Ni 2.79838824227766 4.8239748637149455 12.284986985287944 2.470475068649171 -0.19268952665035846 -0.04679304909413877
Ni 3.6323262088952712 7.064410481856637 11.89286391677544 -0.18188575116663513 0.35564450235076167 0.7550874899437124
Ni 7.33287434733201 2.339698711111012 10.495456957928974 1.5698759952924837 0.4093435345361144 -0.3453796300896439
Ni 7.473259794241904 1.118353669886801 2.5797219336918955 -0.5084932428550984 1.2146130446508565 -0.473573805270094
Ni 3.921314154043736 4.694653685693437 8.028262255818445 1.1004051564471695 1.3185691732195486 -1.3888068264898727
Ni 9.095404034360083 5.325289189358561 6.827473754402372 -1.9095282359800467 -0.28938100323683713 2.087005059445709
Ni 1.919970616323334 5.66607423571544 8.991860840726899 0.9200121877759768 -2.408287796487149 0.3895259855895549
Ni 2.1405047738228635 2.5008586444500644 8.628718180783068 -0.9765075517595442 -0.7187349194566073 0.12485636905646885
Ni 1.1549130562723995 0.8837930243178707 -0.09784597621647395 0.022895159430618633 -1.6884570728632018 0.884711969812786
Ni 2.1623272588977778 1.2534898492436135 6.170373966350819 0.5828732004285704 -0.30291760427069125 -0.9753490126750687
Ni -0.17773593315817443 0.40927964103272757 11.65800742026138 -1.6424703217204424 -0.9671356236263408 2.1496967820479753
Ni 1.3173342977160791 2.252928132972083 11.096169781676673 1.0738070942436668 -1.0315623266418428 -0.2654903126621686
Ni 5.338282517701085 4.603375785945325 11.409524159055193 0.06777839309655423 0.5415229196165577 0.8167379157656579
P 4.963840948464111 1.4913577188574714 2.7829372179959737 0.19392982681536278 -0.6256087916238838 -1.5610044038344664
P 1.929634462242612 4.117790714312356 7.122014237508487 0.39427918400382417 -0.13304996061085472 -0.20683393647154055
P 4.199942678950517 7.516654357635667 0.6813901708223609 -0.1668327134882546 -0.3168285579248286 -1.2699359855928776
P 5.86598229597459 8.246367467784136 8.449026292630291 -0.9923458043433814 1.4537590629915413 0.011022062142116502
P 9.001408757592442 2.0578612699968697 8.73097038847387 0.6840808197178476 -0.9183767090550828 0.5717261826728154
P 8.416940840286403 2.9067494473840356 1.3368038867164056 -1.4601667662900981 -1.1763174915047678 0.24865215805890725
P 3.9676301295915994 6.0006918564136615 9.830144755710895 0.6452867296687854 0.5637935580893 1.3009571165647402
P 2.730936081652988 8.055687360202223 6.205625673010295 0.7227394126303102 1.0755137925221283 -0.14435561543166106
Ni 9.151161272044055 7.738013929997783 13.686438476961087 2.942119775217352 -0.5102014837954568 -0.9316441155879503
Ni 3.140425322414867 4.715789870770245 1.5854466663005293 1.2487930329666752 1.6007652286721723 -0.9846088407104396
Ni 8.585102888470995 4.980367794364449 0.5383856547305049 1.4020847745457012 0.07876240291188372 -1.9503285578258607
Ni 4.567428504963442 0.2975490739086232 6.465634137022514 0.1477049915198682 0.011298455731954735 2.0060423064483968
Ni 8.61145124380369 2.3665293313072415 12.602385895493143 1.7847718828365522 0.27069782500503703 0.4726415232638118
Ni 5.583347262970757 5.884354732410378 1.8451963766648138 -1.5989024644318206 0.0839370051342877 0.42645396896415594
Ni 0.08576524138494669 2.745060877559956 6.500410070845467 1.1004288105962532 0.14557483255074283 -1.2518608732587215
Ni 6.0943532575065475 3.3806952420220964 2.0216441061778947 -0.4353654125211728 -0.5634179199174362 0.2967724106049018
Ni 3.9871247592675325 7.163553008610074 7.83467186527159 0.16427549428403965 0.48158921937540283 -0.4121010426765935
Ni 0.552617105366908 9.2297797191244 9.763048729139294 1.3003500791083606 -0.3326827513482658 -3.161222244643601
Ni 1.7977071990931608 2.9422793837724748 4.306988784871333 -1.1705548779893775 0.42177199010745425 0.8234158420064657
Ni 5.681636551888712 1.577636757808568 0.43553525312243563 -0.8824653398704544 -0.6825962647525211 0.02147616759590495
Ni 3.9064474121928696 2.713750758727439 7.0970783617664885 0.8170685596321993 -1.788763006273816 -1.411781690118491
Ni 7.8852809255373355 7.7605134407465055 8.231911578499703 2.4727864903911674 -1.6521268709736 -0.3606306427114434
Ni 8.260955979906042 6.474850960510594 4.697238439875494 -0.32848336855493754 1.419647208909497 -0.35553883001083286
Ni 0.8726267378621982 3.8082230435450075 2.1662465883464215 0.6814212706078135 1.0118576491240638 0.04537457148005734
Ni 5.390339299989863 2.1046502360839687 8.857750401637524 -0.028105499986964502 0.12010702729694155 0.5049178667990143
Ni 4.922496010740367 8.885322040345224 10.41078237708156 -0.15254637877256955 1.1719515012265882 -0.7732649321836876
Ni 6.031065268492006 6.906014297158607 10.842161805485734 -0.39956640054469245 -0.8415215504682411 -0.38461055056580856
Ni 4.397782564891052 6.682354692370406 4.863504816173427 -0.8907239803348207 -1.205014602329144 0.3948178301161136
Ni 0.3886526163599195 4.026503540239945 9.832968787459858 -0.8239673436345617 -0.007102415372736155 -0.30475465747943004
Ni 2.683321700703302 0.536440828925061 3.7341017163171175 -0.46388074635204624 -0.15266979172431128 -0.5134341318001415
Ni 7.446466271342869 0.10452627200885004 9.874016019373613 -0.9910165440089965 -0.2896378564426496 0.40603375343659104
Ni 3.5398611956369215 7.489193083387124 2.679435758822134 -1.1536573309030906 -0.29424141665293196 -0.07180268376459892
P 8.896887122745742 4.459939086341148 4.865215929006543 -0.020297316796455363 -1.7970370733571503 -0.5396722395610641
P 6.0443924725092835 2.0493103429934396 6.103712905588828 -0.5663929433853601 -0.5449589418813002 1.0855392950789304
P 6.508034492851453 7.37270757019506 3.339141632001631 0.05291690260368951 -0.1180797124542676 0.9417614065276103
P 9.19022472599031 6.271418657017924 9.452247573240212 -1.1116851002363628 0.1292329008576097 0.3768226790902736
P 6.8552559202716505 0.7331650136524578 11.913292470908255 0.4366648480588867 -0.7906759285712834 1.2832378449081059
P 4.838387163675173 3.71142692083915 -0.17719802234884802 -2.217956999876954 -0.34123809711744457 0.9825910389494626
P 8.748395916398756 8.07325293042402 6.1387744886001805 -0.7846922001840227 -0.7869136333153738 -0.18597226253118293
P 6.919684651174937 6.219055822027288 12.814491547069986 0.40444481168291635 0.17169184135276883 0.17271462619032835
Ni 7.160483207267194 0.15221577498535577 4.7100657578130685 0.8805925483277737 -0.026407029238619036 0.9757601320705582
Ni 7.8584966769626 4.77189025845327 11.367947363223982 0.5059362807611996 0.3031803710137746 0.05352445428070137
Ni 4.839750489347087 8.836390705345117 4.397743612728997 0.5519613413410623 0.8056073530701352 -2.4874170958201485
Ni 7.289748739342909 2.831330642186753 4.560996761062272 0.49009160041945926 0.10404637428965306 -0.4021657858407526
Ni 1.648362754910692 5.9801214051190765 5.961634894494415 2.283818121346138 -0.39190451312406055 -0.8875062447284716
Ni 1.614372356355842 6.059463249494722 0.28491744421375126 0.18460212165653367 0.12488439408092686 -0.30361308767581907
Ni 3.347075816439196 0.5257837028733889 12.134872772188682 -0.8667451009217202 -0.5820712733525654 0.8985247073261622
Ni 4.264482701745388 2.117782679290972 4.687899195306672 0.34292011280555784 0.24816287712731455 0.2745423955621078
Ni 1.6592879089345973 7.553148823751174 4.398435477321682 0.19075477152149084 0.5443261933933077 -1.3065937460252273
Ni 3.013413451143743 2.70175905740918 2.3348213439623096 0.9758470353574097 -2.0882317327639583 0.2285908685326579
Ni 7.743161179983579 3.566691815833151 7.906694412910677 -2.187160326211072 0.22214511290731417 0.6265994376719274
Ni 8.276434827160623 7.402719283625754 11.43221935804662 0.13623427187610732 -0.09014621926879314 -0.5828055804154285
Ni 7.933238456486075 4.827174505598007 2.7520286774055926 -0.4973724503515886 -0.2439444681705928 1.6501741181226033
Ni 0.6536154244125207 1.4668085824387298 2.5266616695139943 -0.16123825011961265 -0.5704318893414241 0.08471065007551863
Ni 2.732521991108071 0.03929438462129424 8.233391760657781 0.28539913577095366 1.6404923720584652 -0.6300951095300116
Ni 1.2760357316138289 7.354594814839638 7.842367699574677 -1.7966475512282154 2.37803285425735 -1.3306356174657792
Ni 6.097358138579336 6.072493675134439 8.471546206892471 0.23265552552033483 -1.601378693886455 -0.5509280149805414
Ni 7.2169081963006745 0.6834824583841547 7.505979610367827 -1.506477990651812 0.8640588123388085 -0.6858697932974703
Ni 3.5101555349080855 3.8619399298832584 10.14435422578976 -0.651678235017426 -1.2664444274998512 0.4453844873200717
Ni 5.62148328448714 4.647150596635336 4.0305554925260605 0.3314468220586356 0.22891739863414123 0.9109097112540764
Ni 0.3199447122251992 0.4042585218573945 7.281534470311524 -0.06615165612640865 0.012153861753714551 0.5904990924049442
Ni 7.5429841643197655 6.8855829607285015 1.3373380877960124 -0.26662468337692796 0.9048311091601643 0.5117616291937251
Ni 7.8212046189574025 0.1378646855654991 0.4534866352350598 -0.6604050733674627 1.4131310050575339 -0.8601895591913895
Ni 3.4960956592712087 4.391105051395964 5.353414505226894 -0.06124753395657193 0.5657280561078515 -0.15010665898282535
P 0.8700512580044407 3.96682326337761 12.362832881154205 -1.158012779658309 1.1136712774284563 -0.23152089769525935
P 2.28708546936431 5.347315709568048 3.468188290023897 0.8486360500258352 -0.124580746797579 1.1093253417549347
P 6.488224536149364 4.0523047104390155 9.663348815495505 -0.671107033165999 1.0439193055452989 -0.7926099123692026
P 5.817115881244576 5.2367564896028735 6.30398266449563 -1.4235074631958518 0.6425775582677385 -0.3810809401459953
P 0.11614885522002 1.0568927227591094 4.832909747744343 0.27275522175469796 0.6962557645174847 -0.4255247722816672
P 3.583450519840958 1.56051635515311 10.27262740516551 -1.4588205366748488 0.08906275639662727 -2.099176147590604
P 1.4446151243918661 8.664203600414874 2.0694105860460796 1.4318159830615471 -0.01183530207203123 -0.9959977992736717
P 1.679385369689948 8.44647956317786 11.811243370919597 -0.7773869247718611 -0.6758751439786037 0.1700548199699781
