# total energy = -340860.1260031889 ev
CRYSTAL
PRIMVEC
9.37225177572836 0.00000000000000 0.00000000000000

0.00000000000000 9.37225177572836 0.00000000000000

0.00000000000000 0.00000000000000 13.71723783550605

PRIMCOORD
 96 1
Ni 5.007940865279308 2.9052480759946273 7.235911606029268 1.0973586563113618 0.6921044613532725 0.09106436020768834
Ni 9.202623332388772 0.573128188048393 12.214638225484007 -0.7125262195427341 0.03822330514725675 0.5210618235487284
Ni 6.462570565143889 8.21617509475526 9.097477914835064 0.9292707302597674 -0.272185465294157 0.0695496260643641
Ni 0.17535389238493562 4.024285558657225 7.923117904742079 2.1829910253247307 -1.1208413128143342 -1.1127698486601094
Ni -0.07929674732042732 5.3937402349249775 9.576565866388274 0.9615447598021247 1.5705426823422048 1.9459599964445193
Ni 5.399279235689252 7.95900987991444 11.185460955051168 0.10149121196796715 -1.810856495738746 2.4334707235106796
Ni 9.706091322331334 7.759249706835346 10.919593604491858 -2.1531721421910857 1.2469099570113493 1.5977711790408549
Ni 7.277234801071167 1.0732821497841074 9.466677152240997 1.4712744461674856 1.5782315663460302 -0.5714377048981192
Ni 5.301892168106215 0.7100474133703629 10.574974971662002 -0.9286582934867491 0.9850269020844649 -1.4014337712252638
Ni 4.102581349494362 8.345156022873606 4.249641351173261 0.07474042623668417 0.28483195041357395 1.5910631708930598
Ni 7.0451591040746155 1.9886699749053887 11.75260027425291 0.9854675891663093 0.23610388908025146 -0.550470872838465
Ni 2.9265043428869695 9.319448450031206 1.0664057286999313 -1.0738518314386731 1.1782666448113386 0.4126510016427925
Ni 0.6572300888237163 3.087238459819804 11.345980447419702 -3.922325087543457 1.9754276668863333 -1.311794059279244
Ni 8.107466347099052 9.191789009404843 0.7461015284974137 0.7101728888192091 0.08823151874458353 -0.6492102330929077
Ni 3.1197976622818846 1.8031462521832042 2.7508964624805254 0.7075825023842137 0.6224111106221926 -4.780611516174863
Ni 1.0516135038162524 1.5026437454066746 1.146061433261089 -0.849413294511492 0.2126960516792724 -1.1600514073548924
Ni 6.742922730730588 6.315454329954694 5.654519390027564 -1.309738976522428 -1.135257488239664 0.05328611301765016
Ni 2.8248435285213453 8.27969084463595 11.101689894761426 0.2949584973246146 0.6845189356965308 2.167273100368842
Ni 2.551773602518134 4.254711739351725 11.997905841772049 -0.0829648710290055 1.7933480545413372 -0.5823867477104551
Ni 6.967584976619625 7.891220383251163 3.556399322355216 -1.7562262099883754 -0.07879942679740622 -0.5463985025413041
Ni 7.480059700461457 6.587596403038002 10.8127358765496 0.0368891597168655 2.0526607776378842 -0.2622401811559871
Ni 4.226201349631044 7.699454740885989 9.325279865049028 -2.0326025734354287 -0.2840567628104463 -0.023576501768359397
Ni 3.3263433456035063 1.9784261037795818 8.323852894722684 0.45895091315059666 -3.3158910690758114 0.9863762170235076
Ni 7.570220761971303 4.431153750160911 11.0984114811111 0.7817212904811569 -1.7638325615807235 0.4898776846364402
P 5.643754421706336 4.770363656525348 11.950402583948488 0.11819412654494484 0.11084359971714458 0.052389055124677515
P 2.4067942407202314 0.3830589232438514 3.9805911839311277 -2.1259701278549965 -1.7674994689093495 2.1017922450572124
P 0.36383643497392454 6.187569955287142 7.091963191920148 -0.6578789645114992 1.4891762661485708 0.7992546713792299
P 8.994943606609489 2.8272803139675577 13.347997445994132 -0.5746284439212749 0.09865862761517848 -0.2184571225327657
P 2.0793090212527616 5.778508656881863 10.322454644771732 -0.270559756765276 -0.3914306588114355 0.16264001556314572
P 3.6439595840138175 2.1427123041128566 10.697195694617454 -0.6617621016159893 0.40711593075717634 0.35126000012982084
P 5.539272559574136 0.529455369501243 8.079150900214069 -0.4958318453373461 0.9495464497896681 0.22877907328406408
P 1.5251652662807038 3.337262018852879 2.46213457542888 -1.171181712940099 0.9589664575519872 1.017468567552938
Ni 1.8176263810847337 2.099112589129093 12.63258816741693 3.0726107168517793 -2.154516572034122 2.546157032863518
Ni 0.2667314721675451 5.813645228565898 12.063817139191398 -0.3376742910255862 -1.3691890522589452 -2.00138655284394
Ni 4.5264882946181 6.638806386415319 2.700046373569109 0.7660781846272614 0.1915520706118056 -0.8284883714333667
Ni 7.435710205340397 0.9082695999428272 6.860868769678283 -1.4693851995645726 -0.3765833093859579 0.8993947686359414
Ni 3.996562438080704 0.5868397923091941 12.525731376699843 -0.36054065410079844 0.9113041184790175 -0.10077464551691677
Ni 8.262080383661209 7.858258173965287 5.662956291022487 1.6090737485378674 1.6487468987577736 1.1516600979674037
Ni 5.125712580345082 1.1339393628913557 5.807206491636869 1.4408071308165638 -1.5385018518565763 -0.2628983835652763
Ni 4.380262423341944 3.0214077637652137 12.662066710739897 0.7462464946133148 -0.5655902449784066 -0.8486036541260031
Ni 5.095665141342943 7.278190770746219 7.375758722787379 1.5097214372897743 -0.9419730083177843 -1.5066057744789279
Ni 6.409073752347818 2.9526529251751685 2.5296504023420434 0.16440482077305235 0.09660585885120782 -0.29235088449843843
Ni 0.29936190374266797 7.706324601393964 13.464114021406823 0.42303003088427144 0.04030281338410478 0.38164349751768467
Ni 2.895116671889415 0.5932616591851345 6.185294372570448 -0.6918938880043631 -0.46117106073036707 -0.6994465035406406
Ni 5.072150161786997 4.500405318091915 0.6293645100211096 1.075697112177528 1.9641996593809978 0.4873135234536899
Ni 7.7301769820116935 6.345192484650197 8.038850217834407 -0.7789319006614779 -0.15196710923033183 -0.32660132104087625
Ni 8.590727762341487 6.307544149506221 3.8618550641637577 0.4537709116115539 0.4980859314788454 0.342070620321069
Ni 7.9365071035438435 3.242995911091337 4.483286900332275 -0.49840166294705135 -1.4654210727105021 -1.905955173916808
Ni 7.674552668076045 4.838593649019286 13.731914867495187 -0.1364957530676101 -0.9738387466781293 -0.6027041191115684
Ni 0.4537631901908663 1.6097685825228438 3.4140966756474613 0.09209974345073815 0.9355120831837889 0.8428734365104452
Ni 6.1519179097587156 5.137793412807264 3.5859050452081584 1.2845460221965683 -0.0683599766316371 0.07443755028428471
Ni 1.8633348527046423 5.088832769841834 6.050440791526728 1.6056984043077314 2.169489134183554 1.473538559611314
Ni 4.176350342752574 4.978933746217669 10.134953376937426 -0.6505567198184732 1.7937535175098722 1.6114237368272828
Ni 7.319653612338689 3.5620273595107945 7.436155387296917 -2.825226369761702 -0.10961126997194026 2.338190525449431
Ni 7.114035781936971 7.235340835899751 13.402289962960909 0.05125314174802141 -0.20831000679643477 -0.7048674174458956
Ni 3.2825186965785536 5.348237952842825 8.05871283089655 -0.6497596778384745 -0.4159245301877417 -0.027968203078151833
P 8.829007889974163 2.554575905781278 6.457101856267486 -1.101466250721832 -0.9631342157764315 -0.3698567892954017
P 2.637136071149286 3.2830529149263774 6.8718830398951605 2.087739366508572 0.5937695356260999 1.7240377981812889
P 5.727795402845504 3.0709026250784675 4.758043831644403 -0.7652438616514241 0.7793746446258513 -0.1828550570584399
P 2.8200730523977993 5.875492717641104 13.546211197540051 0.33511681471105514 -0.3610898417360491 0.2660482420481676
P 1.803455536489839 9.3480806790242 13.051361930275707 -0.39510990743523566 -0.9436509102408395 -1.7527567633825363
P 4.492541998902023 8.86522227060556 2.1946898749057318 1.7034260354682083 -1.5368625164809402 1.1152411930187374
P 5.93137008237309 8.392673339074742 5.642105842629456 1.0350968221576626 0.08692771233149545 -0.7016124008437078
P 0.7031897367896192 7.169772562893214 1.8464638623903102 -0.4014610464642441 -0.3622805196100406 0.9995299807966463
Ni 2.662591106810486 3.789763703962745 0.768494649522931 1.4676643602187238 -1.3895226216099748 -0.6145556191335158
Ni 1.5733011510951085 7.53767093176094 4.311931210529471 1.3692836688552803 -0.782281276749685 0.6029141782398455
Ni 3.385538487443027 2.4017238525417675 4.752337067574408 1.1505498956223605 1.411177995096221 2.8052260153803754
Ni 1.2309327959023124 2.989495246671552 5.4748926880852125 -1.5190118614527646 -1.556796793511022 -1.597155399833727
Ni 1.7187303809753882 7.710176596849322 9.36865370876643 0.35353696908945564 -0.4317823231556047 -4.738142034156743
Ni 0.8247019175153274 5.231881447786199 0.38518548715825723 -0.710956561062769 0.15628579121034375 1.1890475374769263
Ni 8.553182521966388 4.64392260862209 5.972553630864418 0.9655227706132662 4.1727340803924715 -1.36768315713738
Ni 3.779969700919316 7.783495722025156 13.206352731356853 0.3148225832383933 -1.5288293617638187 0.6079489124502756
Ni 2.358742706171273 5.730803895646404 2.2016028477716008 -0.4193194148019036 1.096211430080796 -0.3049989122797521
Ni 5.770382914643918 0.8232464068238016 3.3554694922619417 -1.4493527063937297 -0.11646531677929618 -0.08534571255635624
Ni 3.9111624804426874 4.408322944980248 3.4136580542671426 -0.14353183397878508 -1.1683411581675105 0.29269566943236686
Ni 6.46925298061754 2.1348208681678162 0.19436737944159113 1.0116167367578512 -0.3245657786680862 0.5939518268402352
Ni 5.752988015458651 9.046069239721362 0.5412203570805892 -0.3180675725382522 0.45857810319221026 -0.9786827050339919
Ni 7.7952485256772714 0.6401266666668224 4.497072545381634 -0.0477160751290404 0.6194790245770622 2.4047877537536904
Ni 0.47750778991385967 0.7783252043480536 9.916246259788863 0.7956702964620813 0.7391852168911592 -0.5768863867175161
Ni 8.758378601040878 4.722818223569064 2.3056067250662755 -0.41928161958543275 -0.9324478424361683 -0.825569655124675
Ni 0.0028979002306491262 8.716587730638341 3.4356875319260713 -0.7699574650770095 -0.4478532605755383 -1.9167728333576022
Ni 1.0671995584202933 4.854217192630192 4.061207544293196 -0.44636844849989576 -0.2906290167113253 -2.1346666271877304
Ni 5.535889176704587 3.2717968406152207 9.94414651592282 1.1927373276236877 -1.6462590993389132 0.06580712830279635
Ni 4.760241624671852 4.944331392881457 6.1090820332898215 -0.36658711740519445 0.25941608144363065 -1.0687178526462175
Ni 8.723804364459815 8.804574429750028 8.411794607026135 0.8345841999184596 -1.1616974275987477 -0.7426886020587273
Ni 2.0200576459029436 3.3296517504593246 9.481971729816665 -0.3433913960150215 1.457750957759754 0.6476624289898136
Ni 2.861404682466243 7.352484610100539 6.8542154081849525 -1.2772314908130262 0.6904152465763077 -0.6512270064126203
Ni 0.2688730316846969 0.6939627549750199 6.295786659728248 1.769787750722894 -1.8929294510811014 -0.8441314772872622
P 3.208571630537733 6.160531009085903 4.535714339207528 0.7631018756077567 -0.353915435474797 0.10118550780209025
P 7.781386965389013 0.8568646737298119 2.4596106280417067 0.022846308470554202 1.3721723032569852 -0.4018253717821983
P 5.5186817225536435 5.114662695571681 8.364442242455205 0.4318769397519401 -0.16351470485861516 -0.8819919997784617
P 1.7550947176342453 9.443105939174755 7.859387530297088 -0.8201726524788198 -0.5263572676197129 1.5924963037951605
P 4.6488711575282435 2.4451642392463557 1.130330108755447 -0.81256707221742 0.04294642165453894 0.5664682767079857
P 8.79169695589197 3.0922244977328233 9.666976229793772 -1.4204519641989792 -1.1983736999738588 -0.3141664377116331
P 6.934313483027115 6.143970240303378 1.6365760341066915 -0.27690755336017475 -0.4260852727708274 0.839482151440709
P 7.0769310373925345 9.134187150357077 11.827729181235144 0.589684566923449 -0.19254605909395872 0.6955561673472989
