# total energy = -381163.51170329796 ev
CRYSTAL
PRIMVEC
9.36108458663792 0.00000000000000 0.00000000000000
0.00000000000000 9.36108458663792 0.00000000000000
0.00000000000000 0.00000000000000 13.70089352547400
PRIMCOORD
 96 1
Ni 7.037822457696849 5.468417920851058 6.321742555233213 0.67688353063846 -1.6560866269522962 -1.3102578251403758
Ni 5.072387880435208 7.244543286480077 3.171235870363461 -0.390657785201153 -0.8054561722042516 -0.042432972353230146
Ni 7.22869497043923 4.571551138074106 12.166722269087158 -3.301811193943978 0.9818539036731219 0.21505169639564253
Ni 7.341233928172869 2.29711652289617 13.224184072933417 0.11741328251486231 1.0095752808477902 0.11300769724799893
Ni 5.215200585408125 3.4701540202844865 0.11448231887367456 -0.2470724722766132 0.13010579038086625 -1.3585318296554152
Ni 8.448584695697857 8.654818748087626 0.9228784282481268 -0.3446921171043161 1.0134008252414677 0.5329765727084433
Ni 7.448614928352755 -0.22297260756557383 8.41876028051408 -0.5903700230262477 0.9163689345964348 -0.3366072832136526
Ni 6.642719164645467 6.961688757543157 9.161198188575005 0.44306509515827563 -0.46194804810570766 0.4394439534659206
Ni 4.406009719960508 7.258725329481778 10.404663805120618 0.8632363164375134 -0.032932231951646504 -0.5334573689996038
Ni 7.374943193419821 1.32773877966299 1.5601071077307478 1.1761927930014453 -1.2976761318206234 0.4718573367996196
Ni 5.4812894120242195 0.23096978204501556 10.708768931957318 1.4353985582064828 0.07611956597239794 0.6892482228514
Ni 0.33467374823739643 6.585541660583159 1.707980414978727 0.480683676841998 -0.8931107353994425 -1.006299695420312
Ni 8.212769616321038 0.0576895553838878 5.890260215638455 2.4225180811539184 0.08389098238770068 0.71794841899957
Ni 8.05907933117124 7.383602196572674 7.151907866588166 1.9412870164488827 -0.6079075176893788 -0.5730860391348195
Ni 4.6456253996400925 1.394773505692818 7.339362647383404 -0.07143295913000601 0.23665719048056014 0.6941171209079272
Ni 1.2009803345896903 8.844296459241061 2.1034019849027548 -1.3997296440499636 -0.6663638620540588 1.324802812834086
Ni 3.7691283367124497 2.127512394114097 12.240994985644322 -0.1591865097969065 1.8253048099535918 1.0402482844516148
Ni 5.025123764847358 8.760636447157754 8.651963617318307 -0.1478957673744356 -0.14672565832573442 -1.383833027424365
Ni 6.411247628471811 1.8845454461872457 9.053303264856643 -3.1574303817013365 0.4002040341286914 -0.012086498850888862
Ni 0.27447261388495636 7.015000133711272 11.801908637118684 -0.4475640114698938 0.34836956595590324 -0.07531352513133481
Ni 0.2615711672414277 2.4275164298359133 0.6291191719893044 -2.1223767540767833 0.19321171770241563 -0.3657988171759442
Ni 1.7989383285301064 5.216511137236664 11.796386533378286 0.3744534075271486 0.340685052827452 0.22572048896339836
Ni 2.407839430238832 5.812381609335906 0.34143338734731665 -0.31579034646830134 -0.44813222526853785 0.002478286337163474
Ni 4.062373669432795 2.1480693356531986 9.603517855683341 0.11865358267986663 -0.8110197823349581 0.7348040571043281
P 5.208666548434404 5.71532588534802 13.123702192022348 1.0523113862637359 -0.003945357800993205 1.4063720890671456
Ni 5.4097520043549085 3.600469677463824 7.606530807041147 -0.10154623357561866 0.9740842870300321 0.12652655767004017
P 4.4510833417777995 6.457407136089892 8.30549490262405 -0.647607407382162 -0.2629534051729278 0.9023186271509556
Ni 1.9463473259874027 1.446437330990768 1.6925402422216265 -0.6492840237536366 1.938812586766461 2.0105782466455375
P 2.641173822225914 3.657328904653487 10.631811456368542 -0.04930398844145058 -1.1356464961479666 -0.4111008835468533
P 1.007795633978385 7.635471535849109 6.694160196132565 -0.4976586141334397 0.5758751718441825 0.2620231800491745
P 0.8190434068728919 7.989517112329226 -0.09880718289588558 1.5308111680805379 -0.14172846222145913 0.639153363077538
Ni 9.018300297733232 2.303865864813152 5.441091043009099 1.9587365793838978 0.9094729788075498 0.28081820126849055
Ni 4.609126531215249 5.01650220603246 1.8153136736277151 -0.36564712208942834 1.924631924390705 -0.009904403597905523
Ni 2.1073298959545794 6.177548154189636 8.12124535715804 2.446864885429399 2.0073373711107365 -0.026693450130786285
Ni 1.9519358934276776 6.388331693641337 5.152906312563816 0.008784688171165516 2.1528381558904344 0.49993044088675187
Ni 3.7166969024863548 7.233852927992984 12.634402050186194 0.30627032279300803 -0.43404232283437505 -1.0078914653874642
Ni 0.06291678496286503 7.886891543070045 3.998482395574565 0.5265300457521512 0.040746585789742724 0.6940816396843014
Ni 4.2419286310272835 4.94450610522316 11.43488859753602 -0.5007609072078473 -0.5416219070882672 0.4151017771761302
Ni 8.275610576499538 4.209080585553373 7.9232818229148085 -0.700127074547433 -0.9949297630204735 0.8861636146576481
Ni 7.616477895419767 7.184070680677439 2.3849141343238696 -1.7387064559370573 0.1738806214739715 1.8535440073049434
Ni 8.369652031281783 3.0382335819356165 3.1683723146181006 0.9591320365955739 0.2508622783363486 -0.7403226729297121
Ni 2.5376870331936914 6.606538573093269 2.510401344123485 0.4933188491075052 -0.1075081075860084 2.039577976311997
Ni -0.1693710377782823 4.753774008748122 13.108973461686455 1.9814659026606132 0.08613658388876778 0.8224647909471062
Ni 9.048620850394958 0.40885285394966603 12.695248163259965 -0.9451586051346174 1.2407053708625342 1.3247565329771829
Ni 2.6115553509009066 2.5803642173816517 5.782544088633843 -0.008224444792321319 -0.04734249383970556 1.8114781884831448
Ni 2.5012911366982338 4.544581853659648 4.072837489675239 4.772511255665233 -0.8481938202820941 -1.204037068907223
Ni 1.2193186991047629 2.6916487897936885 12.03064486440449 -0.5282331444861871 -0.35794204013568676 -1.1531418247192526
Ni 7.174812568117252 2.0557035149945873 6.757335347027343 -1.1392915490997217 0.2537262301477049 1.2729220648043948
Ni 2.296564218911285 3.364298876876402 13.960662714608281 1.1632148926845387 0.7269933028106575 -0.5535626243899111
Ni 5.6335380901626255 3.860473799161697 4.944994753833516 0.36715738808636766 0.049320700611998926 0.20188456288606518
Ni 5.9151756781159 2.7943211644753183 2.2878022438290455 -0.8654898883583805 0.6256810396227159 1.271948645147532
Ni 0.5101706797056549 4.632950491241211 4.640780102308289 -3.8190328178110104 -0.3229362134844632 -0.019333924441921543
Ni 1.2665453703546554 1.954641246845164 9.533547493557585 2.050540645971088 0.9573600322968157 0.09882472087939755
Ni 6.881473624552011 4.996946900533745 2.7673060107468612 -0.3917916416952801 -0.5352383721594266 -0.06941798558250625
Ni 0.46285039761086644 0.15464886020153182 8.210137279362572 -0.5074354910145453 -1.0673322851526004 0.10232244962001087
Ni 7.118917532630015 1.5795145080945292 4.477711882716837 -2.036617608132093 -0.28071124337698106 -1.3978319128066183
P 0.6882540788183823 2.795051329065505 7.325456756374145 0.35608107566754804 -0.26113254991410506 0.6602284385802824
Ni 3.8868439741688228 0.9256745841851621 1.0857903177286041 2.8548246522441096 0.6126861700249447 -0.12333556153656823
P 4.573844603774051 5.73457227505858 4.8253591579483315 -0.0664956697293887 0.5749765712893129 -0.630333707903379
Ni 5.8034324125638745 4.708475720903081 9.867520096566711 1.0172435960263255 -0.14407690784897767 -1.1196568055879297
P 8.2081358794987 4.150751668098848 1.1696675069720708 -0.05812981426319667 -0.47722759997259745 0.8026526413171854
P 3.6780543457134 3.1764406333396633 1.880406910734406 -0.07937715367774717 -1.5783554935184043 0.8461731903076395
P 6.033134703769003 8.291430809286917 1.2541906110453178 0.28091076098229684 0.11452670499568664 0.00384971276339337
Ni 1.2021598312353765 0.44875260436957043 5.992661118869888 1.1810241529518177 -0.12220736146939598 -0.6261345822203669
Ni 0.8353522882706249 4.970520559019682 6.9584779055632335 -0.692821027804323 -0.936464419794729 -1.103155465498797
Ni 2.1092676404439206 7.34362100471771 10.076951895418118 0.856775391303518 0.5494745703634666 1.3389294820434554
Ni 2.772144755319521 3.5620237034651505 8.40152465175188 -0.6977909702150886 0.6586562089971559 -1.4838121736231802
Ni 8.696850017445806 3.8037362660703993 10.62223413082726 -0.7467162351608817 -0.998825498530454 0.4231269614734519
Ni 4.373508034612712 0.6738829419099908 5.274542372204422 0.3477992952747301 -2.772851969925044 0.7166101598041207
Ni 3.1737165577531976 8.295896046588442 6.6700741257408955 0.14803666382767408 -0.25438906054268445 0.07130568952352236
Ni 7.53605681856985 6.676493957483845 0.11778303726469778 -0.15763844858349627 -1.5199192037583824 0.3979687170402694
Ni 1.1824641094693162 4.130971696572382 2.2899534210447494 -0.8749032112524803 0.6926058264697232 -1.572706522762743
Ni 0.9179788366262847 9.420901819460761 10.97151117086839 1.2936783235151397 -0.5091568445810263 -2.06139430085614
Ni 2.797831571158908 8.74011694995661 4.164112743990815 -0.5459292762143695 -0.44855028664256297 -0.5432345029910257
Ni 2.784267359733518 0.12764025923221753 8.72374254096745 -0.23330421484792724 0.10856277410276788 0.6379727125058754
Ni 6.970244788766626 8.078372526304248 4.615954506241944 -0.7715109256070584 -1.3749586077528706 -0.46119085822470895
Ni 1.5370058234273811 2.415974212660271 3.8231661330369557 -0.7591632026749829 -1.245287590916578 -0.368571751935391
Ni 2.0136909678053865 0.6885311669192736 13.211100085142343 0.03537298018265521 -0.7079843658083226 -0.38729118272176527
Ni 2.9109977215533487 8.115358171122548 0.8319841700712768 0.4997077833529846 0.3873924841863199 -0.13557632657713425
Ni 0.9420714597770972 4.800560709027005 9.57185492350581 0.5382578757120408 0.6514802600740071 -0.5868000462868023
Ni 4.178984698919399 2.2400981572701846 3.9970847856602725 -0.8170970988772895 2.327505277821443 -3.227749281831557
Ni 5.828473313573481 0.180454561813936 3.003961715510843 -1.0831435411532442 0.4878454846977598 -0.059584801542168345
Ni 9.348568719609837 7.210927632078023 9.394360336607479 -1.2529163111064294 0.04165984163263148 -0.9804680790691888
Ni 3.29627187589068 9.725979562975928 11.175490138004621 -1.2821009030901855 -2.5408410199672433 -1.1215756198771973
Ni 3.32056389014112 4.829093294551222 6.38778126187335 1.2423557619817636 0.36841414331160416 0.4281385557554304
Ni 5.757076322171513 2.6418759035626316 11.26168232344236 1.0010834413266954 0.4905538847678584 0.3134347017519312
Ni 8.458825722129449 1.8777961042702642 9.27968330717642 1.3818941585304394 -0.1742709149338547 -0.016260170612604256
Ni 5.163967369996695 9.163668578771803 13.197083733336106 -0.11070476014643514 -0.07515488806628347 -0.49264984806493867
P 7.674628952268991 1.4938793071839211 11.33252981918479 -0.4458102620035806 1.0026543853582408 -1.0925648344671441
Ni 6.675688904217741 7.305212475056996 11.899883619603447 -1.4792906316037426 -0.28615298321784266 -1.1209806666056759
P 8.091309545068837 6.062350648460957 4.244865203231662 0.4239813390539473 -0.34478544814907075 1.209447441289517
Ni 5.670046319671958 7.14616764957916 6.688830930732652 -1.4231935314998587 0.907198066730444 -0.526679426845822
P 8.026399785218143 6.004471063061932 10.663501535691092 -0.7763062901131728 -0.5366504220156048 -0.6847948150657368
P 8.789496670639105 0.6904567419987786 3.2611144508731926 0.5004140653913898 0.1118617565690138 -0.18455969845437245
P 6.176799267430471 9.307061670983073 6.248799112673567 -1.3525203333540126 0.5667243585828498 1.3037416212884128
Ni 7.894567632351493 8.888705444059593 10.762490323626075 0.267914605832945 -0.8803169260688839 -0.9760732924356028
