# total energy = -340887.5432513777 ev
CRYSTAL
PRIMVEC
9.13297399610970 0.00000000000000 0.00000000000000

0.00000000000000 9.13297399610970 0.00000000000000

0.00000000000000 0.00000000000000 13.36703061846873

PRIMCOORD
 96 1
Ni 6.532441984073983 2.1964437600950935 11.447725581493327 0.22674841600728046 -0.9034915644131343 1.254065337109208
Ni 3.9504771175940263 0.7422413786707817 6.131243214199585 -0.11805425853297087 -0.1776488302671521 -1.4813313161828552
Ni 2.6622711085069186 2.0689383074693217 4.367931668224002 -0.17039112026347428 -0.2820353615050433 0.9361931684112135
Ni 3.2877428457088365 4.719574006861906 4.821193870749247 -0.10030233386618854 -1.0557440660943689 -0.23809340870645446
Ni 3.858024019898253 3.071875867823102 2.494073689390629 0.2014114799043886 -0.18116661361242348 -0.3022848557826987
Ni 5.495091376983299 4.982694993191572 2.2361840706753187 -0.1668936486331771 -2.2442940951095864 -0.8085993458189236
Ni 5.398455377109846 4.999727990050469 11.300007030396719 -0.054653168568505876 -1.0576849918708235 -0.7590467317017766
Ni 6.060979590588732 8.200132203608296 12.455119119952982 -0.8836300496025169 -0.48300846832043265 -0.08843309323242834
Ni 2.2070928079972245 6.860334023338395 0.2799539710538675 0.5574861278140334 -0.8516141588175528 -0.5161435603115047
Ni 3.300245887370944 1.551390926236084 0.28564655386467214 -2.1770471490364702 0.9138618519038648 1.4415900317291754
Ni 8.114903288494501 0.014663903354769654 6.6435080831630176 -0.34578997815418516 -1.8433485548291804 -0.39697627122001305
Ni 9.126663301912997 2.5157964684945897 1.064697471699046 -0.9852714139951032 0.20235430343363214 -0.0881430727958353
Ni 6.473105050780549 0.6788430117563544 4.818961771857925 0.973696050452678 -0.1115236565033047 -0.7482740665663049
Ni 0.9131668171767514 7.662611007827923 2.3130307420802154 0.42737725210937366 -0.6155346952173334 0.3821055247557677
Ni 7.812117795270361 4.055159267726294 3.693818623799134 -0.22471698739954848 0.32465988104378923 0.12701943814605868
Ni 8.206890604506732 3.807244683418109 12.412490962934804 0.138711015551374 0.6161288771579067 0.014733963776064948
Ni 8.36602354674235 7.268468373810459 9.227047474392826 -1.014529282418956 -1.1836178818209229 -0.5263585531712934
Ni 6.939562574411282 0.8823877808688857 0.4019202748351775 0.5927981728517662 0.7162933998946502 -0.10252119589437828
Ni 1.7698516687909482 6.655170891199915 9.388615267546719 -0.3488002257354187 -0.6258047096847739 -0.5852782103256372
Ni 0.38396484758338556 5.311281138494203 1.0111079190615386 -0.6703279889081294 -1.8962783129486762 1.351609134393653
Ni 6.0952556427128295 1.9877735658687754 6.662101905310487 0.7818899548485373 1.7803241314778433 0.4649325846553283
Ni 3.6905892041265838 4.711208202506544 0.4103573163891986 0.652685850346334 -0.9044025062631779 -0.715323065561581
Ni 6.047015273056693 5.682773996527716 4.6068402266863115 1.4306687568309813 2.560300414243436 0.5632909074212685
Ni 5.450522462950367 2.856419873775786 9.455623899157297 -0.9481883930998767 1.714578709650918 -1.676054328323475
P 0.5618523523121636 5.890978409070494 12.40321460105299 -0.1545829495866241 -1.2722731183664864 -1.8221981460038101
P 4.407619007553942 6.292171699160381 12.576010472672472 -1.198394011688833 2.2003395439055073 0.017198623266473607
P 2.6920446043567874 8.594978076638164 1.5013979388334473 1.3293672922763171 1.2007882229526223 0.4678955239383942
P 6.640804722803643 7.704257370120991 5.563211491552446 -1.0916356377846554 0.27820570334630795 0.2301592414610423
P 4.918371455991995 1.0297793714895973 12.56782915439569 1.8315878147488265 1.0214000413968602 -0.3938330976053411
P 4.4527998308574075 6.413110543345645 7.747450858241349 -0.9597051354902246 -0.16074305565074898 0.29417688196358366
P 4.725227317883705 1.5614919956869906 3.9256701331070896 -0.7623498279330806 -0.927462730516751 0.088918260398963
P 0.38570559246344227 5.779647453730035 3.289960331841459 -0.7992595564752364 -1.0896201500165235 0.3771378963378473
Ni 0.7810893976729294 0.1781304418421542 4.345982391360201 -0.5950538016551623 0.6990091588929058 0.14887432923762103
Ni 1.8349606417706152 6.7668215006369214 4.558250977416228 0.3835350581134427 -0.7462557505846954 -0.176762828117773
Ni 6.019232765579607 5.563314694160759 8.985051057357866 0.2529163326518999 0.25047764130342026 0.7030997840225117
Ni 8.599270574506091 2.1404586283283162 10.169062617134296 1.1862136675725572 0.5733315794867223 0.27375255267096077
Ni 2.400912786195357 5.6241768341434355 6.879957131676748 0.46627624316741634 -0.7798765239629343 1.0156595393686574
Ni 0.6681994436387357 9.00280190598787 9.073473773544883 -0.050781858538557705 0.2601431894176423 0.6718963618365138
Ni 1.7846470869740119 0.9356366735692151 11.547738041923745 -1.2296830516101016 1.7460770373695154 -0.8706338944531651
Ni 4.598379439399404 7.2651165722838025 1.4839539581361316 -1.3929151922312915 -1.6315693585372224 -1.4502415367565862
Ni 6.041873408589369 8.233211836113886 7.689745074137726 -1.1213012831698883 -0.3986911970285908 0.15241988049703428
Ni 5.568337829963651 3.5683808765293166 4.3935423544394006 -1.067528974544439 -2.226469922443972 0.4654336926614629
Ni 0.6403913638339259 7.255937933225791 7.01676908499915 -0.5402872474372437 0.8321197975383668 0.06684199732521393
Ni 5.1314802756732325 4.5832552341456045 6.602484589709508 -0.7197962708415861 0.5090491153585684 1.0058893473557708
Ni 0.6320091201250274 7.826730553969684 11.658176705686126 2.1800131736433297 -0.6598456013195668 -0.7734639355683711
Ni 4.663634539966064 0.45632083558049724 10.45990218012174 0.021679541855962662 -0.09448649851535985 -0.2474375689255158
Ni 8.453590503248037 7.313201681378759 4.591802784687291 0.453659068624038 -0.023471343649062802 -0.19623610635103622
Ni 7.358702158778773 6.305514974447699 7.16782939135081 0.8447595977895644 -1.198088307522956 -1.2708135031018242
Ni 2.577763698353902 5.3303964534677535 2.352464184727755 -1.226602612912565 0.7044143890688772 1.096985075022027
Ni 2.670098067385243 5.3618778154906055 11.31444352269423 -0.8118116821086341 -0.1513508158025716 1.2509913261695746
Ni 0.9132115687502681 3.4920018134027977 3.4421841791045527 0.9045470022608422 0.3042990579992501 -0.10634314074362976
Ni 1.638327707522863 1.3353047569698597 2.2930340950976125 0.4432332453050237 -0.4735480942384812 0.028793012972292347
Ni 1.2538386272211393 3.1285916375248455 8.414411870580317 -0.6700397682437493 0.5593123823894948 -1.8040183897709898
Ni 3.665272599680008 2.8962579071798125 7.508488415231336 -0.4699552346809003 0.24470165805159147 -0.9226707084447463
Ni 4.13510932375996 7.1060840927642435 5.542866878253315 0.2541923711508461 0.08736917074428825 0.9448446734386243
Ni 0.976095749217963 9.102935834974973 0.2755189987886233 -0.294127516782887 1.3237419756697397 -0.08871205792542787
P 0.425908944834952 5.35514681351473 8.094138558382765 -0.14430522180969987 0.7613123878075018 -0.879103622487073
P 8.609462973698868 1.4622987630411552 8.048275501907524 -0.1313887708583479 1.0337940441858389 0.752551096675104
P 1.9596348723983934 3.133441246818183 10.381076393210503 1.4645661809093744 0.1350613346139287 0.9430194473044275
P 4.263920791694483 6.103356590816766 3.4305012785244444 -1.02285117202109 1.386846103219076 1.3120514267056889
P 7.176526722669163 3.9980507801345064 10.347124561670046 0.10327195801747376 0.6948588841699581 -0.4029592282763254
P 6.284910984681655 8.020924984109486 10.252673169222142 0.11360085074730757 -0.948714955027308 -1.4424816903055093
P 2.0463615952788694 8.429068467555737 5.821007953931048 1.8585995674509797 0.15759499694007054 0.14343464627928845
P 7.273473243664977 3.898327834985821 1.113549750625717 -0.10603640813648835 0.8421591840522399 0.3524177678833479
Ni 5.444047184251731 2.8605479781083445 0.5222846549440743 -0.5007544794499441 0.5190208818592996 -1.1444491820412612
Ni 1.3893719641573512 0.8548217248800334 7.076265845340858 0.6321910728270919 1.4907780634180519 -0.9843944107067885
Ni 6.686186471539225 1.008042892924356 9.167991836704354 1.4759057742919097 -1.6519630917022259 -0.216286340133692
Ni 2.7644964885828633 1.4138300690303414 9.12973563442953 0.22184660783028887 -0.1540245059799928 1.1060844662201337
Ni 6.390442501413321 2.2183537651698897 2.586413538206482 1.4665801260156097 -0.15846608669111417 0.02831915865966736
Ni 4.072411455965682 7.174590532141503 10.166682564061144 1.7429477477119142 -1.2743521123827022 0.007567270824296645
Ni 8.475363513710027 7.391215546884765 0.3073282345847912 -0.8823573535376804 0.2694264144917812 0.006516718072595229
Ni 7.910123741271877 3.717367084443092 7.919926162466866 0.0003188167919994509 0.13717786673629923 0.8914058368931939
Ni 3.3530892760173674 8.633875413700922 12.383069999888555 0.9164648367443506 -1.9697838383369948 0.24996162089895016
Ni 0.19157143995327433 4.698823889508868 10.12352104135044 -0.0811517290796667 0.08469548056686704 1.3133467484783445
Ni 8.67383217576938 2.1602589163658976 5.909390485031641 0.28127457207961876 1.997859256416972 -1.0227146464432257
Ni 4.121784314421015 2.9423428949277994 11.344786002835953 -1.738286080570187 -0.4290800937330933 0.8958042230712057
Ni 1.6961759660238043 3.3323117597417693 12.558993915167113 -0.3990424097204224 0.23200092265547145 -0.1580444257726633
Ni 3.2469823819119155 8.491638473711397 7.959880184643069 0.2442722838236567 -1.7313068210388762 0.06609586318780875
Ni 5.582046424218452 7.925229680577301 3.5111445272989092 1.2638098180904813 -0.49722229792696954 0.8894489702771392
Ni 3.304721044722612 8.757216230097388 3.8600241412452228 -0.49120103143355404 0.6071552129043867 -0.7847613628590614
Ni 3.6395998092401367 4.614343878278413 9.296783212095665 -0.05355402196705615 0.13887839436717372 -0.8504103683174385
Ni 7.501487077219523 6.34908839429424 11.309817671268476 0.6346138233359716 -0.5369579259536946 0.0019620088223772664
Ni 8.242454405991207 9.0579011392585 2.463048976077131 -0.7039827008480972 1.1412029071898218 0.3098223018103245
Ni 4.934893006296416 0.36997221783136597 1.8583912870475594 -0.9298659406416051 1.7829214598913745 -0.1520918077336542
Ni 6.3622672760461905 5.929108576301538 0.1059452404623408 0.5284578589024834 -0.6965547838151424 0.5349383244205045
Ni 8.055849477400866 8.919774037653157 10.979291682248512 -0.8303171971119895 1.8734088645496705 0.21665760743018173
Ni 0.12151513485646843 5.090089636657403 5.728480879144358 -0.11922719579514951 -1.1362442776329658 0.043165736754196625
Ni 7.394192896469751 6.189051287614103 2.4450442307647284 1.6311865212765067 1.1124137508722713 -0.34577737974869477
P 8.347730199445635 1.877200647385843 3.6241230711827175 0.792414508528945 -0.7144388631844147 -0.07477050814367124
P 2.0358038771186093 3.4581732770138673 1.3504307888184954 -0.2811365038398578 -1.0235646531483467 0.3506467920258542
P 4.837078852752828 1.034528518066877 8.076547536801037 -1.2872513369428733 0.2973514230368234 0.9473016196195492
P 8.633711020165554 1.4446081920407885 12.439800382348999 0.7168438730814816 0.12875133323550084 -0.27885259290168746
P 6.631954870816366 8.090527380389194 1.3434531965395693 -0.0293195748997237 -1.1168874703729088 0.4905091475728521
P 1.8211424518255688 3.199399586397248 6.0072375172823005 0.17066699963268028 0.528605183113625 0.3378144161478763
P 7.111719137837669 4.124076690941972 5.95842085695496 0.4694117034726044 -0.2377555657510615 -0.8039307366986607
P 2.4642408292085443 8.49697213063665 10.172591598360182 -0.16826198973561343 1.5517126941198953 0.6699027284452527
