# total energy = -340866.6643587219 ev
CRYSTAL
PRIMVEC
9.31304378775445 0.00000000000000 0.00000000000000
0.00000000000000 9.31304378775445 0.00000000000000
0.00000000000000 0.00000000000000 13.63058096027260
PRIMCOORD
 96 1
Ni 7.884376202323488 2.3931448916925566 7.752951461414827 0.7275553459617148 0.44142910221674947 -0.12885829112701033
Ni 6.779495327889722 4.995078909330683 0.6962226557658135 0.6560303413385347 0.7484193338949175 -0.0590986059343692
Ni 2.1721184263700075 4.631041345474739 3.597164978558446 -0.9169127229150468 -1.1798879824648456 0.6280441405382539
Ni 8.440076204823432 0.20915140334417362 13.674880308549037 -0.9262743666356047 0.31194346191838535 -0.07301084514008715
Ni 3.7460321189489525 7.241906571988454 5.818350106786558 0.8910823921155041 -1.4376811835930725 -0.8076917464029896
Ni 4.194594867116507 4.95063706495706 0.9029908512358861 1.2223248114728176 1.129792608470351 1.890037988465919
Ni -0.08247538340074839 8.531390597967476 2.3405885923728436 -0.19827447693730368 -0.9553388881017287 1.1008990653644524
Ni 2.98523095579513 5.043665058135628 9.771463339472756 1.152702680299305 1.898409500359066 -0.09830047294481135
Ni 9.281397943512534 5.194201095951061 0.19030925339934654 -2.089350933970066 1.0845856729164094 0.9182952050848701
Ni 4.835099445238039 1.750284113523555 10.299538991850941 -1.3093571677029772 0.8459451334572334 1.0212738002316413
Ni 7.878825628298618 7.320089573563595 0.8455535857308808 -0.40280084832159013 -0.28433084240743933 -0.9286868327318393
Ni 1.3526823402957462 3.739941388391461 10.54384061590328 -1.936902514227942 -1.115600633240685 -0.4998471371443263
Ni 4.65686641556025 8.859582256753413 8.486986005768516 0.3702766504416397 0.8126768583224068 -0.04159145028854127
Ni 7.866057445432685 6.634453985837164 10.313360479955486 -0.3177713814540721 0.06126321768585578 -0.48793881574251446
Ni 4.252931772639637 6.517072383472296 8.04803990649036 -2.136804499466339 0.04737463262922163 0.6722162070697777
Ni 3.767563875904488 4.828636192933911 12.47011424688551 -0.20200771872749082 3.292041001931092 -2.4512997812723007
Ni 1.4279410461597972 3.7965460677927356 12.906142569583144 1.6079861719006436 0.9797587117069901 0.9076942896405722
Ni 6.839089494307748 3.391614929199872 10.017891131394018 -0.838146206238105 0.8621230287686764 -0.9441296496494708
Ni 0.46984305294411144 8.46754037059414 5.557678945882685 -0.9918511240951499 0.23555213034183947 -0.09207197553659627
Ni 2.1725468263786385 7.48038568114088 10.647569296253955 -0.14316390911640506 -1.1102676510635459 -0.969245470880492
Ni 4.328078721979697 2.816674178486201 13.104972326632414 0.038116861476379514 -1.7147892829998275 -0.40657368510046105
Ni 0.6865436094838548 5.959984737466135 11.695038050400614 1.5312307721164597 0.5369939213979527 0.4189484046157301
Ni 7.933362812006066 3.0819934794837187 1.8456077719657642 0.8892383969282297 0.07494200072452899 0.9169343201816014
Ni 2.8993926323266286 2.0370327279962845 8.68937241419379 0.23648209835527662 -1.101483991333645 0.7072767982183367
P 8.026716761712938 0.800378804820752 6.203577638895499 0.32588398325887746 -0.1699979985901137 0.3252908297595688
P 8.993075424660269 2.1135486947552304 11.355937092264453 0.2480708316341405 -0.19389254581952414 -0.13029296669100787
P 8.874026787479208 7.648504745397512 12.359952115970438 -0.503011908025553 -0.6851578548321103 1.5810474385282705
P 5.670963740338928 9.149581123465538 11.715497876030204 -0.8473625826300503 0.7159655842415863 -0.2669165035857339
P 0.5894607170931593 6.3483293452900496 9.514104828200841 0.81608228445953 -0.35740956467098445 -0.7140956209123831
P 6.292385891989052 3.423093016790578 13.094640435989476 1.0000295461408841 0.6461894439887128 -0.08968933423703263
P 1.1062778309836494 3.085690757819077 8.422390734901908 -1.077734711432847 -0.34428639702546515 -0.5463833330326526
P 3.4308414691205975 3.394976937963258 11.104889099380545 -0.11930098645587839 -2.737813233153356 -1.530869532122299
Ni 6.514883818210812 7.413341079790143 12.570776141957007 0.7258357921674468 -0.5593645757836689 -0.46215399346892666
Ni 5.620496356713475 8.933527823460574 0.5411465091632591 1.097282808768104 -0.11628688221990295 -0.14721699613985614
Ni 7.099752273472322 3.1641810898351914 5.662675131476287 0.7409186546424982 1.1719548436606977 0.8747062647503259
Ni 2.0244135538290045 0.5965144163657037 4.589034862019746 0.5721108197057436 0.2515351360336571 -0.7149026901947108
Ni 8.202733286998246 5.848079204776809 2.557069361082072 1.629663142653445 0.6926742178138136 0.10940455327777286
Ni 3.4082945904054798 7.609557596786763 1.3510804967852135 0.5966612553515982 -0.5345747704334987 0.7629998028122537
Ni 6.688376508662662 8.277498401548005 6.431357923484551 -0.24124352429966192 0.6739678996535619 -0.21910066965403557
Ni 6.098199618511596 5.346813942503988 11.666727328960675 -0.307967765100089 -1.2990601566523432 -0.2821412909552883
Ni 6.355807719353758 2.2086162444966275 3.9247894729851303 0.2206497593087103 -1.7877517914004821 -2.650310622154997
Ni 4.06805854282807 4.043472107550122 7.902942686175805 0.7943127539929223 0.19479603147039998 -0.3661266328290082
Ni 4.689182677080886 7.315153660420673 10.579525405317867 0.6756213760965848 -0.4255407131212671 -0.9192318579665266
Ni 3.2158684821808765 9.427035320359709 10.60922656417712 0.39026183531431496 0.5367445243913078 -0.24294379482022033
Ni 1.2764364518031113 8.361259916279012 0.5336401959685524 0.36103764834187496 -1.394558127151353 -1.7250022189770873
Ni 0.6712217900447339 6.180983263657686 5.728973758029385 1.4914606913073731 -1.3271936816637657 0.39545623503106087
Ni 8.54431710257573 6.931260687469054 7.573586896931634 1.2931785010605856 -0.6977027813766564 0.42914591397402224
Ni 7.954214716773992 9.024544199207309 11.103825549793898 -0.688818334402833 1.2572640465521638 -0.8968030966493652
Ni 4.59354703167587 3.962653514617536 5.063883675934274 0.15817812313705015 0.904146938608946 -0.15226510008672486
Ni 0.43610468965569454 1.3396720182944992 3.0958186928057314 -0.6481473390460322 1.0513163693403185 -1.4340129907128658
Ni 6.311617327159114 6.32664857963586 7.866208316740072 2.3479591748004207 -0.6354635729307766 -1.4580754309787083
Ni 7.4872307682353085 9.075570365452716 4.241250421969512 1.1728341609418576 1.258921636760245 -0.08359890506857862
Ni 1.1375603446573712 1.3890218366800462 0.3762758345372889 1.1604560989924788 0.39792192296273404 2.034942791532831
Ni 3.34991111966402 0.007169181014001525 6.37464055625492 -0.22519546969786375 0.8720096917547692 1.1382736493581689
Ni 1.4729602992407056 6.113836218826624 1.7289442052675366 0.17091382553616372 0.04815393399740739 0.11198542663107164
Ni 2.035198058394104 6.744720422841292 7.810036693869261 -1.4125540495081415 0.8642866120788985 0.18093572854854
P 0.707927289045103 3.740211466657772 1.6329164807241863 0.80280176530054 0.23747634394774586 0.13272291628873917
P 4.6812759030085465 3.3684440765591397 2.7330542220189145 0.014755046821987493 0.9890193110733095 0.012452623941055972
P 2.2019574182755166 9.000525859592981 8.536751185901563 0.6866838045583334 0.13460316403058753 -0.06361526285780011
P 5.0985468244587135 1.9485867523013343 8.176303800378818 0.3718074852638693 0.1668111162216998 -0.6450812985261988
P 0.9337443840293855 2.541566868595833 4.713932090622987 1.7854123446340282 -0.32670107984353414 1.1569647980097688
P 7.813429435676744 0.8898650474931817 2.131468853377134 -1.354868521871215 -0.1480474624609515 -0.08167366302140773
P 7.594135196476051 4.679180468183721 7.106181067514885 0.7172655339999324 0.1485825090288151 0.09713242077863918
P 2.8138616392991023 5.2444729056595305 6.205921731986204 -0.026447138447935097 -0.6133104338725051 0.33231431226525343
Ni 4.4726450988052955 9.454974451357376 2.486449482268001 -0.6286457786779946 -0.3671913266480966 0.6225193540652828
Ni 3.5909140636499015 0.8377604307912647 0.21597413913380406 -0.9407787308993669 -0.975701768028797 0.8554070502010817
Ni 0.89264219711435 3.8441170948380976 6.382424398150869 -0.7342954928990257 0.3589558261121818 0.35338835932673335
Ni 8.363737185894138 4.477338872812904 11.607053070367124 -0.679916661037829 -1.7387830748112636 0.021667457671104617
Ni 8.831047090961128 4.471397150954067 9.01681996079082 -0.2527384123131389 0.5637879016623453 -0.6397750558219368
Ni 6.69442998704549 1.8898214467695733 11.760396990847823 0.9637494807629273 -1.519464375609151 0.6295047842441804
Ni -0.009769382805517797 1.3711687319725365 9.458505026211116 0.7114005905787232 -0.345769666439211 -0.4906078779342454
Ni 7.7488062256791395 6.352054562756405 5.062425253296195 -0.10055224509346554 -0.36224812371020837 0.5755843800766409
Ni 3.045002070042807 2.571806321378975 6.246295638886567 -0.34144095715687006 -0.16758681804545975 -0.49584007286746223
Ni 4.021651646240944 1.8424646197285268 4.062758489677813 -1.4040825217020205 -0.09768726484084467 0.2175490088961995
Ni 5.427828109353558 1.3337954877413232 5.982557692703517 0.5852995504818759 2.170285404832604 3.1610954892577494
Ni 0.9859998720386899 1.158430875512629 6.963168106372757 -0.18699838980285216 0.437627211972156 0.2771374099827937
Ni 8.743234402235458 2.665337218915501 13.32446493366319 -2.1091260597144643 0.8008466984566982 0.015077977379045003
Ni 1.04920749939908 9.237943281767494 11.805528000452721 -0.8243591797563417 -0.9686145221647126 -0.07061920497945902
Ni 6.761530466658223 0.9867635416192928 9.354504404985398 0.811091516113158 -1.1054447757536057 -0.6340471521992243
Ni 6.579851610824056 4.5068798473211045 3.252038481170457 -1.8527389949051447 0.04578260555175341 0.9101378660850585
Ni 4.024780828912683 7.855421949566239 12.727718622510206 -0.6116983521903788 0.4845488162243591 -0.6594216264082707
Ni 9.020083251291348 4.07265918639902 3.9408600611349884 -0.14429133785262893 0.13872747061160623 0.2812843422716317
Ni 2.0531536065819385 1.8600476461697255 12.015425378594532 1.7445698566963697 0.12270075616604675 -1.4150037966002147
Ni 2.966083338018062 3.18930768164576 1.3646663648850126 -2.089599816756079 -1.6996915081264403 1.018008499216808
Ni 4.108756543648006 5.71010646286666 3.1628400115473037 1.940963828781509 0.23133937781207253 -0.2893354947108823
Ni 2.5046313374169165 7.270767694309045 3.722607020216141 -0.4091650999767211 1.0062248763183186 0.1392296070590054
Ni 6.27449553510688 7.2831261032536805 3.4522167669425468 -0.9025556828624263 0.9216654071086837 -2.9021085249317373
Ni 5.878830874961576 1.957462082914927 1.4406300681545714 -0.5536294730721046 -0.14970813799282603 -0.6315853209222929
P 0.42944865734768345 6.905361113034216 3.7604729244572805 -0.9566092701737202 -0.22956788773394657 -0.2883214516240712
P 2.525706755232824 6.372999597960989 -0.42402008419483667 -1.7938761591306653 0.26160229046167205 0.7077586229507616
P 5.5448185638844585 6.006503390577251 4.846012469805728 -0.6165741922254413 -1.0012153389188694 1.6947413632100168
P 2.2052635487769074 0.22471163670114133 2.0704991504096575 0.831034534893988 0.21472516629415922 0.7204999817768302
P 5.514560485013985 6.658937977634786 1.2314861152453305 0.5274345598442917 2.0066115486883054 0.5667032755369272
P 5.503589719575567 5.413513961239087 9.520592294418499 -0.8577015026622131 -1.4242335427285988 1.696287367540898
P 5.295163802332967 9.295963543805984 4.5518776804015815 -0.7515105712257315 -2.466097508406766 -1.9046192287142039
P 7.088809447164902 8.152973694691399 8.678508748757528 -0.2015426061656142 1.5294767655398305 0.9111549944956631
