# total energy = -381165.87166865997 ev
CRYSTAL
PRIMVEC
9.28241638568977 0.00000000000000 0.00000000000000

0.00000000000000 9.28241638568977 0.00000000000000

0.00000000000000 0.00000000000000 13.58575466148269

PRIMCOORD
 96 1
Ni 5.4911155733147705 4.371414803408256 7.08624779152809 -0.22664017256419033 0.29935045574472313 0.29345054532052045
Ni 5.898047429232497 6.852196301278826 6.7661538699906165 -0.6350609381757193 -0.8264839394088281 0.08235114870440656
Ni 1.0162111086088859 1.9027468590396508 11.175696199076514 0.4460702005331866 0.2838276775187757 0.023253828321618018
Ni 2.903836911208153 4.504775280927587 1.413530094023444 0.32742355983185545 -1.0834592726214503 0.5454173695749575
Ni 6.113594422235657 1.0562461708724675 7.03918686823337 -0.9373414230830437 -1.8254125391760496 -0.7607413457953801
Ni 4.582701167248656 6.016184743730202 8.543904636998002 -0.6830570064390236 0.8055839560313675 0.5442593447111143
Ni 4.369827510190757 6.43422765217042 2.8712537728919867 -0.008044467571031307 0.5175270709225926 -0.5153565456338352
Ni 1.108877472294797 3.2616833487976113 13.43192304699503 -1.1677274358429115 0.7957232611872038 -1.9470712272308273
Ni 6.312024639255964 9.03297009862564 3.8725647465726323 -0.9356637782703047 -0.5083274067011955 -0.27528544437571945
Ni 1.6723108700080225 2.20984632575153 6.08603771244157 0.3856801294809035 1.0294234259219692 2.470927325695241
Ni 4.01975973760869 3.2330749412167266 5.299191402002913 0.0091757529619971 1.2873608659375442 0.6494940828819138
Ni 5.985729135270473 7.78762253929185 10.561674559807457 -0.3219872193076325 -0.8933940709678162 0.20848047093602806
Ni 3.4463013301007357 3.198655740921488 13.150344656143918 0.32798020366627384 -0.03970914566416387 -0.35661252269098587
Ni 8.63732566114346 6.207198309985705 2.153749898258485 1.6748983603421603 2.445211923207008 -0.0930515658410462
Ni 7.736504271755207 1.596176490066938 12.69236879202136 -0.3153152066040956 0.176029035275542 0.33109021005016526
Ni 1.4267909542019168 1.9521200322786931 8.58543602479761 0.7791550724158776 0.4103994866044545 -0.5627206367400953
Ni 3.4171823896136373 1.5017093375845663 3.732645313570934 -0.7008971199442381 -0.370449171463762 -0.2759891553109634
Ni 5.131301263432272 1.606674903101974 12.896291414870873 0.6491552114852562 -1.5669387670410304 -0.42438525936058524
Ni 2.7842886694060045 5.34385003591349 4.060904048641226 0.4482507531242732 -2.3206504596831388 0.37567750974223685
Ni 3.6941789796918982 6.159560948627786 13.624473781419058 1.740411868663938 -0.6073328761328314 0.21143466846834552
Ni 0.9942581936417236 8.82701184184281 2.33651882219947 2.967991757888108 -1.1423521903029163 2.4522827140108605
Ni 0.9589942934471151 4.477197221575605 5.4557402841224425 1.448493700827544 -3.2692371166626986 1.6573081580642233
Ni 4.42671015835937 7.988029911021672 5.271829622954836 -0.514818670852494 -0.024410053413248284 -0.47266646296447623
Ni 7.9404760914120445 0.9911300192891089 10.35620362988965 -0.14709101208495312 -1.0842681416759907 -0.4425732431235217
P 8.908297962928408 3.125835183662551 6.981013035932861 -0.3139538074801948 0.7122536826076379 -0.18896245550775845
Ni 8.040800448691153 8.631273525600717 2.3118062448138144 0.3612158257909521 -0.42670773684617475 2.0815738611278087
P 6.835562210952756 2.8763609584374126 10.593342451859032 0.18974587064100223 -1.217445371893329 2.4881508886623793
Ni 2.4665329885789866 6.218262950425813 11.585551087942722 -1.6893327905999356 0.07120747338276125 0.7106994507466404
P 2.507719070485667 -0.07551524276209495 5.310236549368421 -0.14486880762265372 -0.04593867151364347 -0.07759820740045346
P 1.725731176830863 4.178284846196088 11.338888506668347 -1.0581531897564938 -0.5701927767474245 1.3839502697285198
P 5.272273322462416 5.10893992214014 1.2293372473949482 -0.4740378893907062 0.018596532055264747 -0.702570393881603
Ni 8.465136835502506 1.0615371482641303 7.503901766717939 1.1628261418865522 0.10859696977481298 0.6219948490203805
Ni 0.7861798329356371 -0.05973513475187265 9.364049760063171 0.675939678667952 -0.42531934113908043 0.970400924641174
Ni 4.329142678773813 2.6820985464150997 10.897867904481949 0.0972882296302131 -0.5535274002766015 0.08181301681274943
Ni 3.779187349784613 1.1805377274941593 6.5867136205981405 -0.1908840980105035 0.7363973697333769 -0.6466854097885251
Ni 6.047002366432518 3.724439657405618 12.765433476833632 1.17041192465361 0.04560777053678597 0.7219451988637889
Ni 7.142884455660074 5.568698010226204 10.571605817195774 1.5813755112916508 2.404618832275994 2.0347422454862505
Ni 9.034427438012466 8.048319206037199 4.4808396418010235 -0.6222915543251928 -0.1699288359150751 0.17575469856823278
Ni 2.0239937830570174 1.8423461750264056 1.2933552891091247 0.7791234478469936 -1.0035776685034588 0.9154713624828298
Ni 8.21570902235975 5.569032177219362 6.239814865001186 -1.0343925970017862 -0.10471357556000677 -0.8931750129784748
Ni 1.2510469630504233 8.924709275259039 7.076534670926974 0.31493571177748986 0.8428464399272517 -0.9136299383987168
Ni 5.539551222489676 0.5317803575280147 9.572835440904775 -1.2996401975255296 1.3820520242645424 0.49637614787659035
Ni 0.7896690932891915 1.2208605446685157 4.5296400899434595 0.6617083655599184 -1.5332354612513142 -3.4272221499523368
Ni 5.341612973542629 5.2833193980695725 4.807835968230497 0.7261425247745881 0.9266345781885009 0.20106566652919564
Ni 4.646991183765597 1.7099325039876874 1.540774387326343 -0.3334751653425741 0.3623620235802533 0.44622446672286376
Ni 8.539368320065886 3.4137014834349118 4.127827486712579 0.5664268819470891 0.12215645362680252 0.14528198390067237
Ni 7.551626382790737 8.334830273003977 6.549285060881189 1.00204811923281 -0.3945224103628818 -1.419065625374414
Ni 1.0532665151834784 6.706109630770074 6.167089916631958 0.9766322502628665 0.6956248158017052 -1.1470071725764246
Ni 9.128978132243127 7.181740651031126 7.956796436061205 0.643530409099311 0.4058180378813591 -1.643465852864492
Ni 8.319783475895404 7.630666159088998 0.19400343260261585 -0.5119920000369764 0.3032937566631873 -0.8289133747859273
Ni 9.75015744285729 5.808546369565107 3.9995240696896994 -1.6377580038464372 0.9246399163559753 -1.0952369819826686
Ni 3.8456216045076492 8.583608316993368 7.737930050926012 1.131698310133496 -0.5348982152111885 0.9327926273700966
Ni 3.278967208277043 5.700146309951355 6.412761135826631 0.44268560033166987 -0.46902346689525026 0.546236265931827
Ni 8.875001935026837 1.62954677730032 2.4622955654574183 -0.5134405595580448 0.9193670979928101 0.5013620311269559
Ni 6.834457603392041 2.9027787157298204 5.780045638015349 0.7485329766546464 1.1326627309292945 0.0872375302624304
Ni 1.8099134118571605 6.411708509798186 2.1503803810774786 0.13652866318807452 0.7930649976287503 -0.845836375793511
P 3.245476249629465 0.9022388143842315 9.414927613013072 0.13197652504101787 0.5648595374599692 -0.9689986449770085
Ni 8.484908382597666 4.021114970414274 11.704739171985578 0.570117957645431 -0.4803386347977534 0.6670976548962898
P 3.54704339612129 7.094374547153355 10.141792804663226 2.018813490071136 -0.12903158348008104 -1.8571965164558661
Ni 0.5068236525890243 5.671110911212548 9.901569435698669 1.689838526591761 -0.5626962112600632 1.1157428152455042
P 1.9654402999226164 3.195601825900687 3.3100605187487147 1.3610024026830947 -0.6555744847480387 1.4963339602392747
P 1.9380757361495955 0.5288480421630563 12.79298554541948 -0.1790804205073561 0.7532378383294833 1.222089812643876
P 2.8404194418400124 3.571057007546258 7.297995491467377 1.0642649590811863 0.621460316673149 -0.45533337100266746
Ni 4.761823957997631 2.506057517936356 8.610474415001596 -4.288968254997568 0.40393624747761403 -1.3228102078840898
Ni 8.101368216200976 5.269108018443896 8.533158383443041 -2.5157884478739896 -1.2957570604210393 -0.45399125515247624
Ni 6.481985684942535 2.419378312877852 3.387757129382811 0.4118727287158713 -0.5852992933715597 -1.1543368734686184
Ni 6.51766729387859 0.22441448546325718 1.0450775673678208 -1.1563770438270988 0.955239129299071 -1.3537308087223459
Ni 8.008534769018485 0.868569633340303 5.028862371679795 -1.0492080647480642 0.6121377537206426 0.44614656229707683
Ni 1.266567163399301 5.864296562923574 -0.03847840102045557 -0.9583709900598334 -1.2529466501237323 0.46934099813566915
Ni 2.0866965063564598 7.485767637889251 4.078905438914299 1.2202805273492792 2.03162889666825 0.889472881536539
Ni 3.1895682551908955 8.925470433410121 11.14307685933609 -0.14530898048386587 0.5241923987579101 0.7854527324991311
Ni 2.6666711702309884 3.94828513073886 9.433268739729188 0.6349840621911967 0.37726028084832447 0.21888572542975207
Ni 6.838569713891175 2.6269888397935177 8.4449865658151 2.644074154326982 0.6442256353941228 -1.0414690442325933
Ni 0.9387122134457411 4.852856616383661 7.741122273952315 0.9924234516588522 -0.5785203227765133 0.03964281120260269
Ni 2.2892388338759013 7.104130366870263 8.374517244649686 -1.1342724986185755 -1.1458743445235622 0.38010572071691956
Ni 0.6854581882313312 4.120603910210487 2.045009173960043 -2.19932858614249 0.33763443892658623 -0.6824332568120955
Ni -0.4726318714974632 3.0481877698357804 9.531398733753226 1.5014594543912982 0.9711863966569467 -0.6725427371712611
Ni 5.853148380735176 4.378785042090677 9.60103913512728 -3.1636732772872547 -0.6068425667599743 -1.5352895155668653
Ni 9.43371986516995 8.99702858202824 11.926078392870137 -0.44375646479834546 -0.7935326812937882 -0.42614080859911124
Ni 4.501396481330104 4.941782166229502 11.715784319351087 -0.5453214674270416 0.8993551736472576 -1.2720250069114223
Ni 6.283295560260883 7.118880126651582 1.5762870562825244 -0.33286992765840734 -0.39575036923271195 -0.10382320253525346
Ni 8.476554207768725 7.662709060766226 9.84313755222011 -2.4036297288898476 0.7071125047263306 2.9521393642368836
Ni 6.331369195193201 6.322161038048412 12.726292311276747 -0.9705652181331802 0.5771784640366382 -0.1943931396050265
Ni 3.8289132548497666 8.805031079626218 2.335486617487272 -0.041711520806173324 -0.48993939111231105 -0.3710523522653997
Ni 7.051898209356427 4.702035913471843 2.5684279307259352 -1.8821449588710877 0.30045834409692124 1.4707072608101057
Ni 7.9779027946457015 5.290615377420181 0.3250971440183614 0.33837697351956564 -2.7499642666935933 -1.3796349301826174
Ni 2.406828485801487 7.929207237809451 0.31757003249748533 -1.8372730380590616 1.8761563453878203 0.24577663628332508
Ni 8.906506456548422 6.393060135096693 11.929990931415025 0.27202040047120246 0.6069132720969096 0.00668795354313687
P 5.345882885121865 1.4574971879065137 4.9230836664790365 -0.09238282190879574 -0.6362989243478784 0.6528822826278562
Ni 0.020664515560209918 0.3341772038157728 0.7115501327054099 0.02164148952917563 1.852345616121468 -4.159544321175075
P 7.234928897442052 6.894431296247362 3.629108311949275 -0.5938299565503902 0.10262404002082971 0.9838585928079767
Ni 4.648532064900713 3.8795302718966735 2.9812847530806765 -0.3924220761904274 -0.257983205651846 -0.3549179085973823
P 7.715321797355602 3.129668821667387 1.3952158863151096 0.7032067419140212 -1.139477954078915 -1.094346094737283
P 6.583795228857898 8.562147370099467 12.554500773060992 0.9602517520223142 0.7374895743562911 0.268352464701312
P 6.851908546368051 8.720338311693707 8.45464584840065 0.9779658814726254 -1.003058819885511 0.7756087498255158
Ni 4.533810679666396 8.408885391654302 13.133213028294701 0.656092819145354 0.3554706957770588 0.3350070286060682
