# total energy = -340867.41606054787 ev
CRYSTAL
PRIMVEC
9.30236072413727 0.00000000000000 0.00000000000000

0.00000000000000 9.30236072413727 0.00000000000000

0.00000000000000 0.00000000000000 13.61494521680895

PRIMCOORD
 96 1
Ni 4.852036889064792 0.6601736505887854 9.537309428764653 0.6504916709084926 -1.4425667938201479 -0.48891737760569987
Ni 5.386522624150828 9.268546555493645 5.770027325163724 -1.246615308589066 -0.05784622158450682 1.060726606910625
Ni 8.511548353984754 4.4168631561330365 7.1273422075103765 -0.8204464749654967 -0.7989070582318241 0.16606678185650753
Ni 2.2218967450877174 6.354358829483883 5.560343744294538 0.3406727115322778 -0.023044540524289343 0.6874980729295127
Ni 6.726164881760434 5.765714750772686 5.953352667169651 1.1740870595123523 -3.1274965702563815 1.8399703823855666
Ni 0.18109742663350753 0.6706536900817616 9.429370417356166 1.3987258853757973 -0.9675683402883852 0.29048400649302875
Ni 2.8509223713215577 4.180341334591753 3.746520164896531 0.4517029733389317 -1.2025887664964707 3.427497000880278
Ni 7.2874042060367765 0.07159561863810636 9.539093621534716 -1.7868871294073418 0.6058614337936276 -0.014991588312825797
Ni 4.04323384117175 4.661431519624813 12.249352206964971 -0.916951546572782 0.37143081865074096 -0.03406043201881876
Ni 3.157602596782623 9.225095228960987 11.881980590003796 2.23486328871399 -0.44741231638337786 0.6779880765565485
Ni 0.15281825029883028 6.580545728358119 6.930361000090204 0.23851018452889894 0.6094185550172666 1.1449088952864992
Ni 8.233714748857187 8.606181268738922 0.17809741532826628 0.9502146795012861 -0.6066533335673037 -0.5229392430770994
Ni 3.3623196473080315 3.4465153134281517 0.6419856750724825 -0.11110970889433767 -1.0385300162089275 -0.4477889829965062
Ni 0.6417428834598722 4.6012452463072595 4.968324769144451 1.3220496755689812 0.569794255757425 1.3107612471393555
Ni 0.1878965220226574 9.144527483489068 5.747821660088556 0.7754732526889161 0.7340957181833938 0.19777928246844004
Ni -0.08294635908665016 1.3463678643497285 3.6923999609499787 0.8338285526993574 -0.26546742984403315 -0.36186014424317037
Ni 3.4436873957946834 6.6152993476957365 3.6503570118176736 1.0006458395686444 1.2003285097073844 1.4056393246661791
Ni 5.031135238397535 1.5451221017072 1.4765404479152895 -0.865503000984503 0.4399915984392745 -0.35470887791036976
Ni 5.763277532285947 0.09541710375581736 12.125660578054795 -0.4881704721373463 -0.16723200580920233 -0.25082705422303897
Ni 1.7308902436162477 6.355977440234618 13.03952262650329 -1.0977116687754063 -3.200346207228256 -1.5685855586158342
Ni 7.197868984911359 3.444822283792325 9.205050502261658 1.2550523836128256 -0.44399789138519014 -0.03419875736889594
Ni 7.750373392550116 8.130588778841979 11.379044741252196 0.39463219646786873 -0.9543942648002725 -0.05008380403026858
Ni 4.420332936650416 7.187468945719856 5.96673597341725 -0.5782518996064752 -1.6528539789476113 -0.33967460928506665
Ni 9.154053100780747 7.436204766776743 9.448853281473058 -0.5484119334269072 0.8737624127798178 -0.26064378320314463
P 3.9617730690787343 9.430547165976671 4.1026731349302 -0.81352275126247 -0.16907780076868945 -0.17865438871353104
P 2.845210721890804 6.1454743213933645 11.036546706396711 -2.7681489080224195 -0.13700534571417694 1.6036986002688833
P 5.117293702611937 2.702196229466683 9.614098555346065 -0.035858404459505985 2.1090250153602255 -0.3384278813621591
P 1.399865740369705 1.9398677753131304 10.987152101653454 -0.25226661488304297 -0.23933807974683297 -1.6200662429936292
P 5.488764869905577 3.6929441490472086 1.1533243461869471 -0.5275908829164978 -1.127163655487936 0.21856999396154614
P 1.5820245663518266 8.465129574409083 7.904156297646942 -1.0434588209691127 0.2736437950072384 -0.6413585982589728
P 9.14659260755035 6.723597430224785 1.2171692379427992 -0.44758098075075825 -0.17467972033649914 -0.4074856553917692
P 7.282576280866481 0.015141452407879648 4.241899706103176 0.9975808274900756 2.6510598416161955 -2.1071203421383453
Ni 1.8913745693155408 4.371923451898555 7.2581268864058135 -2.8483074199508818 -0.0008692899788307611 -0.03343642528157467
Ni 4.271755632565724 8.27098930792727 7.930093139573371 0.11237289187747743 0.0006314629364118157 1.5417558400174998
Ni 7.763750187145269 7.665489351742902 5.332701956216768 -0.6596429983904576 -0.686404839865334 0.5156486229529571
Ni 1.013678238549269 8.86752178845814 11.760644318806756 -2.4906787972905557 -1.035641638917539 -1.0542836794987585
Ni 1.0134270748120862 1.5240801619476476 13.059414794488182 -0.09980868205922165 0.4142828808192607 1.8916212737926392
Ni 4.413421282697566 5.958441058437766 9.81151511324402 0.5499484246760916 1.5728541040842008 -2.110640182366146
Ni 0.6114367227425219 5.7358727778510925 10.792920672037402 1.1064498199793524 -0.09951840451231247 3.5841792561980914
Ni 2.70515438014906 -0.06918258628902238 6.146480836814224 0.3665035565524527 0.597478609046571 0.18174382627213215
Ni 7.035505582363513 1.3627865308729867 5.819776349847228 1.9844558385268727 2.123493898400362 0.6669439029272449
Ni 8.65452563696633 8.21403095375055 2.830792062904373 1.360475069424715 -0.14827757619388657 0.2484760374923592
Ni 4.632929086634862 7.0433288676587305 12.296637036315891 -0.05667868363896691 1.1559019039628933 -1.0233399387320503
Ni 3.525734216607793 1.8335883050421806 10.927450481325057 -0.2589008323701089 2.6432796834501446 0.16445701416722644
Ni 2.8304850850033714 1.27490712994085 8.395288380987003 -1.4766125705509472 -0.07135299782169001 0.08415117802762281
Ni 1.8556442021111015 3.7873910165886486 12.219358605565004 1.5800933021451173 -0.3929054435847491 -2.0238040013071923
Ni 5.794328812090273 7.918029838300079 3.9009272583920596 -1.507356279491707 0.9221384900903603 -2.2359524080131106
Ni 1.8461930037045122 6.313726118224057 8.824226741584175 0.13576787376265004 -0.23601210069739356 0.5330632188849788
Ni 8.47393890993176 6.422005596031834 12.750205257170078 0.23335486558020457 -1.4984011271809483 0.807040485972236
Ni 1.8430488058094066 8.665139630452469 3.950430700754763 0.06674403829476894 -0.05057179941028064 0.34550098615885655
Ni 6.779690664862319 6.7790674066996806 1.9578697036167052 0.4907482601668517 -0.5760572059480015 -0.3262765907116058
Ni 3.9452334718672026 4.275504483902196 5.8996008367043 1.1110071003327318 0.4032433351756474 -0.17733001347515268
Ni 9.456872846577705 4.026843081730401 -0.20090494313660892 -2.3924762833761894 0.7362734425610029 1.4964720284790356
Ni 3.051890570510494 3.939196239814174 9.499487890889148 0.2989269950540594 -0.23865030965118902 0.30496497371802317
Ni 7.284353031748036 1.4753916063766932 -0.021439150558727176 0.563407635504791 1.3386291771942171 0.2170728405907294
Ni 7.105068635202564 2.043821655424978 2.8574777448620337 -0.1121018976042779 -1.1984760298796782 0.33004917038016063
P 9.065150440178606 5.014697967153004 9.157494043980154 -1.3260120026508389 -0.8436542805405276 -2.219952433040428
P 6.219837392320802 7.273032058853528 7.297079591334703 0.4050423360575992 1.264064357303449 1.6049522701703263
P 5.4363739748013336 6.035659954080581 4.481332236287591 -1.2652516927433306 -3.050293541411818 -2.551941500755779
P 8.991699000593536 1.1268600604124328 1.3608432677360414 -0.43000517665052396 -0.14104377744960872 0.5130147848745359
P 3.1713700905245052 0.8865754339937223 0.24791907379300981 0.7974860095145814 0.8882747474633798 0.5790499700277383
P 2.5798608847372946 4.886595158829043 1.983234450363996 -0.8125164214851427 2.526595308681507 -2.749584514756671
P 6.349084391003041 3.38386391454195 6.2807780870859675 -0.3341693631961212 0.9004031552957977 -0.13852872433723884
P 5.267926828397275 8.020495340710102 10.324703093653003 0.8127583622926194 -0.5793667299372086 -0.32962699524107747
Ni 2.190891977086573 8.238124067798843 0.09455291445269516 0.1733741141511982 2.1227639622128733 2.4870846521813945
Ni 8.784098218270842 3.096476785040793 11.257489864580203 -0.4526573668324011 -0.35020841893685495 -0.3428676623010676
Ni 0.36988697527726 2.5056001397768575 5.729427172166126 0.35000555889742946 -1.349855899147972 1.280451797522537
Ni 7.5627726855956965 3.786916596196192 1.5342002000839945 0.7989749353552821 1.6471677271961114 -1.0945281288411022
Ni 5.3266526310949125 2.564279430671313 12.734616361215586 -0.26746157745592647 0.615291983078908 -0.18226370333134417
Ni 6.6962112805112035 4.012824424251336 4.040439412036573 -1.5189504120872097 0.9810324362130911 0.9054260624316859
Ni 5.412001789933946 4.405291019501346 8.057691759950838 -0.7215209668421767 0.35978089311663847 -0.3482556660858583
Ni 5.8863291587843385 4.6544454467868706 10.84450784318266 1.0110549507171105 -1.9729843475521631 1.0977592341838902
Ni 4.680575777814538 2.105133514379537 7.162550712283113 1.0206711336506356 -0.10174060897461187 -0.16535304361893458
Ni 1.7283506991625084 0.781151780901322 1.9241598091424938 0.36434125879381124 -0.331081725409733 -0.06177486721495168
Ni 5.0239352112649565 2.0229750652387906 4.012392794717806 -0.22079116998258105 0.2958182742217486 0.6688966557782416
Ni 4.767190057700124 5.369796979726567 2.414923519001353 2.8828013399626933 -2.50084159675617 0.8476713721197208
Ni 2.5643817566383134 8.431827123330745 9.770982867479068 0.20785363598530654 -0.17530218441184647 0.7337403917265041
Ni 8.576348598177965 5.512327749397596 3.364988494574617 -1.0489190727527353 5.466128297008289 -2.0053578787868624
Ni 3.783446815678812 6.348200666742581 0.7633247369777115 -1.573538017525103 1.0241140978939136 -0.6985954683942549
Ni 6.699401990209491 9.246518565506634 1.9033969402020332 -0.6112918607805794 -0.4693960197433207 0.5352753960449491
Ni 5.914217635972287 5.481388097920906 -0.00015255871443707454 0.8735302421643536 0.25556328335644374 -0.21737880186692243
Ni 3.8305260628596676 8.568562522325292 2.042882117000701 0.33461082160891403 0.28647359978205506 -0.15697844640199415
Ni 2.497721040317821 1.8521279097905399 4.26944213547545 -0.5128582046920135 -0.06860654542480442 0.5913059045769559
Ni 1.2612884739691501 3.2168586340365355 2.134155949329063 -1.1111906770984474 -0.664850510733326 -0.15788990247267
Ni 0.46828641585310943 2.8319827650658334 8.741761314542426 0.24614867491076317 1.3521565222566907 -0.10104589690043243
Ni 6.841830433913518 6.104385794462354 9.344931029387375 1.0346167971974505 1.3777315425123176 -1.0635370797762265
Ni 8.04778846681732 8.49822737355342 7.569759688669702 -0.3377465390244183 0.5689473343760976 -0.24546681835239018
Ni 1.7235506810741223 6.905784163288816 2.4000155558454477 -2.1321166070723665 -0.16358798129871183 -2.26545890211266
P 2.640354135955849 2.598214442272926 6.564391248876935 -0.446480805708044 -2.0401163653139704 -1.1546065821902374
P 5.936133997631662 8.010058092076052 0.2669358896420166 -0.25552471680902444 -0.5547273341219736 0.03155849153257146
P 3.376989470031645 5.762858926057309 7.546396809931365 2.7127169523063603 0.5820008251259461 -0.5229919506919057
P 0.30126067015429475 6.803048892420338 4.839554981562861 0.8317829830242384 0.8046930687859819 -1.6790915724879019
P 8.768665601975043 3.631195079142739 3.518564887265314 0.7477094523120864 -5.68632708482251 -0.027492034772681685
P 7.166045609174211 4.035950092793444 12.558479883509476 1.0547341367726157 -0.25652050506339047 0.13185156942737938
P 7.813517816550046 0.9430640189583036 11.532198806770001 0.2771592643596646 0.5036544267055584 -0.10791742720928511
P 8.431278284053198 1.5425267430896425 7.495884991675675 0.7138937893142221 -0.39146022649779033 0.6431745684217891
