# total energy = -340877.3292602088 ev
CRYSTAL
PRIMVEC
9.19620006664675 0.00000000000000 0.00000000000000

0.00000000000000 9.19620006664675 0.00000000000000

0.00000000000000 0.00000000000000 13.45956836368284

PRIMCOORD
 96 1
Ni 8.776844350965243 0.500258581307763 3.7925433429041986 -1.492462135988694 -0.06909994012145518 -0.04704630275552543
Ni 1.341127867823642 4.295811840563583 10.05822818405029 -0.24367964454498037 0.004055658126612369 -0.12406986859943146
Ni 3.2942996490777685 9.087832255831648 9.725978664136685 -1.4476280103931392 -0.13156386298363149 0.28873282812987694
Ni 6.222149109400872 3.538890987923076 12.694109320925941 1.3007635124966954 -1.4114677584224982 -0.6406096359080903
Ni 3.744591595784558 4.162181854295915 2.070054567192013 -0.8144259798030296 1.8287053509947087 -1.0051306148128756
Ni 5.133576489864957 1.0551812163194878 9.358437806028823 0.7023037704837776 1.1209739817374564 0.5160309459930402
Ni 3.724994492988026 7.209821019465392 7.764085206537073 0.5875479801964204 1.6998023226726922 2.7238233466321673
Ni 6.90765227066744 1.7050399053010457 2.055289148022557 1.4939600606904593 0.06255108325934389 0.6915462748569574
Ni 6.548448687733361 8.543803439671528 3.091299965238502 -0.03819142346805681 -0.23699966142164341 -0.08607462030258078
Ni 5.450045330098201 1.8545149446510336 6.455895369256058 0.7370067211826017 -1.195065204425916 -1.246905329025659
Ni 2.4007324564777766 6.951610108005507 10.061552610451486 -2.0376439925140777 -0.1809699242205851 -0.9436812492581425
Ni 4.553746866015069 7.274231206226024 10.767318679414851 1.6582070157294087 -0.09762941501971573 0.3812891995020595
Ni 7.848883369318312 3.4939583533553367 3.181613089327614 0.2632100012684241 -0.17129280614213724 -0.20153566418707872
Ni 2.367635331670307 3.3183201242089466 7.620188582276891 -0.4860490549189694 0.6143627863964194 0.7014169970034501
Ni 5.583289075954111 0.3083403188058126 0.9363240061815001 -0.5994951252559675 -0.7128797462274109 -1.49636481347721
Ni 6.5835689766024155 0.34801732491357207 7.823549676787159 0.10620995759987514 -2.0126251018722368 -1.1675963095816857
Ni 6.108465681540373 4.907901734995467 1.1777959938918552 -0.08974821249942608 -1.2359166912246393 -0.3402322815607495
Ni 2.507564715129728 2.4927588326790397 11.396270726680015 0.1578780753981281 0.0822264502010842 0.5668151185244431
Ni 8.570316085078566 7.811500815180395 12.739091614975193 -1.3006660676868824 -0.1745395952142091 0.16796888397522686
Ni 4.790521434622437 0.530078180335465 4.37305440519483 -0.6641545131075659 0.5379426584644671 0.11504092562794381
Ni 7.744552477142501 1.2583068881025894 12.86030857010501 -0.44660241888757285 -0.7698595060465644 0.08852205340180884
Ni 3.196608413504068 8.425301202864345 0.533521237720271 -0.24621243826916306 -0.05278603345278006 0.21317144865379414
Ni 0.5444472432728563 2.609026392818199 4.102691634685046 0.5774566573986893 -0.7407949845804404 0.9980492824860618
Ni 5.031958476771727 7.186517847956048 4.644977770892118 0.38473344929691805 -0.8116417321896732 0.37829617831200657
P 4.872615914521374 8.81676505638042 6.66967391944343 -0.004165958452231535 0.3518197292880328 -0.8633026508990744
P 8.704957653377027 0.5320424887152583 7.829336845623319 0.8455121596848729 -0.12364177992307737 0.9365333253594517
P 0.8179597123785166 3.4961746376228 6.082715401136541 -0.31052729829714903 0.2834594955460796 -0.18183535754467395
P 6.216401484225916 8.080940287182074 12.70766360051853 -0.12130593270104914 0.2974540100529587 -0.13081335797085214
P -0.0386451924363513 0.1692854939930138 11.278808580124492 -0.20761915137699727 0.5932108349091526 0.05540444491223361
P 1.5723755200627705 6.410376936730487 5.770628550336684 -0.4980180543553875 -0.1348674734355677 0.45065756279355296
P 2.6985514025433206 6.049950259159177 0.8505924290718495 -0.8604446126249891 -0.7101862585556479 0.7690778906855336
P 8.296563595145601 8.860750482319327 1.5668826296355682 0.40430442945031014 0.39898661678182257 0.39707500158140646
Ni 8.808056254715327 7.5200732283094025 7.007320689301325 0.20194087004529737 1.0896664298734267 -1.1307356891099107
Ni 8.595568851047256 3.3679612133200107 0.4261261716111885 -0.4404168589021512 -0.9785412943601213 0.4173599770826876
Ni 1.6305506830336098 6.936601909148662 12.442012043412154 -0.1725449333816835 -0.10021774457218224 0.6625609433682009
Ni 4.58532661777635 6.543583897785278 13.360331728685606 1.1392326708373282 -0.4362161905572423 -0.9165334851987571
Ni 6.346509325786371 6.808471250648392 6.7674984999211905 -0.4060985452362555 0.13090000414738745 0.6442670301550195
Ni 3.2613864482758976 1.9637014305746467 2.7553756436930383 -1.0518987242063498 -1.025372395781047 0.07308283602860317
Ni 6.751234100106106 5.447645121825139 3.4062532716656126 -0.13243289585214613 1.3989403153794489 1.250716218131317
Ni 2.8905128871865866 0.9424725856886617 7.269970606636332 2.3462187950705466 1.0985002261149728 -0.34088688442561293
Ni 0.7600043385943677 0.5489533814100221 6.120294753960447 -0.15752763403724482 0.5074195501749454 -1.8569602320753438
Ni 0.2014354101716503 5.4129662505695215 4.147229752260776 -0.3726114692224034 0.3928990158268459 -0.6363737434498717
Ni 3.5748849158187235 1.869789833315998 0.10111773979800212 -0.8191722362387633 -0.39539452855519003 0.878363916107571
Ni 2.0511205104356645 -0.22902401101144135 2.8347471286890893 0.9234494955922999 0.27741354646231575 -0.1353683243313862
Ni 0.7821552262086359 7.863873175774598 4.369756647774446 -1.0150962106660197 -0.8883187133274378 1.1032449398888096
Ni 4.869774288634876 6.41647401751608 2.439021755963294 -1.306944958717059 1.5248783475358705 -0.6972682649423992
Ni 0.4772956692087769 1.3719811197628082 1.879817370101234 -0.16138223189664466 1.2957231218593104 -0.1994751821136242
Ni 1.2994598843552778 4.723223640973906 12.60507446867574 -0.050402363711951906 -2.1746753063701836 0.5279222981139876
Ni 3.265699466207185 5.065386664789274 11.167026926481883 0.9307483432465583 0.3626049928289949 -1.1040525233917697
Ni 7.550935676448848 2.172666689535504 8.920867882789288 0.25213446018055286 0.8430752681086061 0.19689713697380284
Ni 9.08876107205992 7.80679236063707 9.446409577526664 0.9028932687075032 0.6922296740772271 1.3172874782936475
Ni 5.185764926453563 3.10790186560386 3.4848844625391293 1.9962741713180394 -0.7511477885696741 0.7010017638429024
Ni 8.404471809230303 5.304276359461025 6.343265825947639 0.09165005750782926 -0.723464977942425 -1.3801159835840942
Ni 7.082067405176599 9.025068188921123 5.546809588683684 -0.20304593018401806 0.8532516944209757 -0.3328475590609042
Ni 4.068748459451823 5.38272914404911 6.6535355075721805 -0.6189162100950567 -0.9448156199729019 -1.070826414348788
Ni 3.606096819568807 3.0251084744836474 5.662723095112066 -0.11214174970327784 -0.37772333652767204 -1.3323988800137891
P 2.436413713563906 1.27934779434307 4.743178475961326 0.14326649613254036 -0.3587884472963821 -0.08572700715517495
P 5.617618491599091 5.19669001238612 11.474969049815575 -1.0514498095943894 -0.07726190710695725 1.0098979542945317
P 6.076223803358937 7.428157206511497 8.93423272065611 0.37181339880114034 0.7124367451527214 0.6963136143386136
P 6.944786527397799 4.253389768672264 7.648924868911618 0.07658802096838424 -0.9480449255434771 0.14972125061894861
P 2.753820566225702 8.542727484238776 11.837448319289365 1.4511144262798428 1.2820674787490887 -1.3315578721697325
P 3.3497067557643487 5.098364238993104 8.822773853643326 0.11949484763423936 -0.022339544037464753 0.5511247043723798
P 8.253727694241684 5.223101499590079 1.8147937967819305 1.1093245704239862 0.22980700032794615 -0.8642369897878858
P 9.271241274214578 5.933084946001823 10.846474053704323 0.029894987787219482 0.07384208279213089 0.41740882804275214
Ni 0.6255126683604703 7.04901626137053 1.8987955686189262 -0.3311722282410103 -0.2518071587481212 -0.6723077383423195
Ni 4.739960725483379 3.033504605339224 10.619586320017909 0.7918069568519331 0.7981732653895931 0.6814945470479102
Ni 7.045291800257158 6.847601082839495 11.122475934225761 0.22052197548159438 -0.3885895898182146 -1.3524853663510192
Ni 0.06716168988438731 2.536790239619346 11.299819138904049 -0.6294289367009225 0.20992491669203847 1.1424020697042454
Ni 5.771553688084845 5.252842011295374 9.296537262324582 -1.1424164678819488 0.32407598351586125 -0.452929132436549
Ni 1.4589771744109497 5.7622379372012755 7.959141212574536 -0.011461977893012518 0.8212795123897534 -1.0377823394096255
Ni 3.0886910032190857 8.00494288806873 5.691944021501544 -1.564324983567267 1.0365039869178345 -0.9138158291572779
Ni 4.748016596928598 0.4289972253385827 12.036447656006862 0.23831786601243474 -0.20352518381328175 -0.9411399708935275
Ni 1.5768080885976972 8.519479489931113 7.902502734670474 -0.4056372893291208 -1.564884455615163 1.2587732841078385
Ni 4.747851065323559 3.376568856782025 7.895544889538678 0.5120043413321504 0.9676470160451206 1.5524007213258555
Ni 1.1055671976532262 1.2842769576931128 9.691616142170698 0.20247180284810293 -0.7010827535924828 -1.6567108907998565
Ni 2.6310604886889117 6.62514499806798 3.407532463124551 0.2619676442208908 -0.5573390607132078 -0.03846138929999183
Ni 0.9697577119192149 0.0647458480708496 13.440617315989483 0.8289066899177079 0.8300348899848803 -0.6745088597586963
Ni 8.143115797274683 5.899436049177557 8.650343259154576 -1.0878792560660169 -0.4650603684824442 1.1064755310109653
Ni 2.1779912894975837 4.198865497212557 3.951190672413389 1.8879008875182586 0.423468918193903 1.5745608023626625
Ni 6.984762410014656 7.152537887921706 1.1491148844588084 0.4762217844159024 -0.3549521042694274 -0.2614606226774852
Ni 7.185772955733374 9.1599764470277 10.0083332798115 0.10409625369098201 -0.359732042156574 1.6455654157059985
Ni 9.253124759663114 3.7759782273399605 8.131854130411881 -1.0411594834119746 -0.7062169894952547 0.3032608465427229
Ni 3.9676914145756683 4.145573516590361 13.054341039051316 -0.2660816663892643 0.03307132863267207 0.9734687649332201
Ni 7.992757922697822 2.4591007396544944 6.342040892070353 0.08457026784291241 -0.11218083047132937 0.12145608512566823
Ni 8.038784905098872 5.289902698423494 12.875719562534117 -0.12122674272368153 1.6213564225599624 -0.06606089618481527
Ni 1.130433723210158 3.95822852448762 1.9993514205798246 -0.3493504418119338 0.30984441329751156 -1.1676220206132988
Ni 5.922215037270944 4.346528885107399 5.552273970890019 2.3962702032009826 -0.8744563535230488 1.2634573198470693
Ni 7.662430408642724 4.214830100898516 10.653369481366262 -0.14087614152349287 0.32167045939816213 -0.4746739803128083
P 4.241195607101076 8.764806524798814 2.396853499199702 0.1396949767311981 -0.4562224584758401 1.819938660545672
P 5.295319260388372 2.7733073146188745 1.0938944606379108 -0.5187599148884292 -0.09348196851024544 0.427084146348987
P 3.2280502222611505 2.1068310917314825 9.277438593583224 -0.5649086455303497 -0.07237886798304309 -0.15091347115483686
P 7.377127491158165 7.079952279112215 4.739665527454393 1.0252294424452795 -0.8365462087408366 0.20823415925317687
P 4.279939198880423 4.887044752760585 4.471577896893864 -1.5863842773601518 1.2307271766038999 -1.8596244091710683
P 6.974922475715132 1.928544356904473 4.5109606245926654 -0.83296569047843 -0.5466759245724069 -0.7734012006512357
P 1.383761452321399 2.45041952659024 0.21105923376459743 0.3412195851746833 0.6176288587422007 -0.8150641276076608
P 6.833052693996645 2.114427153162705 11.002605302816924 -0.2411759042865201 -0.4653303343143792 0.08433012680764831
