# total energy = -340884.2703198688 ev
CRYSTAL
PRIMVEC
9.11966825722424 0.00000000000000 0.00000000000000
0.00000000000000 9.11966825722424 0.00000000000000
0.00000000000000 0.00000000000000 13.34755632464509
PRIMCOORD
 96 1
Ni 5.9930719204113085 1.7872816594372571 10.897211704091127 2.6931698834123683 0.4454109696826329 1.062688358622686
Ni 4.849119002544318 0.5988785676439007 6.031573334884202 -0.4377627091087558 0.4652128348999085 -0.024917846287602248
Ni 3.2041315233194254 2.232357937786566 4.826996511846429 -0.5120398225557763 -1.0142981402447564 0.1583043643022693
Ni 3.6847106692946228 4.726559783940589 4.839890810468634 -0.18934452143752553 0.18125763066433298 -0.020607391837706445
Ni 3.9894626157252193 3.0369132903915315 2.657631768983845 -0.21170154897648705 0.4747827379765307 -0.5640930916075899
Ni 5.260707859901522 5.321754917668719 2.4097272731943926 -0.3249730414088339 -1.796454975601435 0.967096028637657
Ni 5.264027419063049 3.291680336370679 0.1268089839039247 0.6087199862883452 -0.9343268046264361 0.6440063202944651
Ni 5.894688941744962 8.013123986548585 12.754377379612942 -0.41457470102806665 0.9149005775810244 -0.8746463580466678
Ni 2.183038773101027 5.693281073386949 11.633196272807304 0.19704497540557675 -0.8831016879028726 0.04171897700534106
Ni 0.5945567569662977 0.3700259703279246 0.54857630274514 0.8380567318480922 1.411881191810833 -0.7604425836080387
Ni 8.162458550477155 0.3120075543122196 6.789461522265639 0.8187354058116609 -1.206026588533426 -0.5821635759560554
Ni 8.727604378059047 2.7288965028075647 1.3162571896530806 0.8658192466733411 0.3171861983745634 -0.9477721314980646
Ni 0.6030781747699531 9.117807613894879 4.651609792267493 1.3715102441929543 1.8906625094237954 0.7474636548498675
Ni 1.789123832378544 7.061869654074614 0.5234908319055481 0.4193764932920842 -0.5236367833647563 -0.3500053017871133
Ni 7.8072110021856425 4.6257965719194125 4.2451899627475225 -0.07450645584900717 -0.339871298676905 0.1398502713621398
Ni 7.966750474635499 4.194281239925021 12.406299714323607 0.204885297385602 -2.4807319704904884 0.9917706485662018
Ni 8.22193702534385 7.253255007271863 9.449802744620058 0.2704985645100374 1.359877287939716 0.06501060054342997
Ni 7.030169688015639 1.3884329783126153 13.413359119383331 -0.34406013994727197 -0.4472138272193265 -0.6157010455918687
Ni 1.849432197035621 6.61041872777501 9.187109795159365 0.9269780775708487 0.0744617186540008 0.5729276591800843
Ni 0.11942934853714611 5.0496422631037925 1.6702197767197053 -0.14825597892733178 0.3614438826413582 -1.0086699954247014
Ni 6.7812301099052155 2.1650821467574937 6.947749776262305 -1.378166316056891 0.9273958818345576 1.140367812883036
Ni 3.619021700502104 5.0188269048433565 0.41893839781949666 -1.3566014454019217 -1.69477967264712 0.5877125307987427
Ni 5.956237581253599 6.163691789512964 5.1110732588948915 -0.47981130153937374 0.27837205372084317 -1.0323439420028737
Ni 5.3115408894794065 3.212056514834169 9.145358131001945 1.2904870702713516 -0.4695736829717655 -0.8853030664295657
P 0.20139783672318462 5.9889863091355835 12.625266591499212 1.330381078252812 -3.158035876495819 -1.1178544622718685
P 4.034130749717411 6.725189749884388 12.723917688405528 -0.31994910583168124 0.20594973409437434 0.35149551317939465
P 2.5968072311164865 0.1081492311555737 1.5004389170764574 -0.6443385068229033 -0.5005122815321509 -0.1289768189827456
P 6.466902512047137 8.224636447079597 5.9253802725202425 -0.16353527368390547 -0.45667908639728444 0.011757654756560397
P 4.849912413662594 1.1616359541697385 12.848077408747848 0.8627568056979334 -0.8591554614999204 0.09261679229647275
P 3.988742161951152 6.52133781049536 8.48508139837184 2.1735347650078376 0.48801363484450794 0.23895755647896263
P 5.00383417060833 1.3647856791207509 3.8234873935492932 -0.018454864271077894 0.7749950275009169 -0.25970121678421726
P 0.1733347942730475 6.17373254400978 3.5514513441957862 1.394439856405934 -0.4621851038171782 -0.14258541090511573
Ni 0.614685688233665 8.132363645990786 2.5385982140390344 0.3117706837859469 -1.3061492022886407 -0.03624715525749241
Ni 2.0466176590975165 6.80826080593479 5.117466146181237 0.9518095347922317 0.24826160748870793 -1.8561534199033323
Ni 6.106985693726225 5.988776556770981 9.397907273717125 -0.5526311137145773 -0.26543966192989127 -0.3598112321339416
Ni -0.06715997124514006 2.645871045097293 10.276776977133764 -0.3725235374942874 0.6034515388005542 0.7430714393194429
Ni 2.7949502583211303 5.403603938203615 7.277007182646029 -2.190021192698635 -0.509482089130929 -1.545321960102203
Ni 0.8685225280741424 0.020488246187598504 8.92709894006517 -1.8071451083254297 0.7228219450417874 0.5856769884259527
Ni 1.5906251381208796 1.2373747971270987 11.456741640102504 0.04362493577880228 -0.27775756006529584 -0.03595070706299614
Ni 4.083915017472285 7.358587172974153 1.570820867035244 0.6060396112427047 0.8898850293732932 -0.37346841790606006
Ni 5.662812262511507 8.172973527711331 8.042343402904441 0.7278674778854949 0.7468172795151202 1.17048365843181
Ni 6.977184416783579 0.9396723540807329 4.67416729113023 0.9299703274299532 0.4862426589870142 0.3386142863413523
Ni 0.9433111016231757 7.843671434954279 6.9784091881994925 0.10169664311055389 0.172383982323787 -0.44236215555398006
Ni 5.011467332746236 4.911187463130445 7.13425519509875 1.1649563008556774 -0.3336559138948124 0.17047648088842898
Ni 0.8827546819957869 7.724304100159711 11.432569048032333 -0.8654978587781803 0.6656573229053374 -0.06904928938917786
Ni 4.277817399044759 0.44476347373601116 10.328392474228293 0.5015782609028201 -1.9670618114201412 0.14419157904997104
Ni 8.282409544025398 7.462432832788176 4.845696391134095 -0.9632368027925671 -0.18161964198944203 0.5325009186236055
Ni 7.51405015381631 6.483509427522798 6.998510760462782 -1.0145344246252785 0.27396801111587654 0.6240743572572285
Ni 2.322214026848441 5.894652463072858 2.5149062284738415 -0.16035790439718836 -0.45349528935266414 0.9553787402007288
Ni 3.6255513828088435 4.554790836667635 9.511188142071028 -1.2509046799930392 1.0332607973901884 -0.20402449204720344
Ni 1.1234701434802077 4.156097189899438 3.9656922010150013 0.39099819925970725 -0.9083874590528549 -0.29282962390706985
Ni 1.3103412610045027 1.5362536773488409 2.6952586072930287 1.533243174560798 0.8093483081698062 -0.12338724071011008
Ni 1.3465554627364327 3.399465692772008 8.164593464762083 0.18447562338099843 1.777141619984804 0.44220814647461915
Ni 5.699500686980798 3.441124336315563 4.836006743856287 -0.44062203293442176 -0.5790384000635125 0.24577509362142838
Ni 4.101707489791347 7.402379818835832 6.47827656200938 0.06699266397046527 -1.0479040012246599 -2.0008394220912185
Ni 8.637866844681513 7.5844357516423075 0.20578895687778653 -3.0344995118023546 1.0928042041714598 1.1129678236035283
P 0.17952340099560793 6.088718998669802 8.028087537845929 0.48957995089036327 -0.1396350700275402 2.067522525241065
P 8.856702398637541 1.9940792515987384 8.193503724371851 -0.7038677725367878 -0.4496468621408515 -0.6175959486217364
P 2.2557681256097504 3.464726037167296 10.721731051931522 -2.3554590827218918 0.6510480576325949 -0.38252538590200574
P 4.127780620678174 6.507211444722818 3.725450050301139 -0.3738324861136981 1.4868069945854456 0.5419219548271893
P 6.979172504413284 3.999594566902297 10.32541581458455 0.2339269360335907 0.6299120469849281 0.7105102175539699
P 6.495018448571827 8.137488899421495 10.403365265071454 -1.2142114383370637 -0.4859040447006729 -0.13060689838700085
P 2.6689985232116658 8.943813467623539 5.6497264508607525 -0.9759802185011643 0.3343863643029338 1.044335310036795
P 7.027780334992782 4.130060537684717 1.1917235629216858 0.4795763027104321 -0.007932110362883113 0.9273100069889707
Ni 3.0036447414320553 2.014862975030385 0.352811684961722 -0.6722753424424874 -0.32314575839210796 1.4745469462711702
Ni 1.4649013947120695 1.2947831073518528 7.023216853112484 0.7862433467212265 -0.39330704989854204 -1.6192257493702047
Ni 7.578963950826605 0.5341316605584858 9.07110579393285 -1.2205574351597497 0.06126553167870094 0.672258630271939
Ni 2.9214765325162437 1.9592238804027082 9.199456001733196 -1.460152625222711 -0.7415699150732519 2.208126129829462
Ni 6.843024980450559 2.6772335834392993 2.810701748935935 -0.2762591211428984 1.3159672168203271 0.8184860088050162
Ni 3.982969412090585 6.908367401858082 10.635118828786556 0.9330780198209995 1.0659850270960867 -0.8437424693789599
Ni 7.349877890009158 6.1369802818643056 11.59759764866714 -0.8535712825439236 2.285213459031768 -0.8895548997273841
Ni 8.151587906189958 4.200409656838609 8.380449623173961 -1.6162077884794874 -0.32236568569297386 -0.9840660808330924
Ni 2.9850132596545853 8.762778937635993 12.77313015297516 1.5082181132713701 0.14252576131177389 -1.029319553354253
Ni 0.15983221379349688 5.3108751537134955 10.163149561394869 0.04346372761058966 -1.126765134497937 1.268131842504603
Ni 8.854933183040464 2.948780818586603 6.03883441456664 0.35672333723723726 0.5337131937641518 -0.051486083694433915
Ni 3.903865411631567 2.481178960212649 11.533262950576509 -0.47795136551249945 1.3358999511885121 -0.7738555145798349
Ni 1.342706962829388 3.5987577981479495 12.749612353069267 -0.7068101429945634 0.15787756117749585 -0.02416425595102935
Ni 3.174355807213973 8.693469460637084 8.217756569520652 0.35826857023717 0.6279009300921702 -1.0255408030381115
Ni 5.818749466091026 8.318268078704309 3.4784265144430146 -0.9340424406167979 -0.30562857544395106 0.07815485123487186
Ni 2.9884331351644002 8.559136750611568 3.497393600003848 0.5257507443839655 -0.21545921624670636 0.536152913553896
Ni 3.4862119750369582 2.7901715522754156 7.299271028198323 1.379058488853857 1.6302185009362826 -2.5866768473544357
Ni 5.058105315032081 4.724626414319041 11.457675494108384 0.6295353803717998 -0.055727118358974995 -0.12650521751380148
Ni 8.063902298118313 0.7420236128831077 2.3667088871481354 -0.517729930962018 -1.6339355447765538 0.18471704996784316
Ni 5.553741032918488 1.0586019448100448 1.701492942315055 -1.7259085328414405 -1.360142882896277 0.42842369109601697
Ni 5.892481982082628 5.586571837812708 0.21945751531541347 1.1534755539095876 2.039257102637469 -0.8325172900871017
Ni 8.010351607468628 0.16563323462494503 11.47496091288519 0.5684991910950855 -0.5902877477250866 0.09652409777067893
Ni 0.6163627951836781 5.397429922949896 6.2155699330466465 -1.2744454434274568 -1.1322755227932049 -2.0786484599508976
Ni 7.211058303314764 6.4851053694273775 2.7330587192947102 1.077122788880461 -0.11084565659967362 -0.6840198845729252
P 8.891503051825415 2.0828956985056295 4.05787015755634 -0.885957669294429 -0.024308751948693617 -0.23224620589705808
P 2.107537041512347 3.8085466414220153 1.5037356770679184 -0.47309275186861754 -0.21365198783463848 1.0514202419080343
P 4.781752014834983 1.358547826190849 8.164953691649115 1.4225618114531307 -1.3935978201206127 0.4161266188962189
P 8.813411334517301 1.8918933713654789 12.520928469611775 1.6384002654161267 1.1691384572578252 -0.863911488127667
P 6.807649788177037 8.099988824497876 1.337064624221595 -0.09765564027196084 0.8599059665126997 1.1269569387937688
P 2.0318893952352486 3.7524880420651345 5.984150149181303 -0.30569696678804126 -0.7037587577627493 -0.33822990641874007
P 6.985100288630296 4.455915395927876 6.336458428467981 0.21364684562831596 -0.8269781054364272 -0.4449998502871433
P 2.3644928078177756 8.469754884287054 10.141526828504814 1.2131670562329495 1.1925720056904172 2.683878173697797
