# total energy = -340870.02735651 ev
CRYSTAL
PRIMVEC
9.24708500990238 0.00000000000000 0.00000000000000
0.00000000000000 9.24708500990238 0.00000000000000
0.00000000000000 0.00000000000000 13.53404362166988
PRIMCOORD
 96 1
Ni 5.790598542268537 4.4922985749524935 11.879952828257158 -0.6540858160176541 -2.50727501108634 -1.1600125836971569
Ni 7.822534484449096 3.1021565603904695 1.6649311636332822 -1.0206503077150293 0.6828364057877853 0.23328955955990788
Ni 3.042522109857915 5.143256363708843 1.5767703808867606 -1.1835975701059485 0.38107554082935663 -0.7753421264276905
Ni 7.860364308782897 5.496014158547714 6.918711460215477 -2.086973177766509 -1.5789054524846033 1.963050119157587
Ni 8.150621056769616 4.91149667481174 11.460952616014811 0.7257013234721115 0.5936186118705324 -0.3138514775743756
Ni 8.823032082498445 7.448804301052644 12.92767806302614 -0.7005348515088129 0.24245682788147277 0.4124607400088574
Ni 8.744459602086735 7.147691475391058 5.96476461227094 1.3670200696320844 1.7638662430321363 -1.6232497829279333
Ni 4.047911415820385 1.1557376593829698 12.20911483655177 0.7303660759376325 -0.9147288278898503 -0.6184295002666252
Ni 4.849846359770566 2.8185854547878475 7.361463734736924 -0.1702643648776229 0.33609177702981474 0.14980532569232266
Ni 3.3165409767568423 5.173845720564431 6.052356699295994 -1.3212050681804988 -1.0337847882144584 -0.35183052792131014
Ni 2.4428209127129707 0.18157760855130153 2.858863907203679 0.6749842567332182 -0.5832434392837955 -2.532598320342477
Ni 7.529189210105133 5.258881913322591 0.36856753589570346 1.3070701714410133 -1.6904391362902371 -0.5491824930443445
Ni 6.086680953743472 7.304374081969382 9.183673941924702 1.539781232789632 -3.3674334599294777 0.8768456796908318
Ni 6.387331425159962 1.3333926545188721 11.713971353101453 0.597286547640423 0.8721495597667431 1.020542321382255
Ni 1.0603447315346477 8.960194092848791 7.026212521034388 0.5472508232392703 -1.4465440333003408 -1.2618238980087042
Ni 4.88850842174554 3.840832196526538 2.4310123852932044 1.1464016777819417 1.358187301831803 0.6097322296029434
Ni 4.886890181887702 3.5759586965956207 4.904290421547666 0.11468097118536379 2.215980335766558 0.4550418079041776
Ni 6.951015226611884 8.200638539004162 3.5088359567094822 1.226734767615055 -0.9331548958055219 -0.8097630271097215
Ni 1.4407975456548032 2.0345806084625115 7.325733923384352 0.3147745036092773 1.0304274417064512 -0.30169221650402234
Ni 3.684639685448018 3.134586087141542 10.568139171065432 0.5870386446601696 0.46355627313309195 0.6809731273268015
Ni 3.4415338233762465 0.8540173002433271 6.264163953100199 0.886251546385764 -0.3981471515996627 1.2621468285657618
Ni 2.8720983351153233 3.9430402259475836 8.431560442009149 -0.5181731891470238 0.1756513402211491 -0.5727109151835877
Ni 7.799555478467798 3.287727060202425 8.01139602177765 2.147721917709792 -2.564290252129119 -1.9579608775601374
Ni 1.1881394448793368 3.982220124677066 11.660024784492077 0.3095466795514346 0.8374581790321448 -0.3017449241188287
P 1.8321804141290416 1.2969129045807535 11.08520749281823 0.7274252481417536 -0.9564573179768884 0.31459761171178074
P 4.053838797242523 7.082083408011857 11.588809284828343 -0.3493183030224178 -0.662989032044555 1.184033629202103
P 7.942432187287536 7.00103270884643 10.593257952493039 -0.8327813423817658 0.17414441665831945 -0.30212904693112486
P 0.45187267436022127 5.672568750580287 0.5412235569336218 -0.0070193687406266215 -1.0124965682596434 -2.4220257148985316
P 6.613801781493158 3.7331313986737453 6.202503466265631 0.7084661905407477 -0.102554620235475 -0.3543738631684542
P 2.9577540825619115 3.098744386061657 5.754783657734867 -0.8543942926658511 -1.667589228275257 0.9083956865829711
P 3.1324869988688038 0.49329221705295156 0.6897724276322054 0.507068851703746 0.6760751758045518 1.6668922022082326
P 5.667011252554227 1.8917501350672825 2.60140564465562 1.1192048056521757 -0.6030800143937485 -0.01619563592325598
Ni 7.22029033895612 8.952167623153915 5.696356876490505 -0.6419666641566169 -0.42625419424852395 0.8648656245108203
Ni 3.2207041888332273 1.4431925406444033 8.974018484777178 -0.261524128925569 -0.5058439781577094 -0.2685113588766795
Ni 6.410874503320278 6.570997025482119 12.347852550169407 -0.12862406362901718 1.6116471656919988 -2.5027066749893674
Ni 3.3502003657998722 2.397852338834879 1.7762078092176519 -1.3139417017498662 -1.0370063804755496 -0.532464151848399
Ni 8.706352365205877 4.932801958425791 4.944039940707107 1.2382921334353514 0.43416393601390396 -0.702034575982791
Ni 0.8007957030902622 7.305076860421928 10.901307016539562 0.2331813161168178 -0.25167911781068913 -0.3208561910269829
Ni 2.3847029841043326 2.4261669128045926 13.013226544287866 -2.4074033369996672 -1.9434585701789044 0.9216175845898836
Ni 5.325692101739043 2.7462270154302355 0.36800253900819546 1.2680194852964548 -0.6572009646078681 -0.8439980370331917
Ni 0.8272229470314912 0.7207436890942437 0.3351189803884379 -0.01759740136678905 -1.2369461609304182 1.4102462273105711
Ni 0.6749789412060958 4.449586289790473 2.1754211091868454 0.3676654380710378 -0.8513205388365338 0.9307915377796679
Ni 0.14119743820154837 2.89535475364368 0.16038883820701638 1.8750402295055062 1.0807285039538486 -0.5595414676811654
Ni 4.1341312354459925 7.248401477057992 6.4118750379066665 -0.04611427785955929 1.4871872607430001 0.3646284510169268
Ni 8.309143833243422 7.688701424663446 8.174508126488284 0.12232768909734415 0.6071590695591286 1.4079106371988592
Ni 5.0576653458565675 -0.12861585448398077 8.600613798769274 -2.005326768438611 0.6292530732446905 -0.9247345329523106
Ni 6.539159312164769 1.1375393962959692 7.5839097597208 2.2759230348687773 0.5749593448981324 -0.2937729616569457
Ni 7.778000523561396 1.1228457783868004 3.1070103552554933 0.3821191516025225 0.10045814271776247 0.687096723726036
Ni 7.711532477286314 0.36386539322307143 9.929034295736379 -0.5893732063306172 -0.5527429567020932 -1.3525162195889544
Ni 8.419581768227186 6.384335369651736 2.2396134478675616 -1.701939937840985 0.758219607814791 -0.2198581166453504
Ni 2.7614014817543047 5.60521298415462 10.3121965057328 0.9643824863612359 0.1383693159412391 0.0725084515823719
Ni 3.9453797384277722 1.727919531859767 4.013683331055887 0.14068382300702867 -1.3136221136269184 -0.6325124607222525
Ni 5.451748363122169 8.588415044366647 10.836641227111867 -0.5167724521447551 0.5353874961427811 1.424394236676179
Ni 2.591153401624849 3.9898027342966498 3.6844399484141364 -0.611268977962444 -1.075582955197167 0.44301213043315324
Ni 7.01611470432148 3.509028296075442 3.7219165341046834 -0.2980973000639124 0.7648561392947021 1.130948833561981
Ni 7.599725973737064 0.9997393370873905 0.6868216828399992 -1.004687613738186 -0.8929731813803137 -1.6279204489307253
P 1.448195213576348 6.164920539098712 6.033842185905346 -0.3116745245277148 1.025412504990363 -0.5759237656939307
P 8.893309927753123 0.9816242977645072 8.059874789084514 -1.5552423045397088 1.177011946468631 0.03834131878235977
P 5.521203217820575 1.8492597799429085 9.499883558397181 -0.022625193598683615 0.08003612741798474 0.9215095982571098
P 4.9855750719611125 8.736414638222056 5.156511135207271 0.191580866967212 1.5586829547901415 -1.3074188130296838
P 6.332616423795234 7.544548618127241 7.155787298222699 0.174417467814048 -0.4938644371983301 -1.286788538373842
P 0.8569153366515925 4.796351973612894 9.502604050775329 -0.0915397571822101 -0.4183588506608472 0.0138836999606277
P 8.693915036012779 8.722026174114651 1.7542422837416045 0.14639398601792852 -0.7648242576155022 0.39053771468352094
P 4.643876790664949 5.060420977157343 9.186029174449226 0.1834484676680647 -0.23457125448580893 0.8074397782931836
Ni 6.917355837568854 4.913336844707225 8.99810899036369 -1.5511308534744963 2.128711695155876 2.6144352484146265
Ni 8.703772428518239 2.1578997327146663 5.691971908830009 -0.9932204936388508 -0.2457866635856541 0.7862361476323749
Ni 0.5966200684556211 7.033869107333187 3.7653463930550934 1.4764966137983733 0.5286548054046379 1.2928727968947091
Ni 6.1642177606461654 1.6510947504945226 5.133069774980875 -0.2855955680524759 -0.2894151989088822 0.24781397842832806
Ni 1.3774550140765744 6.677477208127857 8.538627814546158 0.2123245272724666 0.3425444746336939 -1.2001253925576427
Ni 0.9340942813685807 9.168984022849497 9.413901388853555 0.12639131764375652 0.5384910747687693 0.8629684074881073
Ni 0.7584810425790248 4.465740947114147 7.08669585396094 0.09723577912572287 -0.3442205767845362 0.9510492595874395
Ni 6.649874659695592 6.04060272967715 4.767109917027517 -0.9597401024932181 -0.02625044905609673 -0.330935686750172
Ni 0.7887079137064575 2.60446920388363 9.75466201574066 -0.6823322124578571 -0.4604128424081038 -1.3228305195990637
Ni 8.953795110096655 0.5860931870032626 11.870397815427992 0.5410344100159135 0.23967438004032915 -0.45976003931545334
Ni 2.594121715878369 8.360872026184826 4.773051169077007 -0.2228755633154355 -1.095811880649532 1.4030093432425
Ni 6.372795007694125 7.339614722530642 0.9430981679375913 0.33049345700643085 1.3997617828394797 1.9911769593007904
Ni 2.202147033970407 6.06205596664963 12.537816340018269 -0.017282698339847656 -0.2238487258619822 1.799347466657882
Ni 4.757680664553018 8.12363806302578 3.0344410823621173 -1.3396105672708798 -0.061125149446094734 -0.06819876846342449
Ni 1.0481108382093927 1.8992957563472581 2.396174917633669 -1.2220820993343922 1.6093457712523316 0.3404724225960136
Ni 1.655209703275882 1.486672333853284 4.745455093604174 -1.5013635522433821 0.08435146696388697 0.26962464654551627
Ni 2.4078761788685723 8.690382649580242 12.69210395160699 -0.9093130561909177 -1.9525949852625342 -2.924691809548892
Ni 4.245438396410538 5.67162554792029 3.628598652108354 0.28634504462399074 1.6529619652803855 1.1168005670860572
Ni 1.3430096228168806 7.416855622716472 1.1488236140017958 0.8347495218517301 1.6437265627250466 1.208065730450642
Ni 5.29522295698718 5.438941150532995 7.171093997860867 1.6631070241341874 -0.37806606457907144 0.3136627586023372
Ni 3.9103980162437666 7.29881658394332 0.6751527864022522 -0.24062028889336623 1.0271603409194052 -0.16136989060147047
Ni 7.511231371225582 2.905711488733843 10.281921549763878 -0.3009867057965655 -0.4585027698695845 0.42610198494137586
Ni 5.242246407584016 5.208818195663535 0.4839424895086089 -1.6201649733550227 0.020798167692273856 0.5541172113418006
Ni 3.0638828759813763 8.375732091622229 10.16903406198959 -0.07499830788376116 0.33557909905945427 0.746326713031947
P 7.644694547615154 2.9896287842188687 12.653518640436701 -1.98126355684182 0.33788357882291487 -0.7812908878119575
P -0.019203421215840535 9.036168142403058 4.971135748886747 1.6929135659726589 1.0248982843581058 -0.8458132358650594
P 2.67495048500615 7.074417574628156 2.995976908004044 0.5026043881744893 -0.2630593346231727 -0.9594814495151928
P 3.0932793588846152 8.301034139784429 8.064245886117657 -1.253071091516739 0.7881354215376168 -0.8986517198223297
P 6.2359843865700535 8.700036606217859 12.844687325448287 0.2866204097725644 1.4151269524416403 0.49152319065966316
P 6.199467648292327 5.779723970423866 2.5034734672932277 0.3115619102092505 -0.20451428719942844 0.7058107551957715
P 3.6951813622362195 3.851826980474934 12.724788697901356 2.135667300538102 2.981627089283355 -0.13974845567695288
P 9.251153619288056 3.2413714235890434 3.9153581525851626 1.0345707744508634 -1.7835688636673863 -1.4195821599995164
