# total energy = -340881.7739461524 ev
CRYSTAL
PRIMVEC
9.13361281875710 0.00000000000000 0.00000000000000

0.00000000000000 9.13361281875710 0.00000000000000

0.00000000000000 0.00000000000000 13.36796559998189

PRIMCOORD
 96 1
Ni 1.5104438331547894 6.582247742598486 10.826475080762144 -0.9944451100745711 -0.18221048149590555 0.27316762670176825
Ni 4.928972470851464 5.796565226986362 11.783741648388187 -0.40692104113755084 -1.0445885636981815 1.5054171534874654
Ni 1.690732218266189 3.0352731066333263 8.342906901257445 0.6813868178254524 -0.2265311577901518 0.3397841382797374
Ni 3.461200877184008 0.3539110595254844 13.099149051675543 0.018879096292690068 0.6682407673617975 -0.3550490348586079
Ni 4.72954003309335 5.896203810155735 7.503145177002224 0.305878486671228 -1.0237855109099012 0.26969715165466457
Ni 7.9666111832269175 5.3695870909517245 6.624214867169632 0.32346611784600415 0.687754411914693 -2.4398000081628175
Ni 4.689160330444913 2.893108421783084 7.201323111868062 -0.34016286177539484 1.4283197969828305 0.6330583059233936
Ni 3.0712686750878593 7.103859241931123 12.927196915061591 0.18895011421258426 -1.0408110989336206 -0.04192389392729554
Ni 5.587542495679083 8.457762083524827 13.088174102410134 -2.0894537780965177 -1.7291026142987058 2.1307287255859046
Ni 5.479912001218739 1.0057843193719145 1.6652740990189625 -0.2562610807544167 -0.9082666172042745 1.2213153963716967
Ni 2.570253472853667 1.6526998541340714 6.486979593203661 -0.1874375342227998 -0.3565814123427343 -0.841473213728809
Ni 3.246049491618167 4.9520987787243085 1.049287717633508 0.845268419105183 -1.0466315622701394 -0.8565457917912153
Ni 9.139458416225288 1.1211418503490145 7.495111251091895 -0.04665703773690674 0.01590227305255326 -0.3032942708838196
Ni 8.159220812145769 5.367422424693484 1.852546044556735 0.05202447269640718 -0.22375668036880822 0.7602793185572971
Ni 5.582701680839981 8.522857342691397 4.185858071539569 -0.9694560442294013 -0.13740669491765367 -0.5926050830043536
Ni 1.2052167571300283 8.65206143083091 0.3230887694197582 -0.5342410412431637 0.31435772778683285 1.960762608674991
Ni 6.127339018303518 2.0962554975894085 3.909782747820398 0.07741823017916345 0.4539004952108828 0.2849713042049157
Ni 5.281292455009078 0.9423148433022496 6.11509541020575 0.002625610548305156 -1.0884418134377063 -0.06592976992358968
Ni 3.471320920281603 0.5437559438183045 4.018584171455031 0.3549662453368145 -0.615295582623334 -0.7065790008203638
Ni 7.185468073228066 6.2578218122495874 13.223177121382378 0.3299010748380705 1.7928052946639899 -0.5037084198719455
Ni 6.063467663266078 4.573821066693621 0.8982004063373805 -1.9273624359479902 -0.5680145381491831 0.28477075815833536
Ni 0.7890436851607835 6.149871641337604 13.036199278180112 0.13098330788981313 -0.3001241006859541 1.1081629460157174
Ni 4.881706024073436 0.8452345851072774 11.16372186354434 -0.17998287771696744 -0.12681066456936224 -1.3068482852381946
Ni 4.251925147119121 3.2046833587761014 11.333575095912959 -2.1231606834306596 -0.6111957015223475 1.4521570086117441
P 4.600363345792548 6.2867296970906414 9.775525045580114 0.1329643428755839 -0.8637353675611189 -2.893538009653907
P 2.4308197382617105 4.499610461848891 12.345904562291855 -0.7208715061836359 1.4930696876657061 -1.0658464446356934
P 0.18517760809889305 2.150500024626067 0.450064256010704 0.2445299083604176 0.8231602743522338 0.019958445399797888
P 6.425734151876111 4.271370608991666 7.684027246952381 -0.38238731766224465 -1.5130337894924588 -0.8947660116146785
P 4.286925151767122 2.332331990318237 0.5007749882148178 -1.1085871780373295 0.46649607248770625 0.14493462786358266
P 1.931366383834097 8.662966964638247 11.689350325832143 -0.08878224904173096 0.2823148404186751 -0.29354876146128156
P 2.070060295780832 4.673477917088802 3.431931301271956 0.025240519734343627 0.5898763712192809 -0.8608408196221432
P 6.805774651197264 0.16867225622013476 11.853041109574454 3.685283774250601 1.029723216550575 -3.1411208459080355
Ni 8.689226101737152 4.174983592016105 13.078562801551291 -1.1249067411329594 -1.005973936649777 -0.3023128808071568
Ni 1.9882139905483862 6.510411877108788 1.9966123476135835 -2.186311347947215 0.4839075830959343 -0.6744998608976318
Ni 4.149208536401111 3.106241278897148 2.63903688491086 -0.1469323750199018 0.2659284286408517 0.11975812859795504
Ni 0.7488713155252665 4.329661326544782 5.8904733814197865 -0.6993130632865698 -1.693564826403412 -0.38441206140175727
Ni 0.8409299133456378 3.7652953852086766 1.7944489595971833 0.7781662261400469 0.5112738909240291 0.5283280181928386
Ni 7.454270300991807 2.815280906228383 1.5593059221071404 -0.235015284001763 -0.5024233825119347 0.26258085232485745
Ni 1.445750452955993 8.851356864395465 5.124890294364132 -1.2328740477435736 1.4759631098924064 0.2949644108618855
Ni 2.2787450834106644 1.6583718277474349 1.542222412531561 0.9575600641227636 -0.8291332041062174 1.037938405371516
Ni 1.3365946451406863 8.518756350497517 9.415552920531557 -1.8757771076715308 1.5987682528468015 1.7898811790386595
Ni 3.6283733941653113 7.8535918571532335 10.539223868293679 0.1435994539919269 1.827929906281265 1.6456500050000045
Ni 6.493185883171906 7.647135671071969 6.3887914277634374 0.2369166147895339 -0.2607036899068026 0.641666873528011
Ni 6.301060335736966 1.9332113736406984 8.98931552050343 -1.5445318601007398 -1.136628914665894 -0.9249404783155297
Ni 0.5808192316213112 4.031448865230268 10.899062642593838 0.8375455965396286 0.15323466308884579 0.22316249842823505
Ni 2.996290846759196 4.5725788953386814 5.4306160656534495 2.683562185119275 -0.3535279702283911 -1.247917058119625
Ni 5.453177916248829 4.243586158537799 9.716426003284997 0.31965600007129463 0.6880094653482925 -1.4321553686788366
Ni 7.65084391791098 0.17167995494941102 5.0226659853816455 1.1612881079754709 1.0823038188607683 1.4507956094878434
Ni 0.18038154796302014 1.3293516901078406 11.949344097311297 -0.5702876504540759 -0.5897552722603843 -1.473616978257733
Ni 6.492911874784787 7.584479086550758 2.1142907296295816 0.6717153561739594 0.514272825651353 -0.9322940904671234
Ni 6.805354505003682 6.464899084008321 4.417551343435783 0.45678424451658106 -1.2819908598748826 -1.3200431866619138
Ni 7.686574611591298 0.3061888454635485 0.5629091300779228 1.6484069989198513 -0.6535543689942164 0.44204693830640646
Ni 3.8818494194761968 7.972191820711242 6.417719406552881 -0.09840665950537245 0.7936638075550138 -0.3158620802465012
Ni 2.5594484087882745 6.926283539852202 4.149015817168837 1.854842928622025 -0.23685053743828885 -0.28281003488753875
Ni 1.8531917909890456 2.373022235805409 3.874691407043358 0.8042724363087955 0.9959877719713428 0.2870227874173057
Ni 2.276050667603994 2.3947328336781384 12.740286660594817 -0.25732963122824715 1.1325133498356237 -0.7110522061003689
P 6.614096650794618 4.5047983539783445 3.291447201196043 0.09011690869275447 -0.5864740304059514 -1.2696143405874007
P 3.9898361248397953 2.4710350358778763 9.287501494340525 -0.18215854521204758 -0.6438664522824911 -0.46459474169993537
P 8.569530104630667 7.244617350394155 5.3523464832341965 0.9775599042834582 0.15577517012251238 2.3181199799518013
P 5.002351916921933 6.6030632464066255 0.612895566778752 -0.44426734299649295 -0.9670685178338312 1.1886680426503204
P 8.65569660876669 7.352403116273866 1.2660731065478685 0.04554606406091511 -0.14211001393059397 -2.115403150972428
P 2.0877338367500076 8.8166674025862 7.482224636645689 -1.0866996339356187 0.13430594450514288 -2.0663542159645765
P 1.7620109333687455 8.708507158577426 2.8708379334393417 1.0352788562614816 0.5724301507183754 -0.4355410188670886
P 4.819131642068361 6.378056692517405 5.280333425654161 -1.0082182525992636 0.319806666716546 -0.5122547667800597
Ni 7.266035672653956 6.097654776365626 8.53628832046668 -2.7170456615887013 0.5685814663962466 1.7012341700232119
Ni 6.278829121928711 7.486073541123419 10.698944270506637 0.5500240151090334 0.7202670398304176 0.37526201947137305
Ni 8.839583637362253 7.8959535538018315 3.344076905471281 0.4648004299528382 1.4936026773510407 -1.0994055115380614
Ni 0.018312893872453332 5.647596000522664 4.010590433441479 1.1827329081128084 -0.8044189891889889 0.02190451338257518
Ni 3.6955785179126983 8.181680366276623 1.6744981346906787 0.3488346785177799 0.18033897550480554 1.288472353834168
Ni 1.6631030392316897 6.785881642292424 6.143395909788691 -1.2542319445940593 -1.1524995631495636 2.0087293663622563
Ni 4.923263962786486 5.9855031435178185 2.9726347893379224 -1.163527538828951 -0.6188280212566245 -0.14928750551563966
Ni 7.879668321994059 0.05097104017187684 9.855011225238174 0.24304432495382655 1.0997523533545188 -0.4360259289233071
Ni 5.6843039907837065 4.24552248447344 5.235135742198882 -0.9632216332839154 0.23447818055137035 0.38351860305321045
Ni 2.453854710005515 1.369274712111079 10.466127564223234 -0.1939575947295047 0.2756523407968349 0.539644214536606
Ni 5.686276851170963 8.123901131046129 8.515741344877917 -0.10222783302367555 0.19566275034606948 0.4184825207229051
Ni 3.7275918311411016 0.21323058677213655 8.728840407624237 0.3888754964897497 1.633761995313167 -0.574222723842424
Ni 8.356981798742456 3.2887856663958273 3.7484447827621485 0.9173575237619491 0.0026919450098663316 0.05103356953804759
Ni 9.026941438861321 7.726351495788073 7.6521573314465705 -0.5404726239751725 0.013121110762990306 -0.9674382424684241
Ni 7.660352008944009 3.028751707019894 6.102075445011145 -0.36088852435852037 -1.019027684509942 0.4442388037514027
Ni 7.486694626800889 3.0085664225021276 10.71882266563083 0.2975560828484617 -1.0101483797424409 1.6265207403697215
Ni 9.255455300105666 1.3714759128209353 2.3474947011001124 -0.23009624943359083 -1.8361540939632701 2.1532011956568082
Ni 2.6108249813730873 6.916720647141748 8.539322506673377 1.0391776770952554 -1.1096066204407793 -1.7582059594225659
Ni 6.266891489863227 1.9133457655745707 12.914831829912202 -0.4716958715210908 1.8716247760660543 -0.17705644809879184
Ni 8.207062676536747 3.1855484397422913 8.565938768036828 0.5247482712613801 0.822546552027635 -1.1877398744090963
Ni 8.89216584685039 8.042785514846 11.887917810448252 -1.373365295123822 -0.5290996062515403 -0.8874599648715683
Ni 2.5966770149848433 4.953697160982503 9.727574491195579 1.746269612996296 -2.001097560848612 0.3481476797530843
Ni 0.36127731833253357 5.203081327712411 8.577661760199069 0.73131661277636 0.7106639695230148 0.3971277091962128
Ni 7.286823775623385 5.413172691729454 11.037260599359888 1.6124208106332294 -0.21715074501651635 -0.503675766861797
P 6.920090950303312 0.45369121369486914 7.372553693062598 1.3232902328443017 0.2883936996229033 0.9413374316163142
P 2.1957662101781263 4.915180715366475 7.326207001103999 0.47024782622065464 1.0396849557489771 2.2897198315425533
P 7.310269759947868 0.5625720997617664 2.94405388783883 -0.9157243590339003 -0.32026972239589363 -1.0527047650474128
P 0.3693897933138368 2.1448097837868962 5.33522187240055 -0.3897291027392965 -0.893787706861809 1.2898473798048238
P 8.601744357342959 7.064100624960156 9.740742420919227 1.384248517695229 0.3992339569059382 1.6259586972186642
P 0.4194629993372538 2.0611367559736564 9.899005098512712 -0.6167703673966475 -0.3115040603881216 -0.9024574667216652
P 4.179239855629354 2.3632675372239724 4.893102946255007 -0.7343993654667416 1.4465825998477602 0.4628237658424416
P 6.068253676427757 3.9143833486401256 12.072943800572938 1.7490230073717168 0.5649042746549755 0.7378207324434648
