# total energy = -381168.3828528523 ev
CRYSTAL
PRIMVEC
9.33095295679675 0.00000000000000 0.00000000000000
0.00000000000000 9.33095295679675 0.00000000000000
0.00000000000000 0.00000000000000 13.65679283944898
PRIMCOORD
 96 1
Ni 1.3548637267836727 4.174724420254516 7.395754514425775 -0.7547599314009648 0.15727335193459366 0.9671201970073732
Ni 0.188674671763169 7.848721902193233 9.791511257475046 1.0063282346654023 -0.12396959557614136 1.2789574723651973
Ni 2.4597418880115893 8.745463822695283 11.433863516672066 -0.12653169987636273 -0.3322140392419633 -0.04790916497645298
Ni 3.1575385566300107 1.7273647070588156 1.9786920636760073 -0.7676149329867619 -0.9058893752213495 -0.21253741461422107
Ni 6.336528974527338 4.553561117711262 8.6331415411853 -0.5332462814300624 -0.530048600428371 1.1281046792449667
Ni 5.099496523987109 3.7859969124700803 5.3588298383978445 1.2710004223016498 -1.8239326121964137 0.991885319767195
Ni 6.105970453407664 6.882464380803184 0.6748555872300678 -1.7109825076592273 1.5895727023904624 -0.8169392331431865
Ni 9.25693068807445 2.4357800003497934 10.45583219861081 0.6080011058444497 -0.8462732062206135 -1.160708324212601
Ni 7.301881393462872 5.617914949455074 1.9335283842910285 -0.5973731938169583 -1.6463773700843323 -0.2788492504675778
Ni 3.0395113303706416 1.8647629920354314 10.754505744552272 0.22869139866626423 -0.308525694486088 0.6097707961503628
Ni 5.459204767508232 0.15577932956577942 0.01488753573379901 0.3474750791660919 1.0010559305228695 -1.030359050362361
Ni 4.979565783287317 0.6078248191630718 11.249687297417365 0.2154167930445451 -0.624883226311769 0.43699909146985383
Ni 9.222312851927539 5.810533815110238 11.73832785213179 -0.32863197831765983 0.8529400767178279 -1.1477497071694038
Ni 8.252808158845003 7.260321328180301 3.084359623539511 0.43393767893571067 1.3129006620798616 -0.016824527756506513
Ni 5.123775664055643 7.116941902241376 5.901564727746901 -0.1256930060251513 -0.13716218300701538 0.46556379048142404
Ni 8.626596810653373 8.5222580926494 0.775354618017208 0.397227982219503 -0.7908857305892444 0.8075513641703833
Ni 5.906474675288815 9.03212936504174 4.626675667225101 0.6186734979566312 -0.6617507887620796 1.1031374677766679
Ni 7.3243036738566785 4.963357917684302 6.623052686386078 0.7434067111716746 -1.0542194019197264 -1.5993071560694068
Ni 8.388825462757 3.3160061337952307 1.0679145234617795 -0.44677468279937893 0.8207737763979285 0.02214311175594251
Ni 5.88681435702425 1.639355157048667 3.6630662703359937 0.569825880326309 1.1331661529282742 0.0783854791884392
Ni 3.402074845552399 3.572224776048059 3.5351836913708654 -0.4573131204368576 0.4466001048947276 -0.008561002196133642
Ni 1.787754635776551 4.579165253125581 12.803448688223655 -0.01672425473321636 -0.2906215605121576 0.7225722909248267
Ni 7.305688422343718 7.3792163330816285 12.33062316598508 0.39267070186612374 0.8971576517753066 0.18956255098560257
Ni 7.195480534815106 5.167229912825496 13.11715813205383 0.3988688602570356 -0.9321855899137171 -0.8694146773340833
P 1.091721517301463 6.063300004701514 6.647143341201197 0.4389973528468053 1.801869461748787 -0.1622281248367077
Ni 2.827353448841724 2.588201119880728 6.5977602048066135 0.7688840295071726 0.38668748769949535 -0.42331130957011615
P 7.41853696961076 1.5428451087285897 1.7122476298777891 1.3545160236278027 0.1607962774861876 0.07901179991852844
Ni 8.48068869641369 0.019929982810292263 11.176200442873268 0.9066555639634128 -0.8269271975938338 0.39104319356502976
P 0.9074519885153711 1.3460832998795644 4.6704051791125645 -1.3885522872769054 0.09907591765825519 1.2039902748296878
P 1.1494987791401865 0.7302879805448781 9.916320220476079 0.10458939127731666 -1.5132667314388712 -0.028168234904099875
P 7.73532282869097 4.094674173272215 10.576817337015347 -0.620960237108279 0.6500080464038548 -0.4905145468894907
Ni 8.470088733647414 0.9989718430965353 8.753512702873268 -0.6877055609546285 -1.2122180620561187 -0.03636722577512446
Ni 6.475046973880674 9.0226771095116 1.8633325569191723 0.7208889896851326 -0.5508105155660707 1.0804703651964556
Ni 5.124718090322714 3.0779455263515363 10.439033683674078 0.17458278974731867 0.14318807748612114 -0.38117015742569194
Ni 8.184692200927904 1.0947260842123268 13.231466040391863 -0.9488435101853724 1.288220128614046 -0.00647815152517594
Ni 1.223763835176104 1.4027315163884293 12.243642820106198 -0.6163386791758676 -0.0437519482749698 0.2803633731192591
Ni 8.582069502272496 3.295953915498813 8.137290958980115 0.022567343777554684 0.2612341084889759 0.140876398633809
Ni 6.7716406503673765 6.100213255320699 4.359726428862045 -1.5445475438300238 -1.5735925249121223 -0.31482952521692875
Ni 7.096376481522295 1.7080403031072657 10.827555910489448 -1.2928262599274896 1.0863769604888776 0.12865106021221068
Ni 8.949774372634025 4.624121785350867 3.0574006337293627 0.7729121768299592 0.8726995187329422 0.27693326439178756
Ni 8.323994000344943 0.3148198272537543 3.3198028986276236 -0.4495908120919354 0.19773454527343365 -0.012554182515926765
Ni 1.8047929562089655 5.309853531560136 4.361842689034044 -0.11713020405680472 -1.076706527278649 -0.49344714715525345
Ni 3.296635075077984 4.467063182109685 8.944748721273182 1.333820185841348 -0.0894165401916202 0.037685944586548
Ni 4.28086401221438 5.2593824060295065 12.993236542696346 0.4534459241719675 0.38473987705482127 0.026151204474071092
Ni 0.6597235805240182 0.679996942409838 6.944151312007287 0.721029886138371 0.8045241473082855 -0.5591560593172886
Ni 5.384874394800339 2.1297060754735315 1.4104463484440264 -0.3360388123046922 0.2741477312268504 -0.5588066463976699
Ni 2.660683963867034 0.33245906106834133 5.62091765017531 -2.378186349116078 -0.1363761967706103 -1.0455964361374057
Ni 1.8912535679979856 9.045136713717964 0.37039685034222414 -1.0587825958103767 2.7089374306592697 0.020230468114261935
Ni 5.224643267491786 7.581278123313792 2.9521754751771523 -1.602534918978085 -2.105786196707954 0.5582785418083417
Ni 3.705760046424992 5.643537746775671 1.8650942408718774 0.16223198149144963 2.110590302964817 2.2079672356540945
Ni 8.710426093657103 5.715367424042223 8.890449105669486 0.02678935227870225 -0.38409478727165464 0.11653370812338641
Ni 2.303672365803177 6.77104346936646 9.010015006101531 -0.6330706472185678 -0.5759607895794532 -0.41569390223417435
Ni 6.85014195912855 7.728875140071694 10.075340190067147 0.17806997696497073 0.35303637530395326 -0.34163558966617935
Ni 2.665125497561354 7.74409392464194 6.913779059538772 -0.3154368197836245 -1.4770568571772174 -0.2703736088963989
Ni 7.829136231553782 7.869940489632067 5.471197841578211 -1.1747437192597445 0.4200215830752508 1.1836582481405549
Ni 5.669785717956603 3.9426356228199917 3.026754984333865 0.9668705428904123 1.3429244621354612 -1.5409837377381654
P 6.257635765734314 9.145117876605871 6.901979136198777 1.5639460029612937 -0.8270626947304337 -0.5178248046686694
Ni 6.597683690990872 2.4134883532999365 6.8150678393731265 0.10025091180296283 0.09009299743335451 0.4490704208120911
P 1.4387769883656563 4.584707839290342 1.6735717622105852 0.45788056290455337 0.9117615177314103 -0.7901797056611553
Ni 3.7675776109730457 0.16804113508617136 3.595683725335645 0.9401069016433229 -0.7552461270087637 -1.009233067017023
P 4.630942712095716 6.413863914146095 7.928587396303376 -0.7277396940583789 -0.7796888334321604 0.7170025101465329
P 5.81107501039232 4.279837607369054 0.7325227438217472 -1.040246484679402 -0.06352116048209706 0.8369853531607844
P 3.3463690553106065 3.892799002102837 11.440473563875965 -0.1072772225221249 1.0301993848560451 -0.19740981494416324
Ni 3.539771721029473 1.466415271564348 13.138995361685803 -0.04230287453326908 0.17804992236031272 0.3139424946262851
Ni 1.2521859184384994 7.0059408836959225 2.8530135699748778 -1.536117925005432 -1.3417970333992375 -0.8225254689817125
Ni 1.9856734828148532 2.398857418777469 8.829744723830956 -0.9944489667293132 -0.22904955333663135 -1.0830160144364445
Ni 7.909130492817248 0.9682636763150043 5.503783396131375 0.4719576098229098 0.3120771592827722 0.6000725950259924
Ni 2.693668883214561 7.139812068385871 0.25940236346396695 1.186891410365872 -2.9644282089065657 -0.8650018929783684
Ni 5.686441469310305 0.5915115137895834 8.971325142004618 0.43790437689294265 0.0964734470384016 -0.32358670258426847
Ni 8.987396775691797 5.912231873375782 5.061098718723457 0.05490770778147317 -0.028990473695079105 0.37035455486742674
Ni 7.459079961001143 3.527520179557535 4.584940180023511 -1.2482716132455665 -0.31414921132045254 0.14799321218424835
Ni 4.738108708900906 7.813254949310644 12.499844666643375 -1.0184939234936587 -1.5253275192581472 -1.3582042711126674
Ni 0.7495237404416042 1.6604337801904105 1.0557534922352925 -0.45826314305495264 0.8905221487366599 -2.12905210921443
Ni 5.865325171944376 2.6894046376298877 12.786773341868363 0.13764375062912423 -0.1295748575780607 -0.28040476788015584
Ni 6.87043678220659 6.785795706279738 7.802794950841458 -0.9366580238627741 2.0619681710817392 -0.09585072585273814
Ni 1.156804915448281 2.874306805038826 2.948051193889569 0.1391902691806377 -0.19626670247865555 1.0149805110237617
Ni 3.507495954120535 3.7200177428218866 0.9607186676065431 -0.8232150388495694 -1.8784793370940422 -1.3486737059144127
Ni 8.949653070243214 8.06923098678185 7.702854844147363 0.00929428081773238 -0.8674130735230223 -1.346170736986901
Ni 2.827418765513699 9.175938014825075 8.576056636069513 -0.5206496757119743 1.2541496692928982 1.814107912796508
Ni 0.18612452227019044 3.5565301128677076 5.26817589626801 1.7120163482403805 -1.1161976433947356 0.8252420965819273
Ni 3.317461762484966 5.0389293071597265 6.107495131150631 -0.2982898756906927 1.5317799597517103 1.479707407426187
Ni 4.3399942622583065 0.7215346134048738 6.894249374618156 1.7436956816215325 0.7697013832021454 0.9022240105546204
Ni 4.413419532511684 7.470034499986715 9.879611317730646 0.35115921288589846 0.6500820941748998 -0.13028139672678207
Ni 2.82281860561601 6.254435248807524 11.214904303399889 -0.0195601815201147 -0.7450786995574588 0.6766323338596024
Ni 1.030239867066426 4.398238071753997 10.216919675145496 1.3866429860693346 0.597392734200984 -0.3488950994420701
Ni 5.753521691428939 5.555948089656792 11.088250610963213 0.6351558118823707 0.3040373196974312 -0.6711121753723217
Ni 2.990243897794986 7.411258826162084 4.706035423675092 0.84587031435524 -0.7227386412993617 -1.7545457369621589
Ni 0.6887587074076676 8.191494465766475 4.868223251856962 0.22142803223563157 0.8149204029409449 0.6131821358247568
P 3.9519759069124603 1.8910669489351992 4.746281690755645 0.4852841517284868 1.1328843600217975 0.9703122215821095
Ni 8.886547834161933 3.3987157024222405 12.385209241850152 -0.20825318541657037 0.9141145913446193 0.9524903629093403
P 4.572055066833412 5.468955613538831 4.231242936514744 -0.8401285267754562 1.8450521677838483 -0.6360960643084529
Ni -0.0029336516670049567 5.907015870570897 0.38176101817061264 0.754036937192011 0.07170061096909587 1.389383267818633
P 2.9172571823391564 7.991121578052529 2.3934072090487875 1.615817237909288 0.3376912603064507 -1.7255514066123379
P 5.025259460810609 2.687463799376907 8.237518459030898 -1.15925462248521 0.15947935844697697 0.27401094853867003
P 0.3592724880095164 7.934818606809819 12.620529348356825 0.06943572619431912 -0.2555527418334824 -0.21912998023007424
Ni 1.237816250603933 0.4079511374420805 2.758194290363647 1.3512126702861826 -2.1969158629359393 1.0419264434849862
