# total energy = -381163.2720277418 ev
CRYSTAL
PRIMVEC
9.31794921595371 0.00000000000000 0.00000000000000

0.00000000000000 9.31794921595371 0.00000000000000

0.00000000000000 0.00000000000000 13.63776055028697

PRIMCOORD
 96 1
Ni 3.254414869998576 0.1649267679584949 6.389767781288726 -0.016592871361674647 -0.04434227356080105 -0.7696180794597197
Ni 6.793595583622233 9.146974089866296 0.22291702442263833 -0.4766241620606436 -0.9574381938329187 0.53088215207326
Ni 2.1333258193866342 4.38735635191483 0.4433154071931102 -0.8613208445823555 0.08376294145026864 1.5690203321604075
Ni 3.6050958858301883 7.806223706260746 9.051968280449021 0.45444839729455283 0.13152863887032187 -0.12015382137447696
Ni 5.73200163826032 9.284842465321178 10.014657786474064 2.0457882188877674 -0.7677763982652905 -0.47871524026171747
Ni 3.1766472664877314 6.371035908135377 6.736208198467358 0.799986664449248 2.4820959407175516 0.540725620526243
Ni 2.8201891221901803 6.429086731268922 1.767330754145715 0.29237093910309647 -0.29918410537018797 0.886169528194919
Ni 7.371382973809203 2.171566682651492 10.776626554719556 1.7577205351457146 -1.4618451824337857 0.728761450454674
Ni 8.154798865587033 0.9270968039053787 1.909750015959896 0.30445126730639827 -1.4759111736085484 1.6051854692270549
Ni 7.504042615695603 6.6829076658046755 0.7479573681257611 -1.5212034697874446 0.5826160901124416 0.9330286546403028
Ni 8.558331288932845 1.5971896618492538 5.340179081596999 -0.28314916339451235 1.1555478630575842 0.937211839483715
Ni 1.095073336616941 6.773552675025081 8.589074930320777 0.7992842390655848 0.018221408104033138 -1.0734021454957643
Ni 6.009909471319383 3.033188121549682 2.4198024384735635 2.360784608699863 0.21979563883853112 0.21489820153691377
Ni 5.609125842969461 2.2895505546445802 9.275054891545983 -1.1852042524714361 0.9424221800400608 -0.08513796742092433
Ni 4.969113188434848 0.8721292901418007 7.585240156284369 0.21974524521656993 -0.08252315550589659 0.2075049943966362
Ni 3.9214309411368817 0.33342137864216376 13.610880189339555 0.16061552893394918 1.2503130691556275 1.7272511629122638
Ni 4.160315203203443 8.757921759481885 11.63695093509765 1.748137776553286 1.5585631413828254 -1.0459538194768245
Ni 7.158514425737642 5.0016514668268774 5.2172893093824335 -0.4448808082107758 0.48117784286959714 0.2755011599309513
Ni 4.325196313211159 3.754369431030731 3.5195244999157573 -3.172987869819961 -0.7351082186083081 1.9420326363656555
Ni 3.4649352948872068 4.317173559002815 12.379022154752551 0.919172979704133 0.2862771675005328 -1.3166251621193004
Ni 0.7993393350608018 4.808462427336063 2.6861066294703146 2.0097827473274354 -1.1650007809403677 -1.7346896214681802
Ni 2.6882190085400377 7.638500621765754 13.420783777167843 -0.724686509054352 0.1249648696098751 1.3666439172395883
Ni 2.8874274431743947 5.367949365414801 9.548928052628026 -0.3227945457002763 -0.13584757796064992 0.1550704307460039
Ni 7.0107224344501375 2.5102089081960197 7.109896162517113 0.5215989269991211 0.5502883245140137 0.6000648817165085
P 4.794718452356612 7.896710310345795 7.092780953539313 0.9497457102846676 -0.025363675575769223 -0.43429094851007144
Ni 8.412468113117033 3.25914838816099 12.623424506298997 1.4716991924097298 0.5273350581519498 -0.004956572674326948
P 6.270905226691868 0.7149932594580982 12.039292524543548 -0.15620762967424065 -0.4147559638009373 0.21252121666430496
Ni 4.96011204956695 6.37491217497704 13.236551150389062 -0.45580722531529244 1.0149882243332455 0.2292184748143278
P 7.762149806835118 4.312654353670589 10.850133991884228 0.6137282381362139 1.5914771185020269 -0.2992288425651944
P 0.6888163449429993 7.537028155646285 10.423190221327655 1.1179915020703648 0.16725771684081517 2.015826125308038
P 3.80803150011999 2.4773351836350015 6.064835054311837 1.7061907426975391 -2.022446458838033 -1.9164488743592798
Ni 6.682152911924448 7.135377958026472 5.772509558550602 -2.960468195817553 1.559287935363992 -0.33986255692615663
Ni 1.5971244362052834 0.2707507163256962 1.0536475983365057 -1.1362640751273074 -0.005447910488448683 -0.18284528686642706
Ni 4.426091066484036 6.745077022457487 4.050823710055285 -1.499151889304044 0.5659517420828835 0.4440467423452546
Ni 5.0420075045462 9.1678742497842 4.64924849399445 0.4131441392291272 0.0549771275668279 0.6017152728357379
Ni 8.139675834135067 6.0419911702036195 3.1347481763910547 -0.8983161908597819 0.5750601321420548 -0.7619425651923329
Ni 6.466498297060444 7.9387901686557605 3.2494148584907974 0.29511302062460787 0.07032069990243374 -1.0988696936392497
Ni 7.312633304490262 4.289657655196498 8.653922265556023 -0.3613194412483519 0.07204411035144366 0.15141097961654568
Ni 5.344496087432918 6.53748243359838 10.437578066592584 -1.674275124935865 -1.6910713705575973 -1.9552445070702391
Ni 3.4022814048791887 8.721758798874937 2.4107193016532458 -1.1645027582580265 0.35002895593619715 0.7679396633160323
Ni 6.943344344228844 0.33991785278160314 6.5060026742284975 -0.35601576964725135 -1.824411094494729 -1.1712840428459181
Ni 0.8469456690048777 3.9360321674370846 11.200774008739629 0.52109293389698 -0.14674134205501826 -0.3388618835757841
Ni 8.454380248342504 6.487733903147338 6.955626332988447 1.197967979895008 -1.519154814788532 0.30660430909365904
Ni 0.30276159879647924 1.6851324658194613 8.269937967708103 -1.1051807234589417 0.748982148376923 0.3601552457369217
Ni 5.240619590435686 0.9482317761415755 2.0609244227847157 0.8632023778757845 -1.3835162675148946 0.31666966374946104
Ni 1.8436028268198128 2.123104029181578 12.923769029088922 -1.3632256355866585 0.37598449945969437 0.055992970425851954
Ni 6.804860984130812 7.584018573152298 8.36394302938789 -1.8778494168195272 0.3826644825830313 0.27825224031352724
Ni 2.147945681585114 3.597156993164092 5.279872382976998 0.8263672113253058 2.4174208691366688 -1.430222413322182
Ni 5.833418196684958 5.311361460296019 3.1101869942565905 2.768483922764335 1.1544291760721086 0.3453829725237536
Ni 1.3569170253610392 5.243992688023863 6.77804858548446 -2.0189770122321935 -0.9228090337948237 0.04469374336294884
Ni 8.647038164732418 8.750402174527027 7.744570563990215 1.506757983786076 0.6735801772968398 0.40012355859974313
Ni 1.4496399372393538 2.4228531350215445 3.5618689879812595 0.22930666365275992 0.9037959830274306 -1.4118523954554265
Ni 3.1396177366108926 6.9825915460006724 11.392807622537257 -1.9264306681623402 -3.408554141229188 -1.4178453798140678
Ni 8.5450718473086 8.0455645478351 4.84901507378221 0.8702209752854626 0.3535804207328814 0.5157707503531183
Ni 0.07877207842798681 4.997849743578324 4.699762959864685 0.42696741826546464 -0.19986676112508805 2.502844743229128
Ni 4.385408900544861 4.7444947064995 1.5773163399264247 -0.7274303903480763 0.170092615186449 -2.67180684435556
P 5.008556067138588 8.030320383044334 1.372927125571 1.377604787126466 -1.0808570591119127 -1.4340543854737626
Ni 5.705557298604942 3.610556204025414 11.280296182073274 -1.5018296932465232 1.3984168387758111 0.16875744131479326
P 7.445740207935315 1.1392683693813712 8.946384735169596 1.1000212907451894 -1.2766445079613045 -2.2300365567493077
Ni 2.4875383379417797 8.40672825644765 4.589747797974938 0.07542253990537334 0.07200477247307599 0.985685104493754
P 8.570780068982028 4.06590574253104 6.618814152654743 0.32011777019906157 -0.07994691013828813 0.7959212361306228
P 0.9360625345665501 7.826499563586363 6.409024254978579 0.37703145266697 0.16921175524339244 0.05998795051785798
P 8.014740772084576 4.508182198395195 1.3194765739271876 0.24674697061639442 -0.2148120695810107 0.37421583759504584
Ni 6.194339638619904 3.0392727423371944 4.952252359468533 -1.0239464619677978 -1.7333220516966923 -0.6682335682729459
Ni 6.706836159192628 7.4496164747769775 11.680523528859622 1.7611527007557153 1.683498443306346 2.045648865096425
Ni 2.693819095972343 2.428322771165909 1.4140723935823631 0.44694129028423024 -0.6369195886510127 1.585983185266991
Ni 0.5254093344890117 4.162355834064799 8.833123199799957 -0.06276397060109837 0.12189214422182233 -0.5147829325185522
Ni 1.5193941044909933 1.8402763189773288 6.288452788509699 -0.4442321188831833 -2.095157256239198 0.6484005927074188
Ni 1.2147251215058406 5.771826552878741 12.608436585109542 2.3107002904489624 0.6985808131062355 -2.3195543984054825
Ni 8.359001720959686 5.733455238325943 12.514199506496203 -1.6578681443327514 -0.5839342947032331 -1.1891904908126938
Ni 4.288194737181736 4.788046800773366 5.599282361499433 1.1145670497698483 -0.9939018359765914 -0.4726224971004183
Ni 0.5686613908006147 1.5431548747944506 10.672229184365476 0.11920894096270439 1.0440352622978728 -0.4676109028184398
Ni 1.8143817383211298 9.18946393793836 8.118613541902153 -0.49191682655365604 -0.03087740630514682 0.5905988512076022
Ni 6.249138497504073 4.386405921102693 13.506060715889495 0.3334152586389161 1.1234916059529876 0.3213704116592401
Ni 1.0558820425399444 7.312251268575579 3.353457214982696 -1.0719232469573927 -0.5872854705636531 -1.3026149638831372
Ni 3.659904062663496 1.5179964121202016 3.707575622251542 -0.7871794853822507 0.11165606831611093 0.9781152625662961
Ni 0.36314004562484864 0.6092662177619383 3.718758093012789 0.4668146321693896 -2.502210452079239 -1.003311816436582
Ni 3.0827130212213976 3.6162494709491053 7.567688867286883 -1.230593736349829 1.588158081431123 0.09806393145397305
Ni 4.7993960628241945 2.654413489065158 0.5323866148040034 -0.8076693778054864 -0.31815421871478755 -2.045790275770296
Ni 1.784098403620645 9.23977154533772 11.712244623112193 -0.2545304712165552 -1.0287688230571055 0.3421289843628301
Ni 0.5720382155684473 6.401813094140208 0.9614828316115938 0.3687486438328875 -1.6382254304011592 2.2757893375043903
Ni 7.2177672643100665 2.3419919723966816 0.5481507211567049 -1.2022486095482328 -0.5710661804913132 -0.32200495991944544
Ni 0.2618101441271993 2.7232917690977683 1.2416884709282383 0.4602179527884784 0.5642851530137378 -0.7646072565086897
Ni 8.382166142518273 8.831356516643275 10.453111087806649 -0.7918156986026815 0.6710327282846379 -0.3812580891538079
Ni 9.34674160144897 7.905627587671445 13.163807785053756 -0.34262469305232607 1.7903671175361422 -2.1210330955646954
Ni 2.4919457278843424 2.850164964569091 9.606861469602427 -0.383471551865359 -0.5533227404649632 0.32243510547832854
Ni 5.56385924605409 5.697981805955252 7.43402475048334 -0.38268787962179895 -0.40143430699136673 0.9059901624652719
Ni 3.516677866453912 1.9398665593707995 11.45450455916874 1.4301486226614533 -0.5853905675337854 0.10550547533368282
P 3.8061772282414066 0.7353296834531159 9.568879645323621 -1.7521571821253243 0.16973523184703027 -0.010211907535995317
Ni 8.248826290344752 6.242476163869966 9.663689777808985 0.29612449260825774 0.284774100592445 1.1194889125514977
P 2.3268782588938546 5.656153532272029 4.379384846426749 0.3773240442067244 0.4345118062716259 -0.04450245328774916
Ni 8.715422593460682 0.7956279959188933 12.56655519911623 -0.4386299422050575 0.6602484931849404 0.7448586131268526
P 9.045837069915816 8.253354813626117 1.6927321851369121 -0.23988006829323208 0.31554532033703075 0.5103948307531855
P 6.984846489692216 1.1156473683149932 3.905432022465887 -0.5699207540329605 -0.25063499281689094 -0.32479280707722774
P 4.524870645302447 4.129500745402058 9.010386932417973 1.6767516115008154 1.1829013153698724 0.655880960244864
Ni 8.401799061353325 3.0846511546422284 3.3013605613487242 -0.7021726442225521 0.17080018277643488 0.2717290944830288
