# total energy = -340872.1237396185 ev
CRYSTAL
PRIMVEC
9.19524829084819 0.00000000000000 0.00000000000000

0.00000000000000 9.19524829084819 0.00000000000000

0.00000000000000 0.00000000000000 13.45817534359648

PRIMCOORD
 96 1
Ni 2.567754694522926 0.47385597156091214 0.8471104096788005 0.6285856148640206 -0.3324588082629178 0.31043396725239436
Ni 8.82269361040951 3.9263894103831665 2.229346569325324 0.4167364845660758 0.296027047798445 -0.9872959006242997
Ni 4.206072082375837 8.861699853656253 12.186000957448464 0.3255178581687104 1.3848915505958668 1.301214741101501
Ni 5.311166217132254 9.161593681390634 6.280930204703473 -0.8099633160459856 1.8006613003732987 -2.0815553491850474
Ni 4.72594383495506 6.741100888234181 5.751297696064276 -0.034353537779205356 -0.4594311952211249 -2.248286246988115
Ni 5.970152881092891 6.99146910867791 1.6780187918703873 0.988717720672491 0.9708135866985603 0.845284359944783
Ni 4.742734358332842 6.386035570759004 12.508081999782107 -1.248990493689462 -1.4916545524857343 1.5068019496501341
Ni 0.5136364547136835 5.785153680743714 3.869400020055412 1.087140063907147 -1.0925537787235506 1.426071624378602
Ni 6.564129139642291 4.541330835034069 2.6043315531714155 -0.4410465220663501 0.9238652429734799 -0.5978385634891511
Ni 7.666335966435606 7.761782643687181 9.522211089783395 -0.20238798488504497 0.777978278498957 0.7247111916447003
Ni 1.0705291964338082 0.20047848132078525 5.881182417212056 0.7375883047176846 -0.2591980518955536 0.9893111312821155
Ni 0.656967387436124 0.09251155399736526 12.92205575590319 -0.3701316402233432 -0.00444749424839234 0.28006975313824023
Ni 5.18257066979475 0.6321586075493466 1.4953515064875886 -0.38774215421625485 -0.4864105520234461 -0.48679441772542614
Ni 6.557977518536193 7.867794661224119 13.072087266054648 0.3608928952338946 0.8401110432739597 -0.2167285698774332
Ni 7.472435765741581 4.808416016869258 0.36467986908733974 -0.9862553751749272 0.8757992407041884 -0.7512670877563578
Ni 8.705159946765038 2.1173714332722353 6.826632329254507 0.03308161304531722 0.5227068153513192 1.4644301695521424
Ni 9.141594016359596 8.117555995280698 4.006970129724085 -0.8395022060453671 0.15387306800379308 -0.3187064916738318
Ni 2.1907219288826223 7.481585037790263 12.956616096601653 -0.15009766012176085 2.6444274239013428 -1.884125479636226
Ni 1.9159035432354314 7.197102446190144 2.2023226541254535 0.33870787449642314 0.6760710620394937 -0.8086913913120977
Ni 6.036772454954901 0.5583042123326601 9.644720302277658 0.6716410512925981 -1.1391215991807608 0.39403261521065686
Ni 9.038303792316539 3.301590679565242 8.951341570662269 0.9691513685047889 2.015860320980083 -0.04188224205608271
Ni 9.157832824839971 5.9760286447502855 9.108115956384882 -0.3543664069692865 -0.5542367676388004 -0.3019791516168218
Ni 1.9160874482012344 5.909381485143405 10.827721178172224 -0.1256241004604288 0.10075484802257487 0.39774708794776664
Ni 4.327927512716673 8.44236894588134 3.344935240955268 -0.014400491696046167 -0.8696447910670184 0.002929000721336891
P 3.4605949129982134 7.632046885561702 10.625970074488084 0.00890424446816531 0.46641739673097093 0.19826522096592306
P 3.8305749231999857 7.004599923236219 7.68094445739414 -2.5857286245085533 0.24972842184222152 0.6368969629431935
P 8.56172326868726 2.396116189939312 10.789216995482121 0.2697190060315355 -0.05873788016084077 1.8973694891303259
P 1.21220038683988 2.5490239737559257 5.640738628247867 0.8515449961425142 -0.2956573231638521 0.4293896545537121
P 4.376404861702252 4.336157259936342 0.15235331034471866 0.30643281651280124 -0.7452566198962197 -1.1837952879390516
P 2.236891270547378 1.5955870690486653 12.10852179535581 0.5877014750551491 1.8039584830673319 1.5552808710871278
P 1.6635675396576148 4.691434068122192 8.957990654700863 0.9931263912631477 -1.6895443923901097 1.0118067412814704
P 5.9673207446195295 6.43913812963452 3.844247337882584 0.3685367849323976 -0.18635381424031777 -0.1519624812446415
Ni 3.7658219847408723 3.951474047718648 11.554382110973748 0.392293263922047 1.1774986562970624 0.05600968259640031
Ni 5.858623714581873 7.495525034198104 7.580639930470887 2.0586758734837125 -1.871556384721964 3.0192279303552647
Ni 6.913907189350642 3.6656397546198787 7.764303980768335 1.3777076312529175 0.7015478661543595 -0.46079053746249676
Ni 2.612783825399705 5.667316573905666 0.36726373385686695 -0.3465422829391773 -3.387324799536766 0.5969931847697203
Ni 5.690525380589961 7.588443018169893 10.770308806423122 -0.7925914004264415 2.0059757148765196 -1.8133946887795673
Ni 8.8129190614771 5.164308906690547 11.425102437163458 -0.6964773936099876 0.140544469215687 0.9593230695604575
Ni 1.7227849386460683 5.7224328921567205 7.0515858029491385 0.9328067684374839 2.1482315103563585 0.9306580975255972
Ni 8.645280489899694 2.155255856227581 12.974784987698126 0.18120980814553309 0.7717451531050514 -0.7214757154265381
Ni 6.454540170520492 2.386019807316747 5.826017364145064 0.7823455543287171 -0.9083864306115903 -1.2407897030462245
Ni 4.327973488958124 5.4475041635300485 2.014675222268719 0.7839972309995272 1.0520383351080076 -0.9444710921492896
Ni 5.094388238692379 5.212721888938095 7.609669329322835 -0.8862266066850996 0.3474102873664275 0.7458510589471089
Ni 3.139018689795699 3.7508797062694073 7.488559633618329 -0.20805701024536424 -0.36706302860034845 0.6496876869499585
Ni 4.216094903012082 2.0887558205933425 13.043959921059963 0.10092325527963909 -0.050460984864029224 0.8653574765455742
Ni 1.764301484676017 7.580774181095923 8.910213983634993 0.3458113183104238 -0.27272822517150447 0.13446766689398776
Ni 0.31793490487962206 1.6530021993722528 1.7835443807727769 0.5548615457069929 -0.18511608517847472 0.8640428714992086
Ni 8.592564131452365 7.843932991911225 7.48631231493622 1.5661975179996317 0.07078195580956842 -0.9541813774585179
Ni 6.571871538702582 3.2213621382338355 12.190778808460017 -0.6511177345282657 -0.4555287748429252 0.1280028851052505
Ni 8.671808781216725 1.0567271287503193 9.004798146596954 -1.9449665221829988 -1.173388747893747 0.5369525266370558
Ni 4.751846849388363 1.613462631724683 4.270197904901563 -0.09203932252644793 0.0456188262803795 -0.6637768180531729
Ni 1.630951993972515 3.2324516076717353 0.6415368412804527 0.9058623786381559 -0.0541083518086294 -0.698627607183771
Ni 7.113867058667863 7.524480871063731 5.488768759756847 -0.07508238295713522 -1.8668147562719204 -0.8724717189928521
Ni 7.984482362025901 0.3688094550944382 5.855975483074315 -2.839880372229451 -1.7704629224130477 0.2154535598197515
Ni 8.88510176055464 6.837669385777152 0.14480860912266497 0.18667314525294948 3.2534651985404226 -1.7623829736183905
Ni 6.715354193021811 8.969109548933291 3.4744162907031115 0.40342948304452453 0.4121606922699353 0.12647719248934347
P 6.275701786525705 0.9634689205917953 12.809033281069855 -0.2806495369011102 0.33693561308734876 -0.15646833953479503
P 6.7926954263901145 6.16860472969053 11.695141132749438 1.705705061310372 -1.4675949404333692 2.3849660910420734
P 4.980266012163545 3.903704732851409 9.305183920114857 -1.1481014340818678 -1.1742392688195002 0.5802948981784328
P 4.073586945011608 7.733167031008288 1.0446730777667848 -0.9841748384968148 0.9266098955981525 -0.8471226987051023
P 4.499915436735312 3.342831368146486 5.822774200073134 -0.1344635531289297 -0.8472093448816377 1.3592915906395753
P 7.034695970889823 2.04622779725148 3.326941979101137 -0.931743617280292 0.33485867595366203 0.10468915007997454
P 2.6357259698835858 2.019681115437867 2.3707924761482873 0.1808089731626886 0.26022443627753894 0.47136317077202045
P 0.45897714030264875 6.936803357593072 5.789599583291993 0.1557646285995511 0.3310135911759589 -0.6826808540465275
Ni 4.538986046720085 3.0550936586516597 1.8815877961414862 -0.2675150564016812 -0.6824695093666697 0.5982699945996148
Ni 8.266923608505612 6.504626687956843 2.2935827348305318 -0.930863528668184 0.26295109118008264 0.5255728240452044
Ni 8.900871611372217 1.4569135295851767 4.208398480193241 0.8543868364666835 1.5404913714827793 -1.4583999041976625
Ni 1.5429258820910763 3.5070676978565434 11.186422296821318 -2.107972148615679 -0.1224331043269569 1.015751327751515
Ni 1.9110576473865317 0.08236643655886206 3.489718103382721 -0.023350244690166236 1.4960184858813848 -1.8072032152568747
Ni 2.0400118094073503 0.0066214982937244276 10.883559323414053 -0.8480225848115525 -0.9190909615132881 -2.0345134173048964
Ni 3.62618294420692 9.158016729805773 8.674708962527435 0.4297030720290729 -0.3785825992041738 0.5734598775344705
Ni 4.131425056756541 5.795020182159027 9.983988183190387 0.5411603940708164 -0.9769029874257498 -1.1674417862816926
Ni 7.564498591622388 0.4549431848777676 1.0999043366214656 0.7513920433699963 -2.482625587968776 -0.02063413131058382
Ni 8.014799095638468 9.153685767861122 11.402089489267745 -0.8526541700462928 0.9768369100745048 0.354553326169112
Ni 4.744223988555843 4.318677092936801 4.011154887220924 0.2542124257555041 0.18870663074321048 -0.6012092797335968
Ni 6.706407216435512 2.8439155864204757 9.813970800880325 0.9381708609628746 -0.6008439259743781 0.5775065368000183
Ni 6.381640242076322 4.735102302252032 5.779828712458899 -0.6074143801030442 2.03749641119262 0.42431609668554665
Ni 2.292724818165062 2.265157463791245 9.44323861936842 0.581876897953572 -1.0256698724168078 -1.0932515761215236
Ni 5.134268030526684 1.938551439774028 7.75065731278095 0.12012656768096731 0.6188555320604504 1.594250824592422
Ni 0.1598897358433113 4.254291964409292 6.419899831161905 -1.1635730473549055 1.0134237080596031 -0.3023627602084857
Ni 1.4160498461838278 3.396724718374953 3.68713640607255 0.4421361555861031 0.25043804631473643 -0.5314465092171622
Ni 2.6091241165802326 7.3753431390460715 4.962392288537185 -1.7516085087107058 -1.5946532022371636 -0.35500404055328544
Ni 3.1206833647051746 1.4273600015806909 6.779475417923392 -1.3329364976848141 0.5532139828012408 -0.3397340017680923
Ni 2.931077344962642 4.87930218593789 5.292346302456839 -0.8358723226022636 0.1584743142212303 -0.32232274827018037
Ni 4.71700605361705 1.9823576026282193 10.757603731860648 -1.1706811191545967 0.0902025264280253 -0.7092879151110946
Ni 6.649746096471715 5.590922451111245 9.689361393676595 0.1942224183551171 -1.5286149317601674 -1.3447607440132519
Ni 7.861357987421026 4.1511948405803265 4.403138207056154 2.3648706058437785 -1.7246211814885848 -0.8262823649209834
Ni 6.873475682618929 2.5644076241453178 1.2113093672805662 -0.47327041509706236 0.9500218467641897 -0.04808322866047203
P 7.58550973396534 5.864232816038855 7.531262366677704 -0.9417086989128041 -0.782915053678942 -0.3494458297392175
P 0.3655249124052029 8.707918521252077 1.6567014477593731 -0.33083849905067536 -1.1077250871473503 -0.10302796032746772
P 6.906560185966826 0.08632866904708016 7.826587995061548 0.6350552817487645 1.758288748944359 -0.6352095479384415
P 1.3640783028479988 0.44594747347553093 8.487627038440543 2.1207600444089674 0.1319418151483405 -1.0915657037786684
P 0.37395235746310934 7.568443353138854 11.048071510572813 -0.32393482995230666 -0.14488449135193757 0.3450767541372444
P 3.194052250812142 0.13615588048165025 5.127550901650743 1.9539574128276993 0.48202219314776334 0.301729497499861
P 2.647054515777029 5.423716056203475 3.1365221798849277 -1.8404576064346303 -1.3163145728574168 2.528893360687064
P 0.3763385243943987 4.993194531259471 0.35009712482401856 1.6245469044728023 -2.424952401627024 0.08019167915924254
