# total energy = -340897.18001902546 ev
CRYSTAL
PRIMVEC
9.02865452677621 0.00000000000000 0.00000000000000

0.00000000000000 9.02865452677621 0.00000000000000

0.00000000000000 0.00000000000000 13.21434853032913

PRIMCOORD
 96 1
Ni 6.421467861449102 1.9140656848389108 11.414382312060296 0.26719264006525595 0.6994966400522856 0.032296912360492765
Ni 4.4678205561198405 0.43586189822533294 6.179386164925478 -0.5077144557075449 -0.3858832466306451 -0.7050026574721794
Ni 2.59950306266428 1.646104253604169 4.752064262535308 -0.20910910565896243 -0.33485636196081686 0.9057392227967305
Ni 3.3593907239210883 4.315976647952251 4.706858693275924 0.2711094586211589 0.3967276455443168 0.00714715256774253
Ni 5.235445774119403 4.721769515867123 2.6740815529869058 -1.196500651320862 -1.063756137765568 -1.2352314922321566
Ni 7.413247479976476 5.925325249864765 2.520254049467644 0.008153482345069829 1.0840683669603588 0.2456300834031318
Ni 5.105378980144953 4.376522803747938 11.444233751801912 0.23680117225759217 0.7703863250843119 0.3020647693520927
Ni 5.832691256655141 7.9842105498189175 12.299650895705218 -1.030479120879993 -0.8858391414386937 0.07621521100999777
Ni 2.0033139326826865 6.495710485831435 0.26056606049029707 -0.2588542954028897 0.22460103064697445 0.1911401798853676
Ni 2.6868462644488713 1.4852497484362672 0.32215231726237226 0.9199653936984414 -0.09927209282946128 1.05032006686532
Ni 0.4006158375341309 -0.0006058227041292219 4.78934267331145 0.3264984769144248 0.43009490815085283 0.12410303583021205
Ni 8.526489584921888 2.469002893283002 1.524446748253057 0.8032527367950296 -0.5154524477817509 -0.14493179965010525
Ni 6.637017954420504 0.8601887877055765 4.996397705443579 -0.10833137481825213 -0.38168283539605236 -1.0905686299727217
Ni 0.8222892055129799 7.1456471949140905 2.384212092071545 0.06230734267965399 0.5831922743308859 0.013191044768977282
Ni 7.519659199661528 3.8079432986430537 3.807938784315899 1.5846084164066516 -0.038789204953055774 -0.0035373237292971337
Ni 7.6545563236912555 3.860029605351272 12.726302663670012 0.07495511335065155 -0.4012443024677477 -0.8292468468659461
Ni 7.790256997954478 8.757677307156358 6.8583129801286775 0.525254007253205 -0.04938137864660528 0.09825804974265014
Ni 7.009477030626805 0.5703139095976301 0.49521536878680966 -0.4505963705383143 0.3216434628149687 0.15382781658815442
Ni 1.845565284597057 6.53129241246293 9.204308584241382 0.0349924569147849 -0.34925531099496626 -0.21400654296057983
Ni 0.30196244049674237 4.8764303641790985 1.2980053895887929 -0.3279789181146932 0.004319710421276432 -0.05234637481220017
Ni 6.0545252930255575 2.203975774698662 6.908896918759891 0.4939433700653816 -0.47362548444363595 0.9228054342503978
Ni 3.373123307124971 4.241878482038861 0.3710442860760916 0.5104213131157468 -0.02512661986429866 -0.3906475007885079
Ni 5.943915249086853 5.5590056585885375 4.672223872481437 0.11785088427291315 1.0367109607223177 1.3146739519302004
Ni 5.31362489178043 2.9922675824113654 9.202854970897645 0.010252788076259761 -0.3602056393588829 0.3759107087989655
P 0.23046542988975438 5.50960989086438 12.298422095853773 0.2242217929306848 0.604708808246423 0.47756724270020334
P 4.0470581793607625 6.096255733241434 12.506693287721314 0.18251130056577602 0.16383403587124687 0.03784432454128321
P 2.386210133270111 8.477861252813991 1.3087612254670216 0.6255666255320388 -0.22855075932334187 0.9014467660689636
P 6.0888432080538015 7.810047808199653 5.861963959655554 0.8313327828606972 -0.8575089270354328 -1.2338379543187397
P 4.817066962097882 0.9102418414634242 12.620020053741577 0.0625683096505245 0.7796348402657735 0.8151173494430994
P 4.057188329495383 6.0400072168967975 8.141928500479898 -0.27911253143129355 0.2707991264695917 0.3747488272803804
P 4.48715993364957 1.179765229893611 3.829319540584877 1.7654374441739982 -0.8037281337695512 0.9124474880548415
P 0.3014839218183691 5.419377519700931 3.5976198936510917 -0.39755579787256695 0.7427564791821852 -0.7738200333562093
Ni 1.4037300286809355 1.1009631350852673 2.5823874426908406 -0.23304607609053413 0.04942894405508907 -0.03670918249557548
Ni 1.6693530384496644 6.547182844046648 4.876345494828596 1.1720610302212588 1.0489090454504062 -0.94062112227558
Ni 5.924332097890783 5.424632196508727 9.145570867903775 0.3396710097406408 0.8164270693934584 -0.04739288746166676
Ni 8.637533004267421 2.237508196802029 10.009828870106386 0.012724132434887764 0.2739361294366766 0.7649767240329663
Ni 2.4484897906931122 5.303702400694916 6.829598247964556 -1.3485636626991098 -0.8969085118789779 1.3723162850340174
Ni 0.5388472436001462 9.03533551311889 9.203278414784734 -0.01745316247944091 -0.33098170949675904 -0.06791440445378626
Ni 1.3996400482789901 1.160209164660468 11.517454332516474 0.1133735652278499 -0.6432306184707051 -0.8175910077945725
Ni 4.231314956497412 6.876656497088131 1.4935254129758326 -0.4609147217451868 0.37663858810392553 0.20313206213992113
Ni 5.742142882590879 7.90932689098065 7.94262908239914 -1.3808744590166733 -0.8504435355482192 1.0753325297492577
Ni 5.40866050703623 3.038241490152438 4.62114967792125 -0.7849652513397515 -0.11375383138540408 0.4748696412633822
Ni 0.78625674903147 7.53829434215516 7.036495278646278 -0.07020088649511781 -0.5071511270049073 -0.06875001298120419
Ni 5.029574398567174 4.60135435334892 6.784193145444945 -0.3215737859192978 -0.52459220529949 0.31428445134673616
Ni 8.241265366648472 6.950583118569652 9.045604704529866 -0.5915635291137167 0.7976837273476843 0.30964926656756997
Ni 4.58135588405464 0.4237030094674965 10.440604024494068 -0.0419460054144826 -0.8944212266807499 -0.6670292635521996
Ni 8.018546522155779 7.147452925775878 4.700925061664096 -0.099877330513628 -0.5920348123231803 0.3754844198948243
Ni 7.230417230220638 5.904505173028372 6.951315342434107 0.30080955678875293 0.4549752163323003 -0.29025003610535177
Ni 2.5180916867606555 5.212368533705777 2.4192432707901945 -0.5709013727786749 -0.013133194947848347 0.8631805234989134
Ni 2.285305892713506 5.2109239490163475 11.394111177405886 -0.25807268004185874 -0.056828836063586005 0.37534352344158584
Ni 1.0697059338677508 3.326553508199509 3.7696572900460343 -0.5660126772278058 0.2456259696380738 -0.010272585570601664
Ni 3.594343395002381 2.7744964404799664 2.7930376849687857 -0.04176834218603774 0.6072824825108702 -1.4736794560645523
Ni 1.1819411355820633 3.3281606086664985 8.274203703298312 -0.21060908724325664 0.5273764529128466 -0.4925092087220163
Ni 3.5099345058681917 2.7054182063623413 7.335588412803643 0.2505822852020846 0.460095311167685 -0.45895759801881597
Ni 3.985148696764428 6.817229894426752 6.090044019076889 1.1356693789661023 1.2435592953715615 -1.614200785351788
Ni 0.8241518168969122 7.58252571961461 11.448673141125614 -0.20972437064545815 -0.7619219963670426 -0.05093689605918324
P 0.3808205129618012 5.4698838119050865 7.861281809941109 -0.6316007475412606 0.13893418730577362 0.30114045776561044
P 8.462088193736289 1.5000477128486038 7.897278151805383 0.8249772729563147 0.8138032586173661 0.1996183925597078
P 1.811364742074829 3.1483910727213873 10.550586576958302 -0.5199580489615884 0.5826690548375643 -0.41106591654385977
P 3.9688971190083535 6.1889258410682935 3.746809377451856 -0.15695479225291034 1.0142572597044919 0.26861600277534387
P 7.004908531546486 3.8865196770936734 10.402453445711682 0.07117379193134839 0.1607109168612329 0.09023157989374782
P 6.369047494531453 7.73318687406773 10.123155636126649 0.1725395340650448 -0.4540491049736051 -0.1298247688053377
P 2.3263772411648302 8.580435794417747 5.762830238208931 0.16705485680138973 -0.36872293280127466 0.030610782907321474
P 6.96317809133061 3.982476215088985 1.6118730136572907 -0.5560691928618489 -0.25545992500936004 -0.7244761928157588
Ni 5.199927048068071 2.7163609353847646 0.6150581146218267 0.09238950677701509 0.13544108655085063 -0.714975452414175
Ni 1.5619301094820122 1.144011758830247 7.017360851569363 -0.9530855732911779 0.4187429734731434 0.033190627819355736
Ni 6.780997904685015 0.7112349517822757 9.029205959708557 0.08508834512991152 0.3358459795675958 1.0202697844471589
Ni 2.524014483987314 1.547276603538618 9.294998708178294 1.0523638367682262 -1.1003629903553243 -0.043144396597957956
Ni 6.33211126975362 2.0008942533278935 2.5563153976429427 0.306942152049052 -0.5985029365460273 0.8390813164578647
Ni 4.12802715120325 6.798152347871982 10.229570967273423 0.5794829438000988 0.5034664790644683 0.7196630876978315
Ni 8.070298768654569 7.106119746349594 0.1820673284667336 0.6858893336814961 0.32329385393419807 0.39415397127986956
Ni 7.673958901801147 3.8041783497962296 8.274838417696229 0.43046874655050377 -0.44341836473263635 -0.761940508309804
Ni 3.2016149898725312 8.375900659703241 12.320146843851921 0.5206561034698775 -0.5771113582441286 0.49743441393777554
Ni 0.12187058159280273 4.9186573803819655 10.121371574035203 -0.12473527009757227 -1.0367904078100016 0.2242685870082202
Ni 8.546822114425598 2.417295790055758 5.832297607327272 0.8676879244509637 -0.666973984834232 0.21441766235606943
Ni 3.730188527734546 2.5242221430364196 11.502310570644106 -0.4666999609683962 0.03782118461283163 -0.08389278215991358
Ni 1.1522729775229181 3.2569245261690383 12.77712495877498 -0.4390122652451407 0.7558413373906016 -0.8929191882139267
Ni 3.037997716486097 8.251404545437401 7.874020338305578 0.6459873552802359 0.3359634789820665 1.107278486528235
Ni 5.813911655692565 7.902040766953344 3.6581145861172173 -1.0015120442236816 -0.1091304736807798 -0.4148433813084211
Ni 3.0189021126227096 8.462792428772385 3.6430105503238077 0.45161401316955124 -1.1292249088923392 -0.2638543197206424
Ni 3.361476343066451 4.352046121916428 9.474978611768805 0.30165982060419017 -0.18173765562454508 -0.9125369624448543
Ni 7.21013887264278 6.029488834626894 11.352301285032091 0.1705916663100546 -0.3554706957770588 -0.4738643399273194
Ni 0.5412326140685656 9.051496804331874 0.36988139540110127 -0.5057506471129548 -0.15481203487829467 0.0856241630287235
Ni 4.648167925940723 0.3422464902923275 1.8631964407315358 -0.31553555014501783 -0.207008771486508 -1.409995544752346
Ni 6.057748522613846 5.604961509020993 0.36150912426043025 -0.7136292227989258 0.1246285693163789 -0.2949484700222856
Ni 7.877356426072728 8.956136157520953 11.324273633460878 0.4533484793621547 -0.3928295960414912 -0.3614140578446872
Ni 0.18698523646880794 4.884447809205429 5.679169824516952 -0.820467043790787 -0.8474973084357018 0.9189960878066366
Ni 8.08386883608089 8.716542758124872 2.7206757292790025 -0.675479965422714 0.36239673347293067 -0.5335198468064231
P 8.322008622133236 1.6481989014038407 3.683486007590742 0.3687959521310552 -0.32218056626536123 -0.2638746314356165
P 1.7752591534934166 3.18516478172166 1.6358567309635332 0.425620417319267 -0.5690686904453102 -0.043311518303441536
P 4.695604475679843 1.0867249472400844 8.31164011552486 -0.6494241488759267 -0.3914874801913 -0.3485857957317674
P 8.549052192039905 1.6980551304977538 12.457747146981742 -0.8851089481408886 0.04544373415509593 0.47415153215043504
P 6.309684092450237 7.646791680985576 1.4406418760921351 0.7272802379234572 0.31169046536731476 0.16208619994220472
P 1.871838668636044 3.373908800049848 5.955481858122024 -0.5519258601174366 -1.2289891108668705 0.523508228206692
P 6.979041436951401 3.873437157000034 5.993499715686067 -0.32647533698597325 2.0962335200225124 -0.16180466414604391
P 2.4686146611477175 8.356164021383918 10.247184968964715 -0.39797617323943724 1.3182925225193942 -0.6106220884070646
