# total energy = -340894.5219148572 ev
CRYSTAL
PRIMVEC
8.99472234687329 0.00000000000000 0.00000000000000
0.00000000000000 8.99472234687329 0.00000000000000
0.00000000000000 0.00000000000000 13.16468535512387
PRIMCOORD
 96 1
Ni 6.072193182066229 2.0762517734331545 11.210440950234025 0.9694688997452077 0.7078606957462649 0.19860126414910315
Ni 4.466779147800998 0.09336162070583012 5.858047730449372 0.08603296843136796 0.19323691451339625 -0.4146718887275633
Ni 2.6130298225739526 1.71004064531481 4.741538234780726 1.4234768670682325 -1.2601480529681781 -0.36521286276548715
Ni 3.514696775639122 4.432806081266072 5.131502625834054 -1.522819408124313 -0.7348930172737086 -1.1422046089814586
Ni 5.110396509703738 4.526162305138458 2.492785675007404 0.20542831437326553 0.13297719839139033 0.1692384947162698
Ni 7.046096750789856 6.200026176928387 2.4883494779157895 0.887195398356272 -0.6437620654941429 -0.11819464076557709
Ni 5.133539930459461 4.670203789779789 11.394219319529315 -0.9891031290363675 -0.6325155460460462 0.5582029513753999
Ni 5.673079359379508 7.66422306938839 12.057429885253349 0.23809752247151253 0.6539120094439513 1.4687753338947156
Ni 1.8913742490596108 6.633688728384145 0.4693877899157583 0.49540169977846293 -1.4443282565959448 -0.56508528031753
Ni 2.624489098921714 1.5830801385262254 0.3069556958390786 0.8418318826198082 -0.2157047565986092 1.0971341990053813
Ni 0.4919573473818522 0.13673237321260995 4.658784989682863 -0.020833391805583475 0.015364655381528378 0.05352882515607555
Ni 8.650089618914626 2.3703702014515695 1.4777096639335061 0.06967175346452517 0.6230713699140108 -0.6151665132446373
Ni 6.910969036054829 0.641294924577 4.878279602715744 -0.8559670364696097 0.20757107174788125 -0.6365076979245747
Ni 0.9494109396067076 7.3978533599985825 2.6084110326174565 -0.9758529488946805 -0.11314782237028902 0.11819001277988678
Ni 7.323529968741475 3.981468900278641 3.6784897712161286 2.1347093075002075 -0.7208044003911264 -0.24393495508889604
Ni 7.707154879441661 3.827659147102247 12.47172230200353 0.4064471868249258 -0.6430537265732087 -0.07989265986158499
Ni 7.868646125554466 8.766526300485879 6.982996974153421 0.20364653988249443 -0.27015917889274765 0.23536906779675593
Ni 6.811991110677458 0.9536294644160485 0.2752340083228688 0.3910843312156103 -0.7549609916681772 -0.22405338567362057
Ni 1.6595712578836552 6.371069818238464 9.437421057563046 1.4399111013648556 0.5494941107474923 -0.593853610699474
Ni 0.19528171978284964 4.870075516407429 1.4369779629812267 -0.16068263472645877 -0.17117222140387295 0.15576025772417693
Ni 6.220066418453358 2.025224713212705 6.9346161612653985 -0.966832233453309 -0.9313780064107572 -1.2668792010444248
Ni 3.5266507617193223 4.273455579086365 0.5583303035025496 -0.8871149228273237 1.2610762212094022 -0.3501022323762938
Ni 5.999434872508109 5.5169579625442635 4.798079959309506 -0.2791683243698934 1.5656776409404196 0.3933661852712516
Ni 5.01136461599192 2.8776995294286527 9.094941605045907 0.518353680588946 -0.5875618641534913 0.4314930740499601
P 0.30311674831535435 5.5252960702164575 12.219329491763474 1.2503866027060402 -0.612222600124965 0.3925969112053948
P 4.016215512940653 6.30925808585085 12.614335424726475 -0.7621037733605456 -1.0953909910620296 0.6275034375434354
P 2.5406133124673356 8.460417907497632 1.4909795779019936 0.12646228009100802 0.5475107617688764 0.033855515096864276
P 6.40957622486701 7.628496031983909 5.76877870843917 0.101578886585767 -0.666919991667845 -1.0799072936041338
P 4.728813400990162 1.1479064737059272 12.593443382989467 -0.7939204036505102 -0.8093850749450126 0.09861851840586242
P 3.891485697309246 6.137980581758167 8.245503407114892 -0.03964666785734462 0.010326835847304795 -0.5107329308188946
P 4.773930928588571 1.0143168565026641 3.84561531144529 0.2503866242515107 0.2996353339749936 -0.7431336600159459
P 0.2389061234615344 5.387056181528271 3.657729052426278 -0.23994948807858676 1.4328261694936162 -1.0588869825987248
Ni 1.4947969380919386 1.1223974409569066 2.4855845002475774 -0.16838643112861967 -0.03191793175451923 0.6586747209399173
Ni 1.857194303909301 6.467951973294776 4.734547536525247 -0.45215548749531803 0.4884486654993976 0.2326604106163412
Ni 5.74897682705801 5.5149701288921005 9.300573551903614 0.9203418032012536 1.1008193611664527 -1.6460438980043133
Ni 8.507820094587666 2.1658841822286377 10.348627813214115 -0.16030571100301425 1.058411842734519 -0.7345006669312963
Ni 2.2760965158935704 5.25821577775642 7.084799242366896 -1.3886620733818924 -1.0849425420351961 0.4765107764112309
Ni 0.742590789918906 -0.2591478467684441 8.875591807043794 -0.004043059721122069 1.3288859817645244 0.6906433034267139
Ni 1.4456317854099405 0.9972448733723251 11.29132419254327 0.27437527385662425 0.288625098907419 0.21419371927072142
Ni 4.362377404811618 6.853870538208995 1.6832894414012478 -0.15493853315382994 0.24516471373093904 -0.5614847074504653
Ni 5.529226763908744 7.727500941528503 7.639782609661437 -0.5254851494274048 -0.05270864324762536 2.277580110856226
Ni 5.141563222847376 2.9881457258761928 4.664090076959087 1.48020465877758 -0.7861767551493493 0.443389825487546
Ni 0.818863337521822 7.363592462346601 6.867199817345376 -0.018788850571728934 -0.4236558373937285 -0.1869402828714071
Ni 5.00918789316919 4.423352628015289 7.070555199961624 0.9121762366713257 0.79286445158217 0.02709094267952109
Ni 8.281225047685929 7.005485579117843 9.220229992938847 -1.5606143674848993 -0.05852807814287985 -0.61892263785296
Ni 4.66024663207416 0.2605087482687709 10.486724685816016 -1.1550634672219977 0.31288782810952565 -0.5023709320074444
Ni 8.191403749719878 7.202811799304025 4.544054606952403 -0.25917388352583753 -0.7306658665662384 0.18323815142947153
Ni 7.220801244119978 5.852910844482176 7.116262781349996 -0.06847876159768851 0.2197915250734731 -0.13758975746273724
Ni 2.4336300841468663 5.332539169013527 2.6753407620552077 -0.11240348800509674 -0.7165325124886498 -0.7347582914680572
Ni 2.5490953356980572 5.118446786258876 11.453908297428644 -1.2658864981138522 0.14062314497242234 0.44919331954320063
Ni 1.3063934825344685 3.413011438816951 3.7802263779560255 -1.583007390468119 0.27485092794146215 0.3284861967684149
Ni 3.6470181369828603 2.734881327034806 2.7666506865797786 0.2903641930857129 -0.651549936969678 -0.35832307762418936
Ni 0.8190054541358681 3.18683014914598 8.176099229542706 0.8377762244931959 0.5695021784383031 -0.3275040353608037
Ni 3.5138782558999964 2.677333093068574 7.005600711564665 0.378259154426484 0.9003519903428882 0.027626503468016934
Ni 3.8340004263998706 6.495295929415023 5.970303665045396 2.0072234712406916 2.6351925355666355 0.5257252904626688
Ni 0.4751570048682342 7.481270415610155 11.299894364053587 1.2243400421306334 0.35057120159291233 0.21549264058780307
P 0.24888127061198004 5.403039803247244 8.045847553825043 -0.41348223929483624 0.5426500912424654 -0.3814943735343301
P 8.46397082284878 1.4829508886806337 8.095530802517741 0.12031785775616696 -0.21168226570277737 0.13947000520458563
P 1.761517441655658 3.106624209434056 10.446704467406208 -0.11884692963759534 -0.07237244022513986 -0.2875035837084661
P 4.142015700538608 6.073992126547824 3.739968698874646 -0.12371634191475465 0.64007304667833 0.47591428047781265
P 6.838507552336172 3.980920222211754 10.35031252472113 0.733744248381246 -0.5968623156188108 -0.1253713610196744
P 6.255181814734097 7.756922678524994 9.963297503145377 0.4744757482590732 -0.7189629763070134 -0.7423145065487603
P 2.3093589993582664 8.569955636981966 5.606655133341084 0.2985852954439245 -1.7546251840498424 0.661035764972926
P 6.995195616683118 4.037380094766621 1.420522118335834 0.36031953922892784 -0.07864258950456779 0.5552176434948309
Ni 5.341488917809464 2.931245111923335 0.49650597850356576 0.21946653763388657 -0.10313054734360302 -0.21099141028333984
Ni 1.6469966359573045 1.1056852467228866 6.867556008352731 -1.6731669794733506 0.45655335945269765 1.0639286587876904
Ni 6.583228335675399 0.84628644719926 9.10079986775022 -0.3158530813854367 -0.29426558502264805 -0.8243344971659933
Ni 2.636676947784522 1.571485941342344 9.141097123610196 0.42153519150629987 -0.6302594030220178 0.35665880254788895
Ni 6.432746629789957 2.018514650296355 2.5643881627360985 -0.37686253118927354 -0.20210259243414225 0.4382026248596517
Ni 4.0098652389206215 6.703154969540946 10.418650827687971 -0.053119505532798844 1.3377765993859347 -0.3886965477097241
Ni 8.24135144325137 6.916482800890918 0.30482034873942504 0.060598073298031116 0.2721888077282667 0.5948743386545045
Ni 7.302068561076044 3.4565369005491475 8.266593332744874 1.0334875686890137 1.081579281989918 0.6782223040545416
Ni 3.1065612463772005 8.4530512298455 12.504383938011372 1.261265197291757 -0.44551072848529083 -0.7631026469387051
Ni 0.054579076099359 4.60161903141897 10.11904831741741 -0.03869021748134627 -0.14863290265077628 0.69751791905936
Ni 8.44966021949769 2.2232165428570783 5.8490700980139705 1.112939284358438 0.7775473616091254 0.24678013784717495
Ni 3.6329144122471533 2.8273200892215784 11.61485986019697 -0.1571908195231164 -0.39906529253855794 -0.5954667208228648
Ni 1.2888627685613228 3.4132812804891897 12.649103624722265 -1.1749229251500861 0.15951561100155107 -0.12272441031513057
Ni 2.957410759408138 8.277096470100666 7.969729715447545 1.0626881015123697 -0.5428832902991941 -0.10478736622073566
Ni 5.725410654349114 7.9257716075675235 3.60670289167807 -0.4516628641296157 -0.3040581456330376 0.26233016976663204
Ni 3.1783661153600744 8.345456360401286 3.6293587984792803 0.662706982027762 -0.12737836414737416 -0.37032061630569774
Ni 3.1997015969117943 4.281442892584648 9.240595843414988 -0.10404380318649177 0.037701885426147975 -0.2528240300484097
Ni 7.384918949175912 6.088761460741721 11.276211259953389 -0.6783138353270834 -0.4286584328146424 -0.3916705427363835
Ni 0.684509168913881 -0.22681361865625116 0.301344788000983 -0.44491526099313694 1.486767399596762 0.03746405838372903
Ni 4.796372760996472 0.31390411889924025 1.5902939058974221 -0.7868997493583029 0.3688085505365455 -0.13087249334356169
Ni 6.005866099029812 5.574847995961998 0.2252467380127817 0.03770831318405119 0.5303301362245317 0.6349974319276355
Ni 7.691944803849773 9.054177523092958 11.071145081135143 0.34967671480310103 -0.6717194699390173 0.6944361948102427
Ni 0.11995721592173426 5.012084193784557 5.814130998292428 -0.018189783535149318 -1.4045082963855295 -0.23305533206191476
Ni 7.944939361018921 8.943785294979866 2.371539515364606 0.4500770076997345 -0.5139563228521987 0.2253340521582571
P 8.440989307096402 1.7256015150806088 3.6324925597662197 -0.00822624456453422 0.3038753401982702 -0.44369038744710043
P 1.8963303411064056 3.2350868348647728 1.6717699004133526 -0.5048247928645757 0.1009844475348777 -0.9411502553061726
P 4.428047873112253 1.0573925821144623 7.890543777256685 1.4265488211253368 -1.40491735889849 1.2905348927901517
P 8.697509795449475 1.6004489474960275 12.48163538556936 -0.33134834880755837 -0.291010311310144 0.37130200638236055
P 6.507258910217631 7.811502654096593 1.1483813950490682 -1.227178540020693 0.4757553863024452 0.24752884308774145
P 1.7680296206790327 3.2169264903230688 6.007270175197697 -1.4443796786591705 0.9508955076183946 -0.13787849234774965
P 7.02007501886358 3.8991132219112106 5.867408538059353 -1.269911303002529 0.10107495036615496 1.2802893038027434
P 2.566554091891939 8.434719985578043 10.263583612318941 -1.3636406116368904 -0.34221923008379124 -0.46967009934031373
