# total energy = -340893.66239282076 ev
CRYSTAL
PRIMVEC
9.05321480432364 0.00000000000000 0.00000000000000

0.00000000000000 9.05321480432364 0.00000000000000

0.00000000000000 0.00000000000000 13.25029497910847

PRIMCOORD
 96 1
Ni 6.5574609094114225 1.874296156880562 11.347036245856568 -0.5920813492903997 -1.0710596134055166 1.0793593915204636
Ni 4.534882143870579 0.32384345946930787 5.937484070977563 0.20256204856906407 0.5736611949119991 -0.8539970572274325
Ni 2.3590958207036326 1.7101975815965849 4.650376723726603 1.6828456402136953 0.3303489610087666 1.3841713846003905
Ni 3.2878923082965414 4.29178521440322 4.6473955000235785 -0.4582155776464689 -0.7407911279256985 1.457571494759096
Ni 5.203353433830764 4.458138040224862 2.9302495759062803 0.02100951237213156 -0.43126578853050246 -1.1347414678351941
Ni 7.0224702452211 6.199686905403507 2.6147205891028005 1.0978085993645867 -1.1120759079168783 -0.22175096279268908
Ni 5.046660388425541 4.683119486455807 11.289410721670452 0.49979648641204893 0.3322911723368019 0.5643980244425183
Ni 5.55287090574892 7.869950755587887 12.374092707889629 -0.16068160628519423 0.37109477546756087 0.3579199286484997
Ni 1.8449999531059318 6.397689770902561 0.3889306434672459 1.0242056291664552 1.056492257114303 0.4443617024825121
Ni 2.629307129128043 1.5446595451259062 0.32322512488407695 0.403970186039343 -0.15511593927195866 0.8123899232096073
Ni 0.4939651386999047 9.150627604216746 4.787543794996744 -0.0014195060553459423 -0.1247131586103852 0.35079591600920873
Ni 8.43220067382751 2.2800974665202505 1.455333283258316 0.8597997799521386 0.530554593530512 -0.41532957691622024
Ni 6.780839936585474 1.0495844822656895 4.8178738759255975 -0.4665503227644094 -0.7378973513176711 -0.2479890705536116
Ni 0.5752765893185211 7.323806506852303 2.4377764070401393 0.2637309067689006 1.2736615140735807 -0.2745989598316561
Ni 7.710505532819409 3.830424324242856 3.698012001496334 -1.0657166039260484 0.4403960329665448 0.23637256936060583
Ni 7.600852992609792 3.779490936592649 12.664791441883258 0.2967384720431728 -0.04997170393243652 0.22344506266566033
Ni 8.040087825284001 8.970187975838451 6.817607758708436 0.11692168759042444 -0.6226242550742631 -0.055218811263988775
Ni 6.782007801321854 0.7643466475665164 0.3716670677633391 -0.730899065622967 -0.48908604197308037 0.032939945261130366
Ni 2.092107456823032 6.550535199928236 9.411791129559461 -0.22880015632998657 -0.5666780787259467 -0.8756660575604339
Ni -0.009514023654746307 4.9973837391222915 1.4091157153071832 0.07060377836049131 -1.3311778631224944 0.08457669560081563
Ni 6.384897578092439 1.7008093976304874 7.133852854819263 0.8936642939100673 0.8430600985999545 -0.39112392620429415
Ni 3.2212063265277133 4.304903322953726 0.41197288631248363 0.5850478394823859 -0.745115209222349 0.011634241804818672
Ni 5.927782645772094 5.692706864804216 4.827440408227405 1.5814901824926442 -0.040819862229839375 0.6954700353913958
Ni 5.65235668550152 2.6177371203443665 9.264553261911415 -0.5376271841065773 1.0091019407557977 0.00215638422137048
P 0.32694690157497636 5.730223387808564 12.406648974389613 -1.009274718888236 -0.9579578137818147 -0.8736181738924697
P 3.9679155006103812 6.148128845917561 12.694684252527091 -0.09581653018069304 0.23658057160635382 -0.5847503628466253
P 2.1858987643339005 8.443752576181163 1.327599662029325 1.203663230507572 0.23836157476617653 0.5515419944154565
P 6.352631919794299 7.870367203478379 5.614851931676686 -0.3318671974255059 0.1493435555645557 1.2538221107501504
P 4.642859839303217 1.0480907017889238 12.58131446223408 0.7580008069357655 -0.34678756618076406 0.423455034236832
P 4.192435232875781 6.118696843917769 8.181766113593977 0.001558859846687638 -0.1743670741920868 0.37140973560481844
P 4.669467238219669 1.3889261405118174 3.9259963991463294 -1.025586311564066 -0.07089277035581984 -0.17227213933627103
P 0.13433613093629562 5.652157514771285 3.6029677290279847 -0.5108910536633137 -1.6783112426784514 -0.811169420538945
Ni 1.3767224066773918 0.9875065869373086 2.6945400698876534 -1.2899396824083138 0.7801302918449532 -2.2666002148059543
Ni 1.7519872220859836 6.573213503530044 4.635138352220589 1.5845328259737097 0.22264442114123592 0.16930714317067616
Ni 6.250946208794099 5.653234847357559 9.27855858553297 -0.5827096782675126 -0.07401228982140802 0.1622237539613335
Ni 8.857040894634702 2.4757102832564795 10.36598460122189 0.06486456188386894 -1.159822579173538 -0.3124705380664489
Ni 2.3782705300962985 5.236506307199953 7.221530526233405 0.19830173063081333 -0.2773065885708063 -0.746375049771379
Ni 0.9665393409725237 8.852713457859588 8.89245888239957 -1.2256870430768312 -0.08811196244758372 0.5073377890944166
Ni 1.6349382052126227 0.955123236844029 11.586747272909925 -1.2154892766082228 1.249136789459339 -1.5502034565642204
Ni 3.959215360985097 6.753662185123348 1.773777405295241 0.5004410619745832 1.3184233916703036 -0.8339622500637444
Ni 5.81171137611989 7.961433493271026 7.980971236585622 -0.8830543796047049 -0.0007826438022954264 -0.5811580175096765
Ni 5.382181589937152 3.248682834085193 5.2281692014965975 0.3436024835845631 -1.1587853961582752 -0.8555998829381781
Ni 0.8129986250340269 7.267079061595245 6.985687937954119 -0.33733182008450296 0.281642754052315 -0.4081451433526391
Ni 5.220119988030583 4.2940032520808415 7.318310300019305 0.8999534693528887 1.1473763829903851 0.3297853751958127
Ni 8.076789558937385 7.288200212215212 8.985992173282634 1.0495466790344052 -0.12647333583460155 0.5660638421807155
Ni 4.798584190702296 9.441869531111015 10.284428713797984 -0.35338116023788174 -0.23844025052291193 0.4047091210878966
Ni 8.141565312338956 7.238380370011322 4.631534267324829 -0.05022778580730059 0.12673584546736882 0.4020811965467463
Ni 7.294591782012768 6.116388274090041 7.0013237455991035 0.14087716996475735 -0.02561718634747201 -0.4535353985619802
Ni 2.5240182385535834 5.1299952325990485 2.539895767039352 -1.9630151521545933 0.21297733036511704 0.27503321915559725
Ni 2.4109888491449745 4.9942603799436 11.482957594741238 -0.06896444298485542 1.0483855688467687 -0.6166821785582153
Ni 0.9471111415595581 3.381565924012271 3.6394322684480884 0.47112637217086606 0.6809381603238079 -0.19569000403957912
Ni 3.3742328198536025 2.9046516104635214 2.586259091752157 0.6975225470450503 -1.5194934290748734 -0.12937096909737075
Ni 1.0785819299449666 3.2361079184353283 8.18334227832734 1.3090802598925069 1.0091423070754297 0.36831001363357213
Ni 3.592560153051682 2.6773797008348685 6.96809210925932 -0.58921894014094 -0.08128234112026002 -0.2933536147313399
Ni 4.174265430349303 6.931793243673912 5.792525802869211 -0.4987485047635088 0.3961033816967565 1.2835124387257313
Ni 0.8659961457066739 7.625695014599158 11.320336504147008 1.1390398381002318 -1.1701866960166816 -0.374152074236646
P 0.3091537127929434 5.534764475727517 8.170834356468553 0.13346493666108628 0.020438213249693832 0.5681919442673118
P 8.7935054316896 1.5700719196609456 8.104781194428975 -1.5030849058098628 -0.4672368073084727 0.8945842346211754
P 1.9453095754245056 3.1562495088259297 10.493544400722676 -0.4113680211653109 -0.4254666653502221 -0.7671135678703112
P 4.055496302623909 6.085607343053656 3.8435532966513755 -0.7585577078805 0.9710930656121921 -0.9405851268313221
P 6.946169749110907 3.785909666035236 10.591636890685129 0.3031109512284199 2.2673399211854566 -1.4241402116838442
P 6.31289735911233 7.884680336410298 10.234289293104215 1.019336216889296 -2.113164491449896 0.7797986195371472
P 2.376595685319319 8.325608120291507 5.784363424215562 -0.35569078220766487 1.2191114467418425 -0.501358174472214
P 6.930552953217446 3.994577218816897 1.4982772086615788 -0.41042674029796417 0.5487886000400355 0.6937103723878117
Ni 5.300666441980796 2.9527422886003682 0.4184459350451353 -0.6336918257423344 0.02334587381479205 -0.6783572869705091
Ni 1.5338228467580963 1.1203172511443011 7.005113421402582 0.4596780211246083 -0.10444489527965238 -1.280288275361479
Ni 7.20339874720997 0.5222338025708204 9.326816748147513 0.7414609002992134 1.234078866684952 -0.4416569019568394
Ni 2.863740131830161 1.4793858648987477 9.24439989997609 -0.4990446958476889 0.9593636929904059 -0.19871130736440615
Ni 6.11625247586488 2.1351011749088538 2.5292428489362595 0.5195258465201762 -0.609973141969156 0.46232651449104895
Ni 4.2814826557210415 6.870828893791848 10.437813714438299 0.013112883232874191 0.4135840549800232 -0.2540455611603367
Ni 8.110413199487132 7.052870941227035 0.4657163919020125 -0.7690858611053335 -0.14799655461835803 0.695036547398403
Ni 7.830750334591548 3.844483967154475 8.306848953467835 -1.0224058569535552 -0.17943523274361353 -0.2967161034456696
Ni 3.099168988183456 8.342166450546083 12.364062650979271 0.5957096900716062 -0.62030666268468 0.7793183374666192
Ni -0.0023963860133327125 4.831691797996431 10.330870801481383 0.48409115986165013 0.9635504773782437 0.010935930186213425
Ni 8.520523839471913 2.439787126094016 6.047819223598987 1.0362404488438024 0.125736457668577 -0.7535952216689021
Ni 3.88467118858698 2.7325680995401056 11.457569663886728 -0.5404026899691854 -0.8949981822301425 0.012443882190307601
Ni 0.9635517800189922 3.283528658661383 12.567096388059774 -0.2902731760338033 -0.09054319759689566 0.09077768220520495
Ni 3.222175020533858 8.46717324341385 7.771722467400273 0.13553596025750206 -1.0639942219183032 1.2138393997096255
Ni 5.622725512771494 7.922097274049528 3.4164026953734505 -1.8043382350042538 0.40542080244294043 1.9485812361174508
Ni 3.0182604056328155 8.74913562492215 3.6175026657276663 1.2854482222958636 -1.506206225047664 0.25278134973593236
Ni 3.5910392129298843 4.012068030217573 9.232686850395245 -0.21657790323218185 0.8538132233514006 -0.09783716015514764
Ni 7.320719360533653 6.049322057290763 11.680108552707784 -0.5442040659931466 0.11677307782770212 -1.253111200726055
Ni 0.28293198083594734 -0.0793052581722449 0.3398432063577208 1.2994566207598137 0.6565785005325209 1.0180689201410984
Ni 4.411722206864995 0.33107064101235095 1.5556908876164461 0.18137667274070055 -0.05979666044265831 -0.024395141014912823
Ni 5.896358936469949 5.681960698586514 0.4433812051491106 -0.29537655869863966 -0.42541395773541574 -0.2824598506369716
Ni 7.965525546455863 8.47285866244057 11.758511205343464 -2.199411118553967 0.28876316714718014 -1.3360403334211184
Ni 9.294302126436579 5.069909044573022 5.738398440963228 -0.3110194074422192 -0.879301340320176 0.5188064518556484
Ni 7.599884298603647 8.867017537576496 2.6106393997759767 1.1779789383675905 0.5708286105592104 -0.24422368997390845
P 8.45467075348407 1.6848576327816311 3.594168909359084 -0.06775885271252846 -0.5305203978584669 0.21450790807703055
P 1.540513172651005 3.1084304271394037 1.4369280971415594 0.14652742627199924 0.31932175666032747 0.4329380340266028
P 4.701443193637467 1.0720817215672829 8.112639385058264 -0.6902103296543532 -0.6530401483619592 -0.2675137708501006
P 8.49196094611315 1.4098390671865382 12.291384346194862 0.5341371686754478 1.337685325223709 0.5502345884579427
P 6.060376032818831 7.772013075602117 1.328699627653125 0.8536191050627234 0.27378751967395426 -0.4468052789269983
P 1.661925839159524 3.351735580552009 5.901588978781632 0.6900416652869729 -0.3121545494879269 0.7163458503991406
P 7.264616587112335 4.1807565855119755 5.973736765166415 -1.838531335946195 0.03422575395208945 0.4517988754868477
P 2.657073339565865 8.58679337335025 10.154337635380207 -0.13750465394809866 -1.0111966185012973 0.9072967970918373
