# total energy = -381170.7232872436 ev
CRYSTAL
PRIMVEC
9.22363127004837 0.00000000000000 0.00000000000000
0.00000000000000 9.22363127004837 0.00000000000000
0.00000000000000 0.00000000000000 13.49971670265008
PRIMCOORD
 96 1
Ni 4.427306100137333 2.9098066178231172 9.381925353475175 0.7736989343973126 0.46338246655938903 0.05783439450996491
Ni 2.4976117613888196 6.5436313933733405 0.40596521589555856 -0.6305563654371463 0.07723311075155086 -1.9523934107746892
Ni 0.35482663721783747 1.5937051236098407 1.2393479692220624 0.7219153740671179 0.32607887287850296 0.6736596243845236
Ni 6.234095552627775 4.34409049910016 1.257800765878565 1.5760224745098537 -0.26581684276365186 0.4527141882122655
Ni 2.5539035828397023 5.016437874627062 3.2992901270579216 1.8956216532012837 0.6854622734464066 0.4368031734089639
Ni 0.9001194147922944 7.469462602607137 11.98244332386993 0.9535164901810096 1.08515080139126 -0.8789778955424863
Ni 9.240049302484973 0.11432690920591473 13.043966139348257 -2.6034815776166 2.6290527412174853 -1.8046737639668016
Ni 1.2047907124224755 7.099309057359653 5.31937420722121 0.2691106830235752 0.6328983833067616 0.2927956853453409
Ni 7.854650666773995 6.5382171218361185 10.859968908438836 1.1999155905396819 -0.7930858235643568 -0.2305809023794932
Ni 0.6207909663540595 8.08811922069252 1.0204490632084722 0.9670775166948957 -1.9613323651355319 3.0164940763638692
Ni 2.9341016625063263 4.468461942725215 8.67205624606851 -1.8296790277618875 0.4365684316903385 -0.3076908572896185
Ni 6.72395338409344 1.2034901804177933 5.568511865888344 2.007546658908065 -0.9863919007527916 -0.8004710602848344
Ni 4.9734742003163595 5.5033164732025694 9.107354454029954 -0.5475161610855152 0.06902229280598435 -1.627124692502307
Ni 2.9744827200701422 1.5585999831146644 10.474066012850965 -0.8383230981356015 -0.49844331481826415 1.001307127301727
Ni 8.764976951895232 8.886590529779863 4.886559923152396 -0.13510530047798666 -0.13912213494686362 -0.11756652026327495
Ni 6.3413848311984236 6.362811326566342 6.791801493123517 -0.24959292470562175 -1.3754239774250636 -0.5941361749368994
Ni 3.2204031761611542 8.735931737124 3.9817143197132996 -0.15776571818997992 -0.8617417341698578 0.5262734496566549
Ni 1.2560003130607358 1.2925258927666998 4.0083355641949545 0.22063664668258776 -0.3405133031362781 -1.4266627209953817
Ni 4.701616893181617 8.92473946858387 1.289674868350762 1.6665677289892782 -1.8088898589306783 -0.8204295056846322
Ni 2.704377902870787 0.767585057520831 5.827719885142086 -1.2301975293526748 -0.04279395523707469 -0.10733867188767966
Ni 3.4167097198182326 8.621115975462425 12.82336731809734 -0.42017430660303123 0.24890309772744876 -0.11340596112768213
Ni 1.5595500171322692 3.3702410656367565 10.310139026657975 -0.6321095688568791 0.5559095273555329 -0.5376937756784547
Ni 6.504163475302174 4.62024601839222 10.622805367846016 -0.5623971919624057 -1.4016376597059539 -0.042709365943068386
Ni 1.0955368003979447 2.5780049312668956 12.545435327428672 -1.733190154104518 -0.9710280167022116 0.02488802149093133
P 7.210435366525675 2.3533633924439785 0.855422620171807 0.4687784407639798 -0.7185423438298271 -0.3280606791952221
Ni 8.639803052352395 1.0036325387337466 10.892246083596172 0.2896864502923978 0.4327323457736999 0.1461165639868258
P 3.683346451671769 1.5771487055360516 3.622540585092578 0.9246581711884204 0.2311470592956084 -0.9934824890509858
Ni 4.811461117605437 5.951022309906555 12.860735015335413 -0.6616091209778927 0.29563289768381984 0.3052549941546162
P 0.27967802406218845 8.7642575086586 7.685266980340082 -0.8378896101426087 -1.2031556947435345 -0.997459985641495
P 7.984999023441843 3.019595500459503 4.612029607684626 1.767328490549124 -1.3525169909199029 -0.731758842520101
P 0.9247704916413245 8.571640417497074 3.1540741991961223 -0.061146232492017276 -0.5066217368639985 0.15397256969613485
Ni 7.147696226838815 5.368144157396787 12.767073651920208 -0.5377896778263707 -1.4244022070959792 0.563207603678843
Ni 6.282030764176233 1.8680620348103194 10.287756040730585 0.10386922528184046 -0.47067848600017004 0.9459304503036353
Ni 5.935240676856831 8.291693985765836 12.653432980878469 -0.6783323472698446 -1.0792915143970057 0.13894781415252844
Ni 7.421822547258322 8.33776602380404 6.855344933454406 2.9728858527556157 0.3215645299479172 -1.1846311535767857
Ni 4.715867403445687 3.6655909615369255 3.201052920185109 -0.04603534499250782 -1.1432045110008828 0.12136712495628778
Ni 7.883354607189388 3.1388662760094577 11.949314807549245 -0.008057065976521607 -0.37942823503392076 0.3943815139096434
Ni 9.147849884621133 5.989770784741089 7.814742781492733 -0.12579585015160272 1.395885330603209 0.31746747706040807
Ni 3.1203544481130256 6.792715554979289 11.338573909793068 0.39082567823758496 -1.8213244851496053 -0.2983400122023378
Ni 8.184561508926246 2.6848238046443615 9.12364892097656 -0.12753725832274163 0.477202660271933 1.9575775260787898
Ni 5.3427607242273885 8.594847073694096 7.3797415744571815 -2.0619923394514554 -0.9262563689134757 1.3808844863190024
Ni 0.5410074785008734 2.5344786154506216 5.764756611216121 -0.9127315949541636 0.36549002768627376 -0.6330166540521808
Ni 2.2404569224488515 8.42397008136261 10.015007730818166 -0.9797967640337772 0.823220438166208 -0.22502012046226408
Ni 1.1687170906472164 5.907892610233553 9.936601331108944 0.18022918939981866 0.5971191688246232 0.35682875246685
Ni 3.2497158762383145 0.7198324738709028 8.182475123540012 2.0538655965792625 -0.9904804689998683 0.15169971450155809
Ni 5.413902591972869 5.876089529721895 2.9065700456213945 1.1075708209576731 0.6209018730665177 0.8887475733347403
Ni 8.046677445536233 0.9948885363192885 2.887454069878816 1.1881821041528375 1.40143402833558 2.064971219574121
Ni 3.461776382051399 7.1456946988599785 2.2708552439228273 0.16214662086649492 -0.29190556943090373 0.7782014502533566
Ni 0.5280888605876984 3.5135301769327536 7.853716312929496 0.28437300849928443 1.9635255161321086 0.2972154116795913
Ni 2.4139718733146576 2.5816390419750137 7.033230963164318 1.7039471980790009 1.4640025950964206 1.359171005901311
Ni 5.893614429075767 1.2600771580683208 12.759554547734274 0.06033196412083802 1.1753648977835112 -0.887175086641298
Ni 7.316608585716421 4.719759775828495 8.318539364486593 -0.4138846169395775 0.41283303574661157 0.32543738263976213
Ni 4.020350266246719 4.714723673172066 1.1602562537117922 -1.8766852213080971 0.37745079959257577 0.6833933067325197
Ni 5.205190264299497 1.8982417562239342 1.3927388014508806 -1.1349625827070646 1.8693853452125742 0.7480184989120731
Ni 4.113038536566222 5.684791417827529 6.264273429315141 -0.3720229437087851 -0.9557960302438055 0.3440030614570914
Ni 7.14618355131564 0.14723774782936164 1.0551769571859784 -0.012383975486649641 -0.36844242544637834 -1.6793494541349787
P 8.897289942016963 4.517070479354111 10.495475905682651 -1.0359401439945641 -0.76515978657805 -0.08213980402454885
Ni 7.513450099985354 2.9160971343280333 6.867913053380504 0.38603828415127067 -0.055596506318381665 0.5540899576482909
P 4.14722131393751 4.550690615219828 11.12265977084838 0.33183891529073173 -0.043392250942705914 -1.0317433323043972
Ni 0.6756549696891642 3.60816463344366 3.1966919873353663 -0.5821484064474038 -0.5085521211174919 0.24346110077627103
P 4.393547609803033 3.7873982356775717 7.209604317351053 0.6061236863160787 -1.6148253063096643 -0.07003813566500841
P 1.3714893998027493 4.99101754693271 1.2765763896284288 0.018492659487548798 -0.8875826064923616 0.5355898419615744
P 6.07950749306415 6.733140120807364 0.9513991150279704 1.047354556479093 0.7678545598013936 0.328274337867925
Ni 7.998216487007158 7.371839689574833 12.951007616633454 0.6235069147895326 1.4632325496996155 1.5862644639528358
Ni 3.434400644534404 7.94698843910642 6.245360373459818 -0.2914466275166142 -0.7577287842213015 0.4007593924115292
Ni 2.750698978952441 3.1461437210569336 4.6836049860983335 -0.42407081344396 0.45884164126624205 0.4176800794262678
Ni 5.491906841360075 6.8718358637464 10.840893516673708 -0.4040280358604719 0.2855014656767728 0.591728079716039
Ni 6.154421825986331 3.717704478036596 5.054010336478639 -1.5556007163203918 1.6520456241137031 0.6520165921934512
Ni 5.09731067332956 3.487833140301235 12.887315675839616 -0.018414755061761837 -0.08378942381282989 -1.4445218606639896
Ni 2.182652425474792 6.470561786698935 7.759246037054642 -0.24521793556637766 0.9138685367720841 -0.20884479625398225
Ni 7.855794397047616 4.747956416525749 3.2246774068772512 -1.3428954086697389 0.41943177201005183 0.7774797415959835
Ni 2.5740572170966547 4.202701455839373 12.620155964094836 1.3199511411687395 1.142764852360303 0.16010336518422105
Ni 4.625060753898915 -0.07168698435169744 10.636400077929 0.6765829686789058 -0.3899805566284703 -0.43620024971764226
Ni 8.987045097602502 8.158569316095083 9.743919674528746 1.0403359590694148 -0.02965356120037474 -0.8462760344340908
Ni 6.670917504469882 7.223864973609484 8.956562841084253 0.8391705337375612 0.7874630780609405 -0.8383758057504077
Ni 0.7464555630788052 6.3380551003211885 3.024314310201314 -0.05710754364626939 1.1765766587034252 0.853102570437621
Ni 5.656760802492573 8.168604626882983 5.095940964090587 0.517126235939748 -0.3977797409579149 -0.856939427685208
Ni 2.6816047573419928 2.9238818790936474 2.0207859985005667 -0.27712943956299363 -0.648543031822554 -0.49493555877532175
Ni 5.816615555493598 0.6040122587674133 3.2973467079558896 -1.5954738983662458 0.7246978219082616 0.8264579712668992
Ni 1.63364344687419 4.91131614939755 6.045996196047052 -0.007715109256070584 -0.7918246974637461 -0.09540978166057762
Ni 5.665587817588181 1.4762606270451848 7.827284152888239 -0.8858049457666487 2.4404494688213583 -0.06303342221240112
Ni 1.1223314491468903 1.1683481453976614 8.655735030591313 -1.3323559425909957 0.7871121224794251 0.7169865693069329
Ni 8.779725538246202 3.8018147713039405 0.7120938472614825 0.13709096344944777 -0.06366077138375488 0.48348849328064475
Ni 2.713472403272322 0.4178959829030496 1.9014488128056926 -1.8889108168400113 0.4916172930353663 -0.38991113684311557
Ni 8.481322620405964 6.069260038757754 1.4100321876606563 -1.549300742244293 0.1976746385697757 -1.4108324388313445
Ni 4.682966710816602 1.897181038631463 5.617313176410133 -1.3413794862458446 0.7631404421551761 0.35867583297791783
Ni 7.109270579097642 7.98280379920699 2.8951760939520064 0.4042697195576328 -2.2634398148001016 0.5283413879292772
Ni 8.3553831594703 5.159404158829698 5.801395641586323 0.5669709273760171 -0.9868102192371327 -0.40109389293281245
P 3.7260703115702603 7.4832611549405 8.803570469724955 1.5699397586508834 0.5801131211849299 -0.15524629420223587
Ni 0.41500345214653683 5.364805202888312 12.588161954416535 -0.21266005623501438 -1.0052748537002234 -0.34750953194845313
P 7.069959462757537 6.374488443714764 4.676248217822203 -0.2942753552146609 0.7705796720420407 -0.9822367409338374
Ni 7.498932104415357 0.5712425417019212 8.620999757708814 1.0655448542348744 -0.961431374152712 0.3363254903071756
P 6.956296655000822 8.809112027373272 10.612464754864108 -0.7115409728113294 0.12065235827745026 0.3354621138656158
P 4.068230136007744 6.715024909054205 4.421022040174284 -1.059914652532291 -0.012663197289965287 -0.6922247889812208
P 1.671856951096869 0.5688563883004231 12.000113956597374 1.9807555068571499 -0.004914663692797987 -1.1767607496897732
Ni 3.1947153631608742 1.7989585895686322 13.336856092797015 0.4906711270720131 -0.027301001807798143 -0.24742779873350293
