# total energy = -340891.6438720938 ev
CRYSTAL
PRIMVEC
9.06215100532774 0.00000000000000 0.00000000000000

0.00000000000000 9.06215100532774 0.00000000000000

0.00000000000000 0.00000000000000 13.26337401256206

PRIMCOORD
 96 1
Ni 6.680654132573596 1.777087855461558 11.440309823352788 -1.2538249389636278 0.8371810141113581 1.0741431374268466
Ni 4.75047935644752 0.49411017074910385 5.945042162721369 -0.9527222764144881 -1.2162120137068602 -0.7274440171948311
Ni 2.565857498191665 1.5025046733071203 4.666811232821208 1.6929009675671685 -0.8775401346546952 0.4362611848625648
Ni 3.12305292848697 4.207801492416618 4.786022019771874 0.5220622397887847 -0.19378378815580177 -0.5425030241416399
Ni 4.7875254306603034 4.476593959937501 2.595456296526742 1.1341010060377177 -0.026872913131444045 0.45998141129764003
Ni 7.4584313858663 6.192041062758317 2.5862255892877153 -1.6577282763207775 -0.24276073227513673 0.3195899227200496
Ni 5.00727353574489 4.587560001702554 11.699463786829465 0.7058866027390295 0.8998822497953212 -0.4834697242275674
Ni 5.629870511439818 7.866146631685122 12.74719074435464 -0.8167276313530127 0.3925997394188723 -1.6735212774889758
Ni 1.84534397849744 6.479655618376058 0.306421238057513 -1.2588164786409481 0.2199085102673116 0.12712871003041332
Ni 2.79440495211691 1.5999137368377492 0.3292950139676125 0.01057726129521404 1.1458681738759748 0.3978540458392761
Ni 0.8783018844149062 -0.18817285156707095 4.858997711166371 -1.0285047707624417 -0.03820170788070195 -0.2876480797061304
Ni 8.471842695343152 2.5410000173781464 1.6079319282427078 -0.02826130883853843 -0.3865733307191342 -0.18511017164120377
Ni 6.865938876544872 0.6119045434631123 4.766658015031689 -1.402268094201101 -0.24975438998415048 0.14776181289973261
Ni 0.8581757527565963 7.544911495018109 2.6477140977878566 -1.097489268351955 -0.6590485593395681 -0.633175034006916
Ni 7.849001041565115 3.7863480253388486 3.8537794926131443 -1.1867751965029818 0.9733294111418785 -1.1491252473606919
Ni 7.378648206470668 4.007500763863498 12.817870992843535 0.7555945114871181 -0.5613836630962267 -0.6858839343648575
Ni 8.136452478460784 9.089518922922244 6.795357405504342 0.43945655187141086 -0.8173984321677922 0.6152971252852307
Ni 7.052601067502533 0.5844607246896305 0.39551668405320833 -0.6547411902134659 -0.3063752238019885 0.6156748203396235
Ni 2.0044572297273944 6.4443766636523865 9.04014379196619 -0.2667185286423148 0.03963792610659625 0.7097643405268809
Ni -0.06744506050113537 5.040522568593888 1.3282739414015874 0.5422330583097048 -1.3343030390150377 -0.3922652388975889
Ni 6.481431800016397 1.7742151535228465 7.112312488147212 -0.24051024567806323 1.596540134847231 -1.2968569783534374
Ni 3.388166162610009 4.302056927320522 0.5527939434447307 -0.5843582696145291 -0.3058612602800474 -0.9655317694743306
Ni 6.051668340264184 5.6126796105636805 4.732942281394541 -0.34422391921864587 -1.1079932532070724 -0.0517377946939238
Ni 5.394988613807446 2.759388799778799 9.604831808895332 0.02051894588895821 0.991649549607305 -0.7903403996087356
P 0.09686714688730079 5.549652348785327 12.467916992725511 0.23668752949786337 0.14312148591424384 -0.05526123446614999
P 3.751549364630167 6.20629582663716 12.639942903237705 1.952686516535076 0.26994397755814803 -0.6537937386985321
P 2.2875497718832514 8.365607096518186 1.3015904371159852 0.901291471438022 -0.09718769949660681 -0.6021379621954533
P 6.546144621922828 7.665202490394941 5.902347649649282 -0.4622604371398039 1.3329753213425495 -0.7192997908211419
P 4.781716591724297 0.9955951201661047 12.703659794724373 1.586386334242681 0.9208544811716141 -0.37540780102061794
P 4.154461670299092 6.023104439599142 8.338245743320863 -0.9848816347558522 1.7432071720208882 -0.7502314474029919
P 4.549462717947529 0.853215131175364 3.5233091176314915 0.3340325805079408 0.4580461419481402 0.906440105518497
P 0.2909784261529131 5.702965823230501 3.545737941916383 0.236083063144645 -2.208384782807487 0.4989986731011018
Ni 1.523130129497995 0.9285895739994411 2.4568941918476073 -1.3167809709708742 0.8782104212488423 0.4354116923780759
Ni 1.905616346303023 6.361276736907958 4.8621939319038585 0.43723871828448574 0.41164672874799424 0.7264186612541103
Ni 6.034903360495679 5.7964690995826285 9.332707188368568 -0.594669164622234 0.0494561977485987 -0.30274019815256253
Ni 8.675007063683756 2.6030848154289727 10.304341980692548 0.1961566592633525 0.22110767278173532 0.17446580455348018
Ni 2.629691291429152 5.040767246676995 7.028899010970355 -0.35507191767674334 -0.18527215114036477 -0.24473842482679786
Ni 0.5190800222378278 -0.11211602875565961 9.136037663811793 -0.7348914746118117 0.8514076992337015 -0.8545030503295735
Ni 1.595944514600665 1.221804539074985 11.41500376605357 -0.21211009726881536 0.8815965641122557 -1.6259808087058512
Ni 3.8960272416297776 6.457643653047572 1.573580031589479 0.28155585076546347 2.0053128844815395 0.8660812420854761
Ni 5.779867238536196 8.241455624718984 7.868536320963477 1.1064536766340944 -0.28389838285571106 1.2378720151787972
Ni 5.0593084080858395 2.799262265174163 4.531206108087188 0.618207099843174 -0.28430924514088457 0.6238635267980029
Ni 1.0919257877008133 7.479156525720663 7.1451519117607845 -0.6172964151034466 0.160825073841594 -0.6308661833680812
Ni 5.169069183737805 4.40191277168223 7.294749904203209 0.04227587795007558 -0.697362110207786 -0.21345298444995497
Ni 7.958036845118984 7.170182479662724 9.024492550583386 0.13031147863376913 1.5123311069984793 0.31567413260541116
Ni 4.801290838372931 0.46929618826147085 10.351625567145593 -0.632091314024434 0.07937046880952783 0.3986572584668618
Ni 8.26543407686356 7.044934487565151 4.758076157820461 0.0786076225015743 0.7314099438211146 1.0307521720357216
Ni 7.136770328091655 5.92663783979604 6.9492789502967955 -0.8175452421583017 -0.29526163038733017 -0.10326835847304795
Ni 2.1185134650605875 5.057115367489095 2.4571995863439304 -0.10681956615941604 0.13180734645300526 1.1672376406906866
Ni 2.2366204819919004 5.4455372933472965 11.318552571907553 -0.014057763644646757 -0.9553735979944062 0.3501019752659777
Ni 1.0424283177032048 3.0392189674932175 3.778974152886074 -0.37989489025769413 0.4715603743844911 -0.5582798273599224
Ni 3.346589012784116 2.618726088445427 2.5208104506612528 0.34492685882294144 -0.26868336567816953 0.4166310693364631
Ni 1.068210137941798 3.7623061381356893 8.495456849008434 -0.11376205891552019 -0.22995278187719106 -0.9682859351807
Ni 3.7256497364256327 2.46877467210518 6.821552459838851 -0.47652800280241153 1.151890211700339 -0.22417345619125262
Ni 4.481605329565601 6.949491910850612 6.320063885561359 -1.1661814315120302 -0.6249058520195883 -0.9908828466446096
Ni 0.6717346782888558 7.334524592150207 11.358554719850328 0.804145680922944 0.7942227653822773 -0.1560199391434668
P -0.05300724116752316 5.724370624426831 7.8484156265959015 1.9951269450874736 -0.8790681412634473 0.7644589038562835
P 8.774119811644914 1.8784298926243657 8.073508588473713 -1.287716706615066 -0.5230441440860798 0.5039848134617836
P 1.7692944054070094 3.362846512083953 10.546279669269653 0.9624022227064135 -0.5300532284140612 -0.6450545590533214
P 3.9552121512882144 6.096226937843504 3.8968192736469494 -0.03618956254667961 -0.03119545176619789 0.1814098399714811
P 6.937529871232002 4.238848422517644 10.475612107792475 0.19706245890707352 -1.8114488779071058 0.10522702486131554
P 6.227745938589621 7.90586604050964 10.340100323216086 1.7312248028480315 -0.09403475568992192 0.028897399760640555
P 2.6619797362481705 8.50597981901232 6.042050679167798 0.35266356534556687 -0.1319541564435147 -0.7936653502169105
P 6.844914685700043 4.14957717078816 1.7280588986823449 -0.5824649092465581 -0.3258976101056323 0.5136454764799993
Ni 5.2864965393271515 2.911669188984184 0.5032937548017542 -0.11116498761230532 -0.23977285329140643 -0.844890466940474
Ni 1.469772183078017 1.114408984893063 7.078344826705975 0.3173108968778858 0.18461137762791432 -0.227433357889447
Ni 7.017294926325183 0.9356308655022132 9.189422796685449 0.8621150583488766 -1.0111768210069554 0.46267181364560955
Ni 2.8307985514414056 1.728895335240525 9.144605927796183 -0.6186236185553023 0.17689009772425665 0.6676054477706438
Ni 6.264048916401854 1.9534282561725547 2.422780629771628 -0.10711292903011876 -0.38590252990435475 1.249208523237539
Ni 4.1460429318099346 7.165742025561877 10.419600763493461 -0.6172815027051112 -0.7769256688647265 0.29901518389249154
Ni 8.234187779435556 7.22879647379391 13.611007686249557 -0.13810989163226536 0.7027159183205317 0.04110525468074211
Ni 7.538921413057578 3.857993392933336 8.203211534114095 0.3425509023915972 -0.38747630214937784 0.24708095691704543
Ni 3.2146078423254614 8.676882928987583 12.33159595804462 -0.9530503491778684 -1.7967601655466796 -0.2973136278203525
Ni 9.08118174379412 5.313438314922701 10.19304879526823 0.07655176841381009 -1.2376506431966106 -0.6278351098512412
Ni 8.43342823629521 2.171780789968303 5.515932084072566 1.2459010561308608 0.5534142717375049 1.2954660115431818
Ni 3.911061350514075 2.638653758991883 11.521614537939302 -1.3610414834511462 -0.6813572501390975 -0.2743539337003856
Ni 1.1026010018452994 3.3987326309397803 12.639359300698734 -0.9721765284843581 0.5818295896554044 -0.39691765006793583
Ni 3.4122442984180728 8.419363777592118 8.225918566441631 -1.1301517915819828 -0.48530986276009974 -0.13909102459861208
Ni 5.547522743247166 7.793341308733678 3.8801467278209514 -0.8877196462908583 0.6481116007120903 -0.8044027912390728
Ni 2.888778194986755 8.108069820820266 3.4886119530165436 2.462317472539043 0.8642202776173376 0.4949561276006121
Ni 3.45846126967179 4.387050843671231 9.462780775994103 0.2629793733148567 -1.1712704159991634 0.18960188886397022
Ni 7.269730210882741 6.149548635658577 11.461199894359467 -0.7745101174446983 1.1900890913675632 0.6056071516909763
Ni 0.8084852589378694 9.344346615403522 0.06020893274699944 -1.427405255588361 -1.5481244625480048 0.5440114903663662
Ni 4.376883109995413 0.02327251056405317 1.4496868311002251 0.4515613055547449 0.11913797851545287 0.3940058757377795
Ni 5.873252706922384 5.749817145070054 0.47013896832550917 0.5085045557090081 -0.41207224632118705 0.42932846229847355
Ni 8.245524530619557 9.013868084485766 11.16479052097668 -1.17235516442291 0.29470370100133114 0.6259533194474962
Ni 0.09821740742000742 4.759278705288179 5.841641204799964 0.3161567286687846 -0.4451721141989494 -0.004297341823773244
Ni 7.855027372130551 -0.46908685256814514 2.7929087909494608 -0.8494022387678984 -1.231235483698886 -1.2323657406485873
P 8.405852110113825 1.2856655187661508 3.5028703417558766 1.7814991256225512 3.00033057923013 0.18797258079066337
P 1.4455853014552384 3.1878019989983053 1.462114665291862 2.25859379956171 -0.22004092208011783 1.1692114765876056
P 4.691983170282276 1.1128231084284745 8.184921394294218 0.9511384768671363 0.8151206918772091 0.23491758208163413
P 8.462372747311752 1.8364721324469715 12.665394861171663 0.6050600209382547 0.06464190435010157 -1.1432577328363216
P 6.2244473155432765 7.83851613259638 1.565131388001275 0.5623226299707283 -1.189518563576074 0.048419786064284355
P 1.6886503216448863 3.038367125277953 5.996902135543652 -0.22949409707321766 0.9064791862865484 0.448382393606131
P 6.757637107240328 3.748894154320885 5.83284729325004 0.104274174029743 0.0694696647560481 0.3210611079489374
P 2.2565209660846772 8.587104196789431 10.140141237764196 1.5567867662086932 -0.4675494534528851 1.2195477629483127
