# total energy = -340864.33879576006 ev
CRYSTAL
PRIMVEC
9.29697839902379 0.00000000000000 0.00000000000000

0.00000000000000 9.29697839902379 0.00000000000000

0.00000000000000 0.00000000000000 13.60706763994979

PRIMCOORD
 96 1
Ni 2.5075717103322406 6.189714371586237 10.301570810916395 -0.34103677973991586 -0.2755991189613963 0.4162461751932186
Ni 9.603127872910255 0.6248183068586743 2.062749412698832 -2.4701400539072558 -0.28900845038876677 2.0189600429513295
Ni 4.000480497793084 8.085963268868984 3.6429252173746463 1.6817606346796325 -0.21448142571446935 0.7314780780548886
Ni 3.3831518367133264 0.7839212165817556 0.2282110687759611 0.9259126124208118 1.2730274800340073 -0.41829894395718925
Ni 5.18821597009387 8.943656008856529 1.4259389334342185 0.12714336531843265 0.3420505657164109 0.06794397214014106
Ni 2.691131251368652 3.5947231735936755 10.384410607029182 -0.19481840006790319 -0.28302677888403516 0.6175496687648332
Ni 2.0763313684069002 4.586292402181521 5.660430884811439 2.854774001511832 -1.2052277467812147 0.628332361202634
Ni 1.921852775727554 3.8714105470126703 7.992968383277162 0.24576892297384126 -1.5821820663533461 0.8558230546925777
Ni 1.441952048987354 8.996425658113148 7.025125043502371 0.16269298028826817 1.4518685308370478 0.5927768326955275
Ni 7.625753542327078 8.212513738509768 1.8206663224895026 -0.10342391021430575 -0.32220730573823864 0.2812257211195544
Ni 5.751055040917629 6.002575493875443 6.367414027152872 2.3923186747524023 0.36443047607350787 0.23982119003083863
Ni 8.628190938635322 5.857300909787368 0.404761617815444 1.2422295208165444 -1.4797529159521419 1.6605001826389598
Ni 2.875239314129189 3.241475183256384 13.33141608632867 1.2545507613860587 -2.594521797320151 -0.6016617938899831
Ni 7.228726080821814 6.037476350695272 3.89475061122316 -0.889552842844855 1.7303097472329296 2.3056074493070873
Ni 4.091739637522289 4.6902791053061295 8.00000340681354 -1.6415113002412824 1.0147920491620392 0.51528249786279
Ni 0.26715704088676084 5.129933212660863 4.653263185905983 -2.016021786258612 0.23639982305411542 -3.0153550776634197
Ni 7.106926367130666 1.2104944753628362 2.5414052740346165 -1.1475661304036882 -0.8472941912859601 -0.8429096890650194
Ni 7.916033098130353 0.5354278597828491 11.020853855647982 0.18949056009708656 0.3580261152090608 0.5835128908950983
Ni 3.6857870767770047 3.6967296203244038 2.168326828823406 -1.282299906474869 -1.9486501416821733 0.9918945757385754
Ni 6.671353633282566 1.8908380558684847 4.823773488095215 -0.6450776989817729 0.9267736748695266 -0.021982932028994397
Ni 6.4779485921470075 5.657025401632669 1.491158166432827 -0.9102304257988647 1.3941310669162637 0.17502861903548567
Ni 2.2825476457432368 5.290315386608348 0.4549550743643439 -0.09602556086770558 1.8361831474289927 -0.3307919620834561
Ni 6.286719043951204 5.030938986923641 8.299658035610188 0.28409790046102684 -2.525490248542786 1.7428338478418695
Ni 7.824327703439148 6.57507412523085 8.216832184964964 0.0008469213813275736 1.4156002925336328 0.045504412189702276
P 5.222298692816695 4.188576964276505 10.414060530462798 -1.801979247853774 -0.8866654939947309 -0.26174498668712337
P 7.716213141916031 0.7447205072634803 13.215945755515236 0.09189122698435788 1.3876220621531523 0.5436687623149669
P 1.4979105618266046 1.9961263359655954 1.1090384097519088 1.4270897812304713 0.43533661616576635 -0.013989372300556554
P 5.0059487090515855 1.925729615709938 1.6556403078436954 -0.023728711075507523 -1.978781413849915 -1.5649950130510981
P 8.093410148547376 6.674412339167947 5.98743629428956 0.19180918092793417 -0.12021141408528975 -0.16110635252743866
P 2.8136561293730513 6.523252767768484 7.710118042893367 0.5503384610256586 -0.33216364562000217 -0.17949205412347796
P 6.518632169516098 8.895618521592798 8.991591229358137 1.2648205187431831 -0.02804379351109364 0.16729705471918285
P 5.9698129420818695 4.312096618967032 4.424705339836634 -0.11985557340776778 -1.4873299569684513 1.8579585914328713
Ni 6.3525137599112265 2.0516478908212195 10.339453208701093 0.30757155810293485 0.39475072432360403 -1.608268736138069
Ni 8.578294055696587 8.023459683253718 13.24258903614237 -1.5913369933797368 2.922640326336502 0.9338678627121465
Ni 4.309195961714026 2.48725781258282 9.102094184625797 0.7345276635144898 0.4464620366549666 0.12062124792919873
Ni 0.18872215312806015 4.894152544091961 6.989528772700091 -0.03858840179615935 1.2404086655577218 0.926520935428772
Ni 3.9715947859818947 6.055605458526562 2.220917976095224 0.5775705572687343 1.0260033444968264 -0.5045108611685827
Ni 3.8674128463114115 1.6173488430104972 6.962341618838018 0.7456461420251546 -0.4733292933594558 0.3736890185572984
Ni 4.830365975460943 8.643707595543233 7.713057747455548 0.2732761272551745 1.0065290378222989 -0.6571395152423134
Ni 0.809101152812662 7.010814204689701 8.465324612066032 0.9118669329610231 1.101987670442941 0.19677835200775143
Ni 5.629050793702231 2.6717842393702336 12.322533094913021 -1.0862005828120134 0.5058306084212707 1.4458441790198389
Ni 6.439793792895921 4.764580556479296 12.855998362560904 0.11376000203299119 1.0290591006040148 0.4568978872763099
Ni 9.30069716637083 2.6313795713523933 5.946928429811756 -0.5109507032566555 -0.2850250402609866 0.16853118423660007
Ni 0.8851132480068322 6.95030017244669 12.149750611208933 3.5732870347656203 -2.743562734042623 1.191318078678658
Ni 2.8620004169231597 8.708935195822379 11.842597969352836 -1.0093076290087002 0.8018023775017481 -0.36619579550404674
Ni 5.283240386064957 3.56778982724124 6.491333451913525 1.884937176904244 -0.6175355276974462 0.11227416151608405
Ni 4.3452403468739815 5.590031375462269 4.742253862911682 -1.863558711228468 -0.9425342801378928 -2.0346226891892507
Ni 6.388325720611807 8.260383880162749 5.1632563722504505 0.5543655799071807 -1.0326234209165055 -0.833811326308177
Ni 8.163314128949157 1.086844662975059 8.65198562508835 0.7038567167931943 -0.024641195587447887 -0.13636771213017804
Ni 0.9593830894535235 1.439655695328724 11.292682628168189 0.5768671034438065 -0.5023791595375606 0.1512448863523266
Ni 7.703002135645126 2.9682927706847724 1.1380756623106112 1.513364433359 0.40744554618245316 -1.7861240259890723
Ni 9.054829276265028 7.928202842823255 10.631841319199824 -1.9083067048681197 -1.1049022729865745 -0.928650323066949
Ni 9.347367997813434 3.0039745736881023 9.853925020950491 -0.35846808784248585 1.401228082972361 -0.08553083198396884
Ni 6.026031770315621 3.5556386765050876 2.4765681468472214 0.19338758115864757 -0.12481677406778503 1.1096719264610762
Ni 0.6018426842004853 3.5262881157751473 -0.10303283314333074 -1.5500252791151434 -0.06898321203793281 0.9174356852980521
Ni 8.042527785900885 3.0446674480355687 12.250796680073524 0.07867267141155483 -1.2661256107078518 -1.0320202401148677
P 8.30999255677186 5.115792508552457 2.4981482930513197 2.9189754758904054 -2.675728033786837 -1.6412793867361346
P 7.431697712705269 3.0964051326925595 7.753116567877838 -0.13848835801760664 -0.8590449040639851 -0.13870921577916112
P 8.422095522017862 0.8221792122928038 4.179696490532685 1.0774079242210477 -1.1644605921661817 0.6065970264080713
P 1.9973349431543481 1.9391544524834676 6.250678377582599 -1.6479714540443298 0.9371763582600893 0.10647529544611986
P 8.046283765164395 6.407412417215724 12.104357184595058 -2.3322029404074285 -1.6878436076489192 -2.366087766080332
P 4.91601903723001 0.37173968032520754 5.45450188410689 -0.7647805488617603 0.5193178442744282 0.8133697706243734
P 3.937419093475318 1.429754413359327 11.788101871211975 -1.2365625523387542 0.12344071965586483 -0.920452360637189
P 1.106498475259853 4.357028915453507 11.71139901052454 1.0392257567243717 0.5714526172964546 -1.439112002502328
Ni 1.5421455849349537 2.1060073233799663 4.006070770889984 0.8397050660847926 0.9126979135027508 -0.3566284635305858
Ni 2.82661611722783 8.343266442376061 9.018274486992285 -1.3074283261113806 -2.0965577361311505 -0.7059997312781261
Ni 8.815571537783867 2.7691514938918265 3.4023249952161323 -1.8491826450124542 1.5110504405138427 -0.4109954683172406
Ni 9.203069596454736 8.011950024025444 4.297370205220999 -0.8236994346851556 0.07103623791221961 -0.7306668950075029
Ni 7.632540336540843 4.402686376253235 5.994756735062051 -2.3154835707702186 -0.549763305248479 -1.340818214425736
Ni 4.648591454272536 6.852523850876596 9.226286010852837 0.5161157923973627 -1.611798089447566 -0.06351396139324546
Ni 6.473300102959497 7.450486906001186 10.762986355553542 0.7507587806613715 0.35680484120745 -0.8896808837822872
Ni 5.700581745319641 0.2458083894442005 12.222575702216147 0.43915676124280495 -0.5244366535582323 0.7913778397343145
Ni 3.8785413294263114 2.960055647844504 4.794164471366449 -0.8952995155206452 1.1507465850141987 -0.197965173227001
Ni 1.1374760072054224 6.240113291357225 2.3583087225212815 -1.2617151403449818 2.672147258414114 0.7708506663152402
Ni 6.4028754917687145 1.0652849701233857 7.009586073846361 -0.04722010932922835 0.6168475004914861 0.6626025952394137
Ni 8.374885465829506 8.769774622308516 6.472786909753196 0.18846726103889477 0.5650559697414913 0.6139637511857878
Ni 2.6360280605399034 0.37795006187972147 4.892706863954645 1.1504660776593025 -0.9728894953909826 1.1725595671242324
Ni 2.3354102647836052 1.195024303346801 9.109740949339251 -0.2076510330561972 2.5091480597393367 -0.022734722593354396
Ni 1.0267396977805494 0.2563688271803866 13.447238772622516 0.24516805616504875 -0.44632705373899906 -0.5437433243066442
Ni 4.587342960737899 -0.11839794930372764 9.990526453912512 1.1455971796027755 2.025243819077512 1.8633306543780621
Ni 5.743524488433863 7.260856438085886 13.000723495227016 0.5904073040220864 -0.5100973541174247 1.6648867417424296
Ni 2.4619700314027635 9.141291175152721 2.092263600248173 0.08085913753991235 -0.9969295670593218 0.5776628598722244
Ni 1.245748617360915 3.982528032550919 2.17566121506346 -1.4072622049815828 -2.2388932358089892 -0.15800174546018594
Ni 4.087918579410155 7.348647804881208 6.071229030685784 -2.509556093811033 1.6493331102785462 -0.2833967606289442
Ni 7.122284975406201 4.920528071741894 10.601198478475755 2.094403408792309 0.5262711356638098 -0.7063743410087253
Ni 4.36673496087703 1.194001635725549 3.533687580863826 0.39546857632623506 -0.35720053398397195 -1.291291825560834
Ni 3.792795297873494 4.974311091641391 12.214302321160217 1.4948846293872577 1.5237745729487306 -1.6501090692126226
Ni 1.2419926380974065 6.89423009586694 6.006336121628139 0.7903193165628131 0.2446391802447722 -0.22404078726813031
P 4.70861274666167 4.5168811616336155 0.5708549255787034 0.19705731670075094 1.3662541380003372 -1.0751803204421095
P 0.8005814018297929 -0.19354635520685845 9.424554301376368 0.09675626838614304 1.7793059746259745 -1.314969628793748
P 9.43448068518738 5.1513999357287865 9.107346047709846 -0.6242047121875056 -1.3665081629926725 1.186166873495022
P 1.6054487106904705 7.428006812290385 0.6021913208895486 -0.1671625860238476 0.7003186217329488 -0.6002834254852178
P 5.839887669290953 7.435946431822653 2.8812284275983777 0.5302794854922546 -0.4326274447647194 -0.9105980935509285
P 2.4913205921327046 5.021511850851371 3.484797560683104 0.8026197311967208 -0.43259941974026145 2.4160301594367293
P 4.284707720674221 7.265309690727521 11.486256874310174 0.1308097584264263 -1.2980083183490614 -1.1784206538906996
P 2.023347888647656 7.839946627109183 4.039299101300146 -2.009519980584352 -0.9739511038862774 0.15680926781398155
