# total energy = -340891.466389244 ev
CRYSTAL
PRIMVEC
9.03874332087296 0.00000000000000 0.00000000000000

0.00000000000000 9.03874332087296 0.00000000000000

0.00000000000000 0.00000000000000 13.22911450027810

PRIMCOORD
 96 1
Ni 6.637402122874886 2.013461368066432 11.560287554437226 -1.4847465125119914 -0.4005043389779296 0.020374192780977816
Ni 4.6920296063729 0.38937458957040116 6.123690583600448 -0.15809250540177935 -0.2950515712590532 -0.526461654408061
Ni 2.4779623745574555 1.2277053552958994 4.820186328899338 0.6035613249055412 1.5526480614499711 0.35590855464542576
Ni 3.357224184412044 4.328048461590122 4.701098177297447 -0.2603383361475839 0.04597209585474018 0.07534360703832187
Ni 5.042994961131413 4.550437696143637 2.684531097111336 -1.2248840875595615 -0.581212782007012 0.3393164546146995
Ni 7.097555493948081 5.859654436466507 2.676170259769359 0.3639630495187861 -0.35292144699264383 -1.064928303696798
Ni 4.989756764434933 4.590723374017356 11.299766574484146 -0.3081181746350242 -0.39024872268819244 0.5515661627851728
Ni 5.711310585162154 7.6714433691013815 12.806139994199599 -1.0422090077224115 0.12158644005594543 -0.33093800074301716
Ni 2.055509600839272 6.434410030954758 0.15023746797802198 -1.3123974971911978 0.8393636235849739 0.7415529457923874
Ni 2.4882665416600003 1.651821257739406 0.14818025005474203 0.8564146655299897 -1.358455725001841 2.063276862590834
Ni 0.5949499542606238 -0.31010300507677246 4.422492480205093 0.8680514784379695 0.01834045018040067 0.8306480980888469
Ni 8.535791252886497 2.1744775371583 1.5146149456488742 -0.3597073595662257 1.5781672887669982 -0.8308666418575562
Ni 6.86462708497214 0.7875068173036579 5.1128942729332625 0.20216609868222601 0.07103520947095507 -1.206380372328419
Ni 0.6336077545070036 7.298251745127819 2.0430777136174827 0.04187992806323755 0.9074032407627147 0.8909078142108527
Ni 7.685372072175961 3.670452786843255 3.7824681219909873 0.6993739984314924 0.34308337785629944 0.11661058410790885
Ni 7.764659926407121 3.9168218067678677 12.387213234153961 0.9134288781315043 -0.7814970902854927 1.0388280070653206
Ni 7.97467512169451 8.870215707822505 7.178871642124689 -0.669455356495189 -0.37235975822291356 -0.7653161096502562
Ni 6.907253797301613 0.5501033266325666 0.7106693663194286 -1.2787114177926624 0.6228628534476305 -2.1731151609719155
Ni 1.9249991896167793 6.694373320460271 9.06855736643188 1.071638368727122 -0.30918184001284815 1.0276732760000817
Ni 0.035168845420430514 5.109565303859695 1.2868250621095956 -0.8706110116350297 -1.6395132959746475 -0.7782261328437049
Ni 6.328828473125965 2.0042418501325763 7.202868601107624 -0.25113018728575465 -0.46593660043981044 -0.4335371010631824
Ni 3.3261128307568173 4.311697375372136 0.5015273136128339 0.8165839066862969 -0.7147414820264981 -0.9890105693225613
Ni 5.978224668090349 5.554777632634201 4.7922990948980395 0.06153446906937145 0.28188109531536615 0.8568350408968598
Ni 5.119083100314939 3.093826172539016 9.349332361861611 0.7004008970341098 -1.6473371628944404 -0.42770095399737956
P 0.08722748614596175 5.747230550131902 12.44228629569414 0.2184021009251142 -0.14932581495274283 -0.42744744322567674
P 3.9947267333089482 6.13098846475711 12.72450297064392 1.4973323195968018 0.002863437590724101 -1.2304615816473388
P 2.3829561461233797 8.490055212940115 1.491502879612728 0.6886193310181495 0.006778199264098003 -0.4282308583589206
P 6.497645077489321 7.775596805524734 5.846778746959862 -0.1664357351601521 -0.33256859436790465 -0.014438801133149328
P 4.71950738531302 1.1127325434148754 12.58272667005598 0.4328655289174545 -0.11938197620545891 0.6046769265672232
P 4.016564336571885 6.116933219279515 8.149041514304324 0.10190078870156 1.7358080513433396 0.965032461240409
P 4.725897776665212 1.1357361445341527 3.976896908724317 -0.5833434551967696 -0.49914445465034685 -0.18579305664084134
P 0.2265190362632982 5.654854595931896 3.3949871490942556 0.5022526612620253 -0.718968118513336 1.4565317406406721
Ni 1.2450326257657047 1.0834741320894923 2.544381770276428 1.434795377404845 -0.6082013947807138 -0.617751243252678
Ni 1.8860783619469923 6.380502967270919 4.803173606688453 -0.16989721134619126 0.44723722425809426 -0.3915651275067708
Ni 6.021041194024344 5.680262502708434 9.235072706809001 -0.5700737346710569 0.4920389539538172 -0.915323781161372
Ni 8.759400717754788 2.468498810560645 10.297516395391922 -0.23333146854143688 0.44809340161080247 -0.42337533003883215
Ni 2.52156527113875 5.037472289114173 7.112567038442736 -1.2072689455809593 0.5283061638159675 -1.6305992813144692
Ni 0.5826301474529323 9.005552807845662 8.988177632037573 0.11606628156866462 -0.11320772907394697 1.3112412720995676
Ni 1.410938754859745 0.9706435023166288 11.299158267075374 -0.40594042239183636 0.5099461732515411 0.2888444140070767
Ni 4.134628398583672 6.86121044009077 1.699504242943585 0.506884760717398 0.7574598468306311 -0.4059087978229526
Ni 5.591899750432578 7.625860987787231 7.759708502952056 0.18321166906691028 0.6477771001908069 1.0587196037829252
Ni 5.296893254035341 3.0048759019634534 5.027658925760459 0.3961308925005823 -0.3247028184665827 -0.4687496444085734
Ni 0.7255055591984784 7.327636698856216 7.148484291789562 -0.3058188370778862 0.4115032611915946 -1.6022821795373308
Ni 5.187623889033006 4.746307258522708 7.054477748339295 0.4122218845251739 -1.26853319170808 -0.4999679789929067
Ni 7.8061567958525435 7.324165821516412 9.165169779509922 1.003098414874195 -0.06539189514224866 0.1566827695384463
Ni 4.679727877051354 0.5455007986600966 10.400293231245346 -0.16440867742779428 -0.8897575026564934 0.5467815969123357
Ni 8.027226373917488 7.173715943076188 4.417002347662913 -0.2195657822159122 -0.5163693031690655 0.8740704309385399
Ni 7.552131960545602 6.0740714996301595 6.9941793894289574 -0.6487479487445086 -0.49798951511029715 -0.5977814849989704
Ni 2.2820566572060947 5.342828146329317 2.2489097786109613 -0.26020386745224866 0.08165026598264004 2.56452396540648
Ni 2.4932468890928967 5.3057512222463 11.208023332299208 -0.06266755423255013 0.8124737411726652 1.3445787099094326
Ni 1.3728314140664748 3.3272788286131583 3.5373853152055785 -1.4654393275429471 0.4826485138778527 1.0402174312136796
Ni 3.440895829033321 2.515156802300413 2.776672043991458 0.37975579357666855 0.5249462462047992 -0.09093940459404984
Ni 1.2564304807800104 3.3856329538886207 8.176121588549258 -1.6604438754797275 -0.288764966919393 0.4702923063053449
Ni 3.7027934095563295 2.6563058141191287 6.8478258693491485 -0.24160142185971298 0.06402432537076069 0.709122593177824
Ni 3.963163442500101 6.903059820516017 6.03234414223639 0.5695805970847223 0.13579461323552744 -0.6769812325585889
Ni 1.045122745233267 7.418964158859821 11.4065918633597 -0.4124435136176768 0.1823287522413247 -0.9656307569460403
P 0.25095166266232305 5.573316094675708 8.178966080994144 0.02438331394037091 -1.0950086680219464 -0.11344015679972722
P 8.495975589652543 1.6602544050259624 8.136831076287809 0.4299524690357176 0.6725674197616095 -0.19179966784623742
P 1.7106634751407794 3.480422252488959 10.39636408963177 0.5286378361237735 -1.3214526654149303 -1.1567182292166012
P 4.069124627537935 6.25454808255692 3.857887394187156 -0.8403630113837656 -0.6545414154978341 -0.21709469496760034
P 6.872156357951455 4.05487956845582 10.206658046153773 0.941850880917623 -1.1960861894912627 2.2905698382476745
P 6.236606177558191 7.816479040441233 10.542016203249162 0.5615253308804136 0.6770285408567566 -0.5592272788748562
P 2.2121239020548775 8.324745640888855 5.9623616739982745 -0.09594379978717671 0.3981921459049852 -2.275100538967482
P 6.813259908091648 3.7611927285471545 1.6376448931046421 1.185863740432306 0.22253566347751352 -0.3623977619141952
Ni 4.9777804298639925 2.7394712891283506 0.8498054500559196 0.7177874679416735 -0.01926116222245715 -1.2174507712099678
Ni 1.3683933912179227 1.0949262195622325 6.981519725881743 -0.0499094832359334 0.34843255798335476 0.3206458747883897
Ni 6.927482504297662 0.8409040958782127 9.40624390374272 -0.8176565709251854 -0.408153113772439 -0.41688175189468846
Ni 2.717561375920835 1.670224138634828 9.375499523056233 0.0693249116480677 0.15455903832722412 -1.404127516007343
Ni 6.379879293998924 1.9963419886872922 2.75524118416678 -0.5905911378981182 -1.398443064028056 0.5312210234699174
Ni 4.3200130189987505 6.883382476847386 10.507753039884584 -0.8255285174740945 0.4209888320845266 -0.613820283629388
Ni 8.05610515803383 7.36343012142295 0.1280591041012556 -0.8511894125753081 -0.5625558290274569 1.0158873391087473
Ni 7.5533883458326665 3.7098617066389523 8.177576826183914 1.2603524556695003 0.9914199500950022 0.05742533199700432
Ni 3.334003653459029 8.335519822631165 12.245622227799004 -0.4221540560372213 0.6996581053308143 0.6849537092411042
Ni 9.218252509825557 5.075868869685759 10.324780859995533 -0.7199803618279342 -0.21633261999059517 -0.3015284372326484
Ni 8.71379122021142 2.4187676461762586 5.800530210281274 -0.616677550572525 -0.5826268887457192 0.8891844037618428
Ni 3.4570751791329304 2.651144691824784 11.484722758477591 1.0326712434353054 0.5796732054340339 -0.22586087119600456
Ni 1.3503610987884698 3.4420889431188786 12.521621151389274 -2.166986679476674 0.7737634690866609 -1.0387745281195657
Ni 3.1581187520130505 8.528225824934893 7.802227654238968 0.08881901581693735 -0.37507998536755405 2.0838827117666434
Ni 5.6792592022273976 7.8932722015844075 3.7286523496121804 -0.643600343105298 0.5246832223513996 0.4372207205623567
Ni 3.1369319382513274 8.358577656208876 3.6519631340143386 0.36783718776221164 -0.6036405148829088 -0.4087588656772379
Ni 3.3223979073540577 4.429625856237837 9.271412973331614 0.2751360632820487 -0.4565798418152588 -0.43283827522394486
Ni 7.099227661416477 5.958167697212677 11.513060121883898 -0.11850265892429913 1.0304945474989606 -0.8818655015029264
Ni 0.7446378666598433 -0.20416441689661985 0.0931126117604063 0.341224984491322 1.0330088292803823 0.6449789686203795
Ni 4.332974576564584 0.612626120213024 1.6222464904064886 0.31892812076633464 -1.6071045406266384 -0.041829277330960216
Ni 5.875309539467916 5.105181513469576 0.3317372366205799 -0.39618745677013056 1.1862712602833698 -0.017955556037156175
Ni 8.013125934724531 8.851650129551778 11.339216168623667 0.2847139367784709 -0.17025588023719065 0.26618271074350286
Ni 0.24248055265486268 4.718865634554878 5.481827745045414 -0.31551652398162433 1.1541604957917542 0.3523923139620512
Ni 7.899997026430279 -0.12992560454570776 2.59073696412327 0.5414090197465127 -0.5191481514657832 0.9399305239664588
P 8.602578525448516 1.5246190264814148 3.8411657195032016 -0.6036816525334894 0.5228798505940737 -0.5369898076328945
P 1.5054749686540556 3.3904686814323592 1.3627441767976682 1.0658662421300353 -0.9646915329612225 1.8740171875576306
P 4.625359837470823 1.0537908998397059 8.288502992791422 1.046624363181288 1.220536609224143 -0.7700765071533769
P 8.623141665938244 1.5920842047738646 12.499686833575463 -0.4038339175717949 0.30824390157961107 0.34614761860391996
P 6.311555435114594 7.593484210101867 1.6826903730802925 0.5210134868092962 0.6724581478772549 -1.1152604762924472
P 1.734616144282659 3.19581031062499 5.9758556135310705 1.3633472487661875 -0.7015764053994498 -0.5986919126283818
P 7.078565094752954 3.913567859261801 5.9437481903892655 -0.44244700195830255 0.9880209517157822 0.4173314378375974
P 2.5083867837391796 8.613316552218537 10.06115145629985 0.3093980697887123 -0.679790676982926 0.5460701726676079
